MODEL        1
REMARK 921   NORMALIZED FREE ENERGY PREDICTED BY IDOCK:   -7.78 KCAL/MOL
REMARK 922        TOTAL FREE ENERGY PREDICTED BY IDOCK:   -9.61 KCAL/MOL
REMARK 923 INTER-LIGAND FREE ENERGY PREDICTED BY IDOCK:   -9.14 KCAL/MOL
REMARK 924 INTRA-LIGAND FREE ENERGY PREDICTED BY IDOCK:   -0.47 KCAL/MOL
REMARK 927      BINDING AFFINITY PREDICTED BY RF-SCORE:    0.00 PKD
ROOT
HETATM    1  N   UNL     1     -11.415  10.651  70.792  1.00  0.00    -0.379 NA 
HETATM    2  C   UNL     1     -11.170  10.645  69.427  1.00  0.00    -0.270 A  
HETATM    3  H1  UNL     1     -11.204   9.858  71.398  1.00  0.00     0.000 HD 
HETATM    4  H2  UNL     1     -12.399  10.882  70.926  1.00  0.00     0.000 HD 
HETATM    5  C   UNL     1     -11.461  11.737  68.594  1.00  0.00    -0.288 A  
HETATM    6  N   UNL     1     -12.014  12.969  68.851  1.00  0.00    -0.296 NA 
HETATM    7  C   UNL     1     -12.093  13.553  67.672  1.00  0.00    -0.283 A  
HETATM    8  N   UNL     1     -11.578  12.763  66.671  1.00  0.00    -0.350 NA 
HETATM    9  N   UNL     1     -10.656   9.526  68.869  1.00  0.00    -0.219 NA 
HETATM   10  C   UNL     1     -11.183  11.586  67.242  1.00  0.00    -0.301 A  
HETATM   11  N   UNL     1     -10.674  10.497  66.642  1.00  0.00    -0.196 NA 
HETATM   12  C   UNL     1     -10.425   9.521  67.541  1.00  0.00    -0.275 A  
ENDROOT
BRANCH   8  13
HETATM   13  C   UNL     1     -11.503  13.180  65.287  1.00  0.00    -0.301 C  
HETATM   14  C   UNL     1     -10.082  15.034  65.179  1.00  0.00    -0.315 C  
HETATM   15  C   UNL     1     -11.488  15.575  64.910  1.00  0.00    -0.279 C  
HETATM   16  O   UNL     1     -12.658  14.164  63.341  1.00  0.00    -1.070 OA 
HETATM   17  O   UNL     1     -10.148  13.598  65.031  1.00  0.00    -0.328 OA 
HETATM   18  C   UNL     1     -12.368  14.333  64.754  1.00  0.00    -0.426 C  
HETATM   19  H   UNL     1     -13.193  14.877  63.012  1.00  0.00     0.000 HD 
HETATM   20  O   UNL     1     -11.477  16.381  63.725  1.00  0.00    -1.590 OA 
HETATM   21  H   UNL     1     -12.350  16.717  63.558  1.00  0.00     0.000 HD 
BRANCH  14  22
HETATM   22  C   UNL     1      -9.615  15.433  66.586  1.00  0.00    -0.256 C  
BRANCH  22  23
HETATM   23  O   UNL     1     -10.338  16.562  67.062  1.00  0.00    -0.295 OA 
HETATM   24  P   UNL     1      -9.294  17.844  67.575  1.00  0.00    -0.260 P  
HETATM   25  O   UNL     1      -8.360  18.989  68.035  1.00  0.00    -0.283 OA 
HETATM   26  O   UNL     1      -9.324  18.313  66.013  1.00  0.00    -0.505 OA 
HETATM   27  O   UNL     1     -10.661  18.588  68.076  1.00  0.00    -0.377 OA 
ENDBRANCH  22  23
ENDBRANCH  14  22
ENDBRANCH   8  13
TORSDOF 3
ENDMDL
MODEL        2
REMARK 921   NORMALIZED FREE ENERGY PREDICTED BY IDOCK:   -7.71 KCAL/MOL
REMARK 922        TOTAL FREE ENERGY PREDICTED BY IDOCK:   -9.53 KCAL/MOL
REMARK 923 INTER-LIGAND FREE ENERGY PREDICTED BY IDOCK:   -8.98 KCAL/MOL
REMARK 924 INTRA-LIGAND FREE ENERGY PREDICTED BY IDOCK:   -0.55 KCAL/MOL
REMARK 927      BINDING AFFINITY PREDICTED BY RF-SCORE:    0.00 PKD
ROOT
HETATM    1  N   UNL     1     -10.990   9.387  69.671  1.00  0.00    -0.329 NA 
HETATM    2  C   UNL     1     -10.695   9.707  68.354  1.00  0.00    -0.209 A  
HETATM    3  H1  UNL     1     -10.671   8.527  70.119  1.00  0.00     0.000 HD 
HETATM    4  H2  UNL     1     -12.004   9.428  69.776  1.00  0.00     0.000 HD 
HETATM    5  C   UNL     1     -11.134  10.890  67.738  1.00  0.00    -0.309 A  
HETATM    6  N   UNL     1     -11.896  11.938  68.196  1.00  0.00    -0.497 NA 
HETATM    7  C   UNL     1     -12.027  12.737  67.157  1.00  0.00    -0.284 A  
HETATM    8  N   UNL     1     -11.348  12.266  66.058  1.00  0.00    -0.334 NA 
HETATM    9  N   UNL     1      -9.979   8.825  67.621  1.00  0.00    -0.180 NA 
HETATM   10  C   UNL     1     -10.782  11.072  66.407  1.00  0.00    -0.227 A  
HETATM   11  N   UNL     1     -10.074  10.226  65.639  1.00  0.00    -0.281 NA 
HETATM   12  C   UNL     1      -9.699   9.135  66.340  1.00  0.00    -0.262 A  
ENDROOT
BRANCH   8  13
HETATM   13  C   UNL     1     -11.291  12.971  64.794  1.00  0.00    -0.317 C  
HETATM   14  C   UNL     1      -9.957  14.867  65.098  1.00  0.00    -0.242 C  
HETATM   15  C   UNL     1     -11.386  15.389  64.935  1.00  0.00    -0.363 C  
HETATM   16  O   UNL     1     -12.489  14.293  63.090  1.00  0.00    -1.102 OA 
HETATM   17  O   UNL     1      -9.957  13.494  64.647  1.00  0.00    -0.271 OA 
HETATM   18  C   UNL     1     -12.208  14.170  64.509  1.00  0.00    -0.445 C  
HETATM   19  H   UNL     1     -13.056  15.035  62.914  1.00  0.00     0.000 HD 
HETATM   20  O   UNL     1     -11.412  16.428  63.949  1.00  0.00    -1.569 OA 
HETATM   21  H   UNL     1     -12.299  16.753  63.848  1.00  0.00     0.000 HD 
BRANCH  14  22
HETATM   22  C   UNL     1      -9.510  14.978  66.562  1.00  0.00    -0.282 C  
BRANCH  22  23
HETATM   23  O   UNL     1      -9.580  16.324  67.016  1.00  0.00    -0.224 OA 
HETATM   24  P   UNL     1     -10.284  16.452  68.592  1.00  0.00    -0.297 P  
HETATM   25  O   UNL     1     -10.914  16.566  70.001  1.00  0.00    -0.350 OA 
HETATM   26  O   UNL     1      -8.769  16.204  69.142  1.00  0.00    -0.244 OA 
HETATM   27  O   UNL     1     -10.195  18.068  68.364  1.00  0.00    -0.362 OA 
ENDBRANCH  22  23
ENDBRANCH  14  22
ENDBRANCH   8  13
TORSDOF 3
ENDMDL
MODEL        3
REMARK 921   NORMALIZED FREE ENERGY PREDICTED BY IDOCK:   -7.67 KCAL/MOL
REMARK 922        TOTAL FREE ENERGY PREDICTED BY IDOCK:   -9.49 KCAL/MOL
REMARK 923 INTER-LIGAND FREE ENERGY PREDICTED BY IDOCK:   -9.15 KCAL/MOL
REMARK 924 INTRA-LIGAND FREE ENERGY PREDICTED BY IDOCK:   -0.34 KCAL/MOL
REMARK 927      BINDING AFFINITY PREDICTED BY RF-SCORE:    0.00 PKD
ROOT
HETATM    1  N   UNL     1     -11.654  16.580  63.898  1.00  0.00    -1.578 NA 
HETATM    2  C   UNL     1     -10.997  15.695  64.738  1.00  0.00    -0.400 A  
HETATM    3  H1  UNL     1     -11.339  17.538  63.744  1.00  0.00     0.000 HD 
HETATM    4  H2  UNL     1     -12.627  16.625  64.202  1.00  0.00     0.000 HD 
HETATM    5  C   UNL     1     -11.430  14.376  64.950  1.00  0.00    -0.386 A  
HETATM    6  N   UNL     1     -12.503  13.671  64.460  1.00  0.00    -0.618 NA 
HETATM    7  C   UNL     1     -12.430  12.495  65.052  1.00  0.00    -0.420 A  
HETATM    8  N   UNL     1     -11.331  12.401  65.873  1.00  0.00    -0.339 NA 
HETATM    9  N   UNL     1      -9.905  16.130  65.406  1.00  0.00    -0.472 NA 
HETATM   10  C   UNL     1     -10.687  13.606  65.834  1.00  0.00    -0.281 A  
HETATM   11  N   UNL     1      -9.598  13.993  66.520  1.00  0.00    -0.286 NA 
HETATM   12  C   UNL     1      -9.271  15.270  66.227  1.00  0.00    -0.315 A  
ENDROOT
BRANCH   8  13
HETATM   13  C   UNL     1     -10.989  11.203  66.611  1.00  0.00    -0.228 C  
HETATM   14  C   UNL     1     -11.581  11.552  68.846  1.00  0.00    -0.320 C  
HETATM   15  C   UNL     1     -10.051  11.559  68.818  1.00  0.00    -0.179 C  
HETATM   16  O   UNL     1      -9.213   9.731  67.486  1.00  0.00    -0.130 OA 
HETATM   17  O   UNL     1     -12.022  10.986  67.591  1.00  0.00    -0.583 OA 
HETATM   18  C   UNL     1      -9.678  11.104  67.406  1.00  0.00    -0.173 C  
HETATM   19  H   UNL     1      -8.402   9.669  67.978  1.00  0.00     0.000 HD 
HETATM   20  O   UNL     1      -9.545  10.673  69.823  1.00  0.00    -0.427 OA 
HETATM   21  H   UNL     1      -8.594  10.678  69.806  1.00  0.00     0.000 HD 
BRANCH  14  22
HETATM   22  C   UNL     1     -12.121  12.975  69.041  1.00  0.00    -0.177 C  
BRANCH  22  23
HETATM   23  O   UNL     1     -11.645  13.538  70.258  1.00  0.00    -0.202 OA 
HETATM   24  P   UNL     1     -12.746  14.698  70.921  1.00  0.00    -0.384 P  
HETATM   25  O   UNL     1     -13.729  15.735  71.514  1.00  0.00    -0.496 OA 
HETATM   26  O   UNL     1     -13.457  13.415  71.635  1.00  0.00    -0.360 OA 
HETATM   27  O   UNL     1     -11.583  14.978  72.035  1.00  0.00    -0.395 OA 
ENDBRANCH  22  23
ENDBRANCH  14  22
ENDBRANCH   8  13
TORSDOF 3
ENDMDL
MODEL        4
REMARK 921   NORMALIZED FREE ENERGY PREDICTED BY IDOCK:   -7.56 KCAL/MOL
REMARK 922        TOTAL FREE ENERGY PREDICTED BY IDOCK:   -9.36 KCAL/MOL
REMARK 923 INTER-LIGAND FREE ENERGY PREDICTED BY IDOCK:   -8.92 KCAL/MOL
REMARK 924 INTRA-LIGAND FREE ENERGY PREDICTED BY IDOCK:   -0.44 KCAL/MOL
REMARK 927      BINDING AFFINITY PREDICTED BY RF-SCORE:    0.00 PKD
ROOT
HETATM    1  N   UNL     1      -8.087  20.336  65.333  1.00  0.00    -0.426 NA 
HETATM    2  C   UNL     1      -8.753  19.688  66.361  1.00  0.00    -0.368 A  
HETATM    3  H1  UNL     1      -8.211  21.328  65.128  1.00  0.00     0.000 HD 
HETATM    4  H2  UNL     1      -8.277  19.822  64.473  1.00  0.00     0.000 HD 
HETATM    5  C   UNL     1      -8.582  18.323  66.643  1.00  0.00    -0.273 A  
HETATM    6  N   UNL     1      -7.812  17.351  66.050  1.00  0.00    -0.512 NA 
HETATM    7  C   UNL     1      -8.100  16.246  66.708  1.00  0.00    -0.264 A  
HETATM    8  N   UNL     1      -8.995  16.475  67.728  1.00  0.00    -0.201 NA 
HETATM    9  N   UNL     1      -9.630  20.395  67.108  1.00  0.00    -0.438 NA 
HETATM   10  C   UNL     1      -9.329  17.799  67.690  1.00  0.00    -0.250 A  
HETATM   11  N   UNL     1     -10.211  18.461  68.458  1.00  0.00    -0.381 NA 
HETATM   12  C   UNL     1     -10.281  19.761  68.104  1.00  0.00    -0.452 A  
ENDROOT
BRANCH   8  13
HETATM   13  C   UNL     1      -9.449  15.442  68.635  1.00  0.00    -0.205 C  
HETATM   14  C   UNL     1     -11.188  14.286  67.582  1.00  0.00    -0.304 C  
HETATM   15  C   UNL     1     -11.846  15.086  68.708  1.00  0.00    -0.301 C  
HETATM   16  O   UNL     1     -10.583  14.879  70.753  1.00  0.00    -0.520 OA 
HETATM   17  O   UNL     1      -9.767  14.279  67.846  1.00  0.00    -0.213 OA 
HETATM   18  C   UNL     1     -10.682  15.650  69.527  1.00  0.00    -0.271 C  
HETATM   19  H   UNL     1     -11.345  15.008  71.305  1.00  0.00     0.000 HD 
HETATM   20  O   UNL     1     -12.686  14.226  69.486  1.00  0.00    -0.505 OA 
HETATM   21  H   UNL     1     -13.095  14.722  70.185  1.00  0.00     0.000 HD 
BRANCH  14  22
HETATM   22  C   UNL     1     -11.504  14.919  66.220  1.00  0.00    -0.269 C  
BRANCH  22  23
HETATM   23  O   UNL     1     -10.925  14.165  65.161  1.00  0.00    -0.320 OA 
HETATM   24  P   UNL     1     -12.056  13.075  64.435  1.00  0.00    -0.437 P  
HETATM   25  O   UNL     1     -13.067  12.099  63.786  1.00  0.00    -0.774 OA 
HETATM   26  O   UNL     1     -12.465  14.341  63.491  1.00  0.00    -0.798 OA 
HETATM   27  O   UNL     1     -10.782  12.530  63.567  1.00  0.00    -0.435 OA 
ENDBRANCH  22  23
ENDBRANCH  14  22
ENDBRANCH   8  13
TORSDOF 3
ENDMDL
MODEL        5
REMARK 921   NORMALIZED FREE ENERGY PREDICTED BY IDOCK:   -7.43 KCAL/MOL
REMARK 922        TOTAL FREE ENERGY PREDICTED BY IDOCK:   -9.20 KCAL/MOL
REMARK 923 INTER-LIGAND FREE ENERGY PREDICTED BY IDOCK:   -8.69 KCAL/MOL
REMARK 924 INTRA-LIGAND FREE ENERGY PREDICTED BY IDOCK:   -0.51 KCAL/MOL
REMARK 927      BINDING AFFINITY PREDICTED BY RF-SCORE:    0.00 PKD
ROOT
HETATM    1  N   UNL     1     -13.026  11.717  63.127  1.00  0.00    -0.843 NA 
HETATM    2  C   UNL     1     -11.943  12.170  63.866  1.00  0.00    -0.486 A  
HETATM    3  H1  UNL     1     -13.171  10.734  62.898  1.00  0.00     0.000 HD 
HETATM    4  H2  UNL     1     -13.037  12.238  62.250  1.00  0.00     0.000 HD 
HETATM    5  C   UNL     1     -11.744  13.523  64.180  1.00  0.00    -0.411 A  
HETATM    6  N   UNL     1     -12.464  14.654  63.876  1.00  0.00    -0.792 NA 
HETATM    7  C   UNL     1     -11.765  15.645  64.392  1.00  0.00    -0.218 A  
HETATM    8  N   UNL     1     -10.644  15.196  65.050  1.00  0.00    -0.416 NA 
HETATM    9  N   UNL     1     -11.022  11.269  64.276  1.00  0.00    -0.333 NA 
HETATM   10  C   UNL     1     -10.605  13.837  64.909  1.00  0.00    -0.413 A  
HETATM   11  N   UNL     1      -9.663  12.980  65.339  1.00  0.00    -0.094 NA 
HETATM   12  C   UNL     1      -9.967  11.712  64.989  1.00  0.00    -0.259 A  
ENDROOT
BRANCH   8  13
HETATM   13  C   UNL     1      -9.723  16.071  65.744  1.00  0.00    -0.305 C  
HETATM   14  C   UNL     1     -10.153  15.884  68.034  1.00  0.00    -0.230 C  
HETATM   15  C   UNL     1     -10.643  17.278  67.635  1.00  0.00    -0.350 C  
HETATM   16  O   UNL     1      -9.017  18.384  66.236  1.00  0.00    -0.403 OA 
HETATM   17  O   UNL     1      -9.319  15.406  66.955  1.00  0.00    -0.209 OA 
HETATM   18  C   UNL     1     -10.149  17.476  66.199  1.00  0.00    -0.310 C  
HETATM   19  H   UNL     1      -9.281  19.252  66.518  1.00  0.00     0.000 HD 
HETATM   20  O   UNL     1     -10.101  18.256  68.531  1.00  0.00    -0.369 OA 
HETATM   21  H   UNL     1     -10.405  19.122  68.283  1.00  0.00     0.000 HD 
BRANCH  14  22
HETATM   22  C   UNL     1     -11.345  14.949  68.281  1.00  0.00    -0.310 C  
BRANCH  22  23
HETATM   23  O   UNL     1     -12.260  15.522  69.206  1.00  0.00    -0.301 OA 
HETATM   24  P   UNL     1     -12.525  14.508  70.584  1.00  0.00    -0.378 P  
HETATM   25  O   UNL     1     -12.763  13.601  71.815  1.00  0.00    -0.321 OA 
HETATM   26  O   UNL     1     -11.215  15.249  71.213  1.00  0.00    -0.349 OA 
HETATM   27  O   UNL     1     -13.655  15.607  71.019  1.00  0.00    -0.588 OA 
ENDBRANCH  22  23
ENDBRANCH  14  22
ENDBRANCH   8  13
TORSDOF 3
ENDMDL
MODEL        6
REMARK 921   NORMALIZED FREE ENERGY PREDICTED BY IDOCK:   -7.27 KCAL/MOL
REMARK 922        TOTAL FREE ENERGY PREDICTED BY IDOCK:   -9.01 KCAL/MOL
REMARK 923 INTER-LIGAND FREE ENERGY PREDICTED BY IDOCK:   -8.37 KCAL/MOL
REMARK 924 INTRA-LIGAND FREE ENERGY PREDICTED BY IDOCK:   -0.64 KCAL/MOL
REMARK 927      BINDING AFFINITY PREDICTED BY RF-SCORE:    0.00 PKD
ROOT
HETATM    1  N   UNL     1      -7.038  20.753  65.456  1.00  0.00    -0.521 NA 
HETATM    2  C   UNL     1      -7.016  19.470  65.983  1.00  0.00    -0.265 A  
HETATM    3  H1  UNL     1      -6.287  21.129  64.878  1.00  0.00     0.000 HD 
HETATM    4  H2  UNL     1      -7.178  21.399  66.233  1.00  0.00     0.000 HD 
HETATM    5  C   UNL     1      -8.050  18.952  66.779  1.00  0.00    -0.269 A  
HETATM    6  N   UNL     1      -9.231  19.498  67.223  1.00  0.00    -0.305 NA 
HETATM    7  C   UNL     1      -9.770  18.563  67.978  1.00  0.00    -0.327 A  
HETATM    8  N   UNL     1      -9.004  17.421  68.007  1.00  0.00    -0.249 NA 
HETATM    9  N   UNL     1      -5.935  18.693  65.744  1.00  0.00    -0.182 NA 
HETATM   10  C   UNL     1      -7.887  17.659  67.256  1.00  0.00    -0.205 A  
HETATM   11  N   UNL     1      -6.834  16.850  67.046  1.00  0.00    -0.182 NA 
HETATM   12  C   UNL     1      -5.914  17.449  66.261  1.00  0.00    -0.196 A  
ENDROOT
BRANCH   8  13
HETATM   13  C   UNL     1      -9.386  16.224  68.727  1.00  0.00    -0.235 C  
HETATM   14  C   UNL     1     -10.556  14.846  67.244  1.00  0.00    -0.272 C  
HETATM   15  C   UNL     1     -11.599  15.363  68.238  1.00  0.00    -0.348 C  
HETATM   16  O   UNL     1     -10.772  15.211  70.499  1.00  0.00    -0.460 OA 
HETATM   17  O   UNL     1      -9.258  15.112  67.821  1.00  0.00    -0.179 OA 
HETATM   18  C   UNL     1     -10.791  16.070  69.329  1.00  0.00    -0.300 C  
HETATM   19  H   UNL     1     -11.641  15.116  70.871  1.00  0.00     0.000 HD 
HETATM   20  O   UNL     1     -12.360  14.266  68.755  1.00  0.00    -0.562 OA 
HETATM   21  H   UNL     1     -13.008  14.588  69.371  1.00  0.00     0.000 HD 
BRANCH  14  22
HETATM   22  C   UNL     1     -10.720  15.539  65.885  1.00  0.00    -0.339 C  
BRANCH  22  23
HETATM   23  O   UNL     1     -10.597  14.606  64.818  1.00  0.00    -0.421 OA 
HETATM   24  P   UNL     1     -11.930  13.505  64.750  1.00  0.00    -0.437 P  
HETATM   25  O   UNL     1     -13.123  12.520  64.688  1.00  0.00    -0.845 OA 
HETATM   26  O   UNL     1     -12.656  14.651  63.843  1.00  0.00    -0.834 OA 
HETATM   27  O   UNL     1     -11.090  12.757  63.564  1.00  0.00    -0.433 OA 
ENDBRANCH  22  23
ENDBRANCH  14  22
ENDBRANCH   8  13
TORSDOF 3
ENDMDL
MODEL        7
REMARK 921   NORMALIZED FREE ENERGY PREDICTED BY IDOCK:   -7.24 KCAL/MOL
REMARK 922        TOTAL FREE ENERGY PREDICTED BY IDOCK:   -8.98 KCAL/MOL
REMARK 923 INTER-LIGAND FREE ENERGY PREDICTED BY IDOCK:   -8.25 KCAL/MOL
REMARK 924 INTRA-LIGAND FREE ENERGY PREDICTED BY IDOCK:   -0.73 KCAL/MOL
REMARK 927      BINDING AFFINITY PREDICTED BY RF-SCORE:    0.00 PKD
ROOT
HETATM    1  N   UNL     1      -9.462  11.972  63.411  1.00  0.00    -0.656 NA 
HETATM    2  C   UNL     1     -10.493  12.583  64.108  1.00  0.00    -0.403 A  
HETATM    3  H1  UNL     1      -9.485  11.822  62.402  1.00  0.00     0.000 HD 
HETATM    4  H2  UNL     1      -9.291  11.067  63.849  1.00  0.00     0.000 HD 
HETATM    5  C   UNL     1     -10.460  12.789  65.497  1.00  0.00    -0.287 A  
HETATM    6  N   UNL     1      -9.523  12.474  66.452  1.00  0.00    -0.240 NA 
HETATM    7  C   UNL     1     -10.062  12.862  67.591  1.00  0.00    -0.221 A  
HETATM    8  N   UNL     1     -11.291  13.449  67.404  1.00  0.00    -0.295 NA 
HETATM    9  N   UNL     1     -11.592  12.972  63.424  1.00  0.00    -0.433 NA 
HETATM   10  C   UNL     1     -11.571  13.396  66.067  1.00  0.00    -0.344 A  
HETATM   11  N   UNL     1     -12.684  13.798  65.431  1.00  0.00    -0.647 NA 
HETATM   12  C   UNL     1     -12.595  13.561  64.105  1.00  0.00    -0.122 A  
ENDROOT
BRANCH   8  13
HETATM   13  C   UNL     1     -12.082  14.002  68.484  1.00  0.00    -0.294 C  
HETATM   14  C   UNL     1     -11.226  16.120  68.979  1.00  0.00    -0.347 C  
HETATM   15  C   UNL     1     -10.846  15.233  70.167  1.00  0.00    -0.281 C  
HETATM   16  O   UNL     1     -12.726  13.891  70.863  1.00  0.00    -0.333 OA 
HETATM   17  O   UNL     1     -12.239  15.411  68.231  1.00  0.00    -0.074 OA 
HETATM   18  C   UNL     1     -11.604  13.923  69.942  1.00  0.00    -0.241 C  
HETATM   19  H   UNL     1     -12.430  13.842  71.765  1.00  0.00     0.000 HD 
HETATM   20  O   UNL     1     -11.228  15.874  71.390  1.00  0.00    -0.346 OA 
HETATM   21  H   UNL     1     -10.992  15.324  72.128  1.00  0.00     0.000 HD 
BRANCH  14  22
HETATM   22  C   UNL     1      -9.992  16.415  68.115  1.00  0.00    -0.242 C  
BRANCH  22  23
HETATM   23  O   UNL     1     -10.345  16.517  66.741  1.00  0.00    -0.292 OA 
HETATM   24  P   UNL     1     -10.506  18.161  66.224  1.00  0.00    -0.175 P  
HETATM   25  O   UNL     1     -10.651  19.631  65.761  1.00  0.00    -0.522 OA 
HETATM   26  O   UNL     1      -8.900  18.091  65.945  1.00  0.00    -0.504 OA 
HETATM   27  O   UNL     1     -11.023  17.532  64.806  1.00  0.00    -0.950 OA 
ENDBRANCH  22  23
ENDBRANCH  14  22
ENDBRANCH   8  13
TORSDOF 3
ENDMDL
MODEL        8
REMARK 921   NORMALIZED FREE ENERGY PREDICTED BY IDOCK:   -7.20 KCAL/MOL
REMARK 922        TOTAL FREE ENERGY PREDICTED BY IDOCK:   -8.93 KCAL/MOL
REMARK 923 INTER-LIGAND FREE ENERGY PREDICTED BY IDOCK:   -8.30 KCAL/MOL
REMARK 924 INTRA-LIGAND FREE ENERGY PREDICTED BY IDOCK:   -0.63 KCAL/MOL
REMARK 927      BINDING AFFINITY PREDICTED BY RF-SCORE:    0.00 PKD
ROOT
HETATM    1  N   UNL     1     -13.034  11.622  63.008  1.00  0.00    -0.852 NA 
HETATM    2  C   UNL     1     -11.953  12.071  63.753  1.00  0.00    -0.490 A  
HETATM    3  H1  UNL     1     -13.155  10.647  62.737  1.00  0.00     0.000 HD 
HETATM    4  H2  UNL     1     -13.072  12.183  62.157  1.00  0.00     0.000 HD 
HETATM    5  C   UNL     1     -11.787  13.414  64.127  1.00  0.00    -0.442 A  
HETATM    6  N   UNL     1     -12.542  14.536  63.886  1.00  0.00    -0.789 NA 
HETATM    7  C   UNL     1     -11.864  15.522  64.438  1.00  0.00    -0.219 A  
HETATM    8  N   UNL     1     -10.721  15.075  65.059  1.00  0.00    -0.409 NA 
HETATM    9  N   UNL     1     -11.001  11.179  64.109  1.00  0.00    -0.308 NA 
HETATM   10  C   UNL     1     -10.647  13.726  64.855  1.00  0.00    -0.413 A  
HETATM   11  N   UNL     1      -9.675  12.877  65.231  1.00  0.00    -0.068 NA 
HETATM   12  C   UNL     1      -9.949  11.618  64.827  1.00  0.00    -0.254 A  
ENDROOT
BRANCH   8  13
HETATM   13  C   UNL     1      -9.815  15.944  65.780  1.00  0.00    -0.345 C  
HETATM   14  C   UNL     1     -10.487  15.969  68.020  1.00  0.00    -0.275 C  
HETATM   15  C   UNL     1     -10.832  17.355  67.469  1.00  0.00    -0.203 C  
HETATM   16  O   UNL     1      -8.999  18.239  66.174  1.00  0.00    -0.469 OA 
HETATM   17  O   UNL     1      -9.584  15.354  67.074  1.00  0.00    -0.211 OA 
HETATM   18  C   UNL     1     -10.183  17.404  66.084  1.00  0.00    -0.328 C  
HETATM   19  H   UNL     1      -9.227  19.142  66.361  1.00  0.00     0.000 HD 
HETATM   20  O   UNL     1     -10.316  18.365  68.343  1.00  0.00    -0.367 OA 
HETATM   21  H   UNL     1     -10.530  19.226  68.002  1.00  0.00     0.000 HD 
BRANCH  14  22
HETATM   22  C   UNL     1     -11.761  15.134  68.206  1.00  0.00    -0.314 C  
BRANCH  22  23
HETATM   23  O   UNL     1     -11.596  14.178  69.247  1.00  0.00    -0.264 OA 
HETATM   24  P   UNL     1     -11.851  12.557  68.697  1.00  0.00    -0.160 P  
HETATM   25  O   UNL     1     -12.080  11.107  68.206  1.00  0.00    -0.620 OA 
HETATM   26  O   UNL     1     -10.271  12.588  68.291  1.00  0.00    -0.224 OA 
HETATM   27  O   UNL     1     -11.687  12.132  70.267  1.00  0.00    -0.279 OA 
ENDBRANCH  22  23
ENDBRANCH  14  22
ENDBRANCH   8  13
TORSDOF 3
ENDMDL
MODEL        9
REMARK 921   NORMALIZED FREE ENERGY PREDICTED BY IDOCK:   -7.19 KCAL/MOL
REMARK 922        TOTAL FREE ENERGY PREDICTED BY IDOCK:   -8.92 KCAL/MOL
REMARK 923 INTER-LIGAND FREE ENERGY PREDICTED BY IDOCK:   -8.46 KCAL/MOL
REMARK 924 INTRA-LIGAND FREE ENERGY PREDICTED BY IDOCK:   -0.46 KCAL/MOL
REMARK 927      BINDING AFFINITY PREDICTED BY RF-SCORE:    0.00 PKD
ROOT
HETATM    1  N   UNL     1     -11.022  11.059  62.713  1.00  0.00    -0.607 NA 
HETATM    2  C   UNL     1     -10.764  11.331  64.049  1.00  0.00    -0.377 A  
HETATM    3  H1  UNL     1     -10.492  10.375  62.173  1.00  0.00     0.000 HD 
HETATM    4  H2  UNL     1     -10.981  11.944  62.208  1.00  0.00     0.000 HD 
HETATM    5  C   UNL     1     -11.493  12.273  64.792  1.00  0.00    -0.329 A  
HETATM    6  N   UNL     1     -12.535  13.104  64.455  1.00  0.00    -0.604 NA 
HETATM    7  C   UNL     1     -12.773  13.802  65.547  1.00  0.00    -0.488 A  
HETATM    8  N   UNL     1     -11.954  13.427  66.586  1.00  0.00    -0.397 NA 
HETATM    9  N   UNL     1      -9.745  10.681  64.653  1.00  0.00    -0.273 NA 
HETATM   10  C   UNL     1     -11.114  12.458  66.114  1.00  0.00    -0.302 A  
HETATM   11  N   UNL     1     -10.110  11.838  66.758  1.00  0.00    -0.207 NA 
HETATM   12  C   UNL     1      -9.492  10.951  65.950  1.00  0.00    -0.207 A  
ENDROOT
BRANCH   8  13
HETATM   13  C   UNL     1     -12.034  14.005  67.911  1.00  0.00    -0.351 C  
HETATM   14  C   UNL     1     -10.502  15.769  68.010  1.00  0.00    -0.270 C  
HETATM   15  C   UNL     1      -9.921  14.666  68.899  1.00  0.00    -0.228 C  
HETATM   16  O   UNL     1     -11.626  13.736  70.329  1.00  0.00    -0.463 OA 
HETATM   17  O   UNL     1     -11.887  15.431  67.773  1.00  0.00    -0.248 OA 
HETATM   18  C   UNL     1     -11.032  13.620  69.010  1.00  0.00    -0.234 C  
HETATM   19  H   UNL     1     -11.006  13.498  71.009  1.00  0.00     0.000 HD 
HETATM   20  O   UNL     1      -9.563  15.211  70.174  1.00  0.00    -0.466 OA 
HETATM   21  H   UNL     1      -9.202  14.527  70.725  1.00  0.00     0.000 HD 
BRANCH  14  22
HETATM   22  C   UNL     1      -9.715  15.869  66.697  1.00  0.00    -0.253 C  
BRANCH  22  23
HETATM   23  O   UNL     1     -10.250  16.887  65.858  1.00  0.00    -0.412 OA 
HETATM   24  P   UNL     1     -10.045  18.468  66.530  1.00  0.00    -0.428 P  
HETATM   25  O   UNL     1      -9.863  19.883  67.131  1.00  0.00    -0.354 OA 
HETATM   26  O   UNL     1      -8.587  18.444  65.799  1.00  0.00    -0.450 OA 
HETATM   27  O   UNL     1     -10.940  18.986  65.264  1.00  0.00    -0.511 OA 
ENDBRANCH  22  23
ENDBRANCH  14  22
ENDBRANCH   8  13
TORSDOF 3
ENDMDL
MODEL       10
REMARK 921   NORMALIZED FREE ENERGY PREDICTED BY IDOCK:   -7.18 KCAL/MOL
REMARK 922        TOTAL FREE ENERGY PREDICTED BY IDOCK:   -8.90 KCAL/MOL
REMARK 923 INTER-LIGAND FREE ENERGY PREDICTED BY IDOCK:   -8.37 KCAL/MOL
REMARK 924 INTRA-LIGAND FREE ENERGY PREDICTED BY IDOCK:   -0.54 KCAL/MOL
REMARK 927      BINDING AFFINITY PREDICTED BY RF-SCORE:    0.00 PKD
ROOT
HETATM    1  N   UNL     1     -10.984  16.293  64.369  1.00  0.00    -1.081 NA 
HETATM    2  C   UNL     1     -11.490  15.042  64.686  1.00  0.00    -0.381 A  
HETATM    3  H1  UNL     1     -11.365  16.874  63.621  1.00  0.00     0.000 HD 
HETATM    4  H2  UNL     1      -9.986  16.183  64.190  1.00  0.00     0.000 HD 
HETATM    5  C   UNL     1     -10.965  14.243  65.714  1.00  0.00    -0.305 A  
HETATM    6  N   UNL     1      -9.922  14.437  66.589  1.00  0.00    -0.264 NA 
HETATM    7  C   UNL     1      -9.863  13.323  67.291  1.00  0.00    -0.233 A  
HETATM    8  N   UNL     1     -10.850  12.436  66.932  1.00  0.00    -0.244 NA 
HETATM    9  N   UNL     1     -12.516  14.556  63.951  1.00  0.00    -0.806 NA 
HETATM   10  C   UNL     1     -11.557  13.002  65.909  1.00  0.00    -0.363 A  
HETATM   11  N   UNL     1     -12.576  12.477  65.207  1.00  0.00    -0.637 NA 
HETATM   12  C   UNL     1     -13.002  13.337  64.258  1.00  0.00     0.255 A  
ENDROOT
BRANCH   8  13
HETATM   13  C   UNL     1     -11.039  11.152  67.575  1.00  0.00    -0.291 C  
HETATM   14  C   UNL     1     -12.002  11.541  69.670  1.00  0.00    -0.339 C  
HETATM   15  C   UNL     1     -10.567  11.087  69.953  1.00  0.00     0.106 C  
HETATM   16  O   UNL     1     -10.001   9.166  68.608  1.00  0.00    -0.161 OA 
HETATM   17  O   UNL     1     -12.286  11.204  68.294  1.00  0.00    -0.613 OA 
HETATM   18  C   UNL     1     -10.026  10.618  68.600  1.00  0.00    -0.181 C  
HETATM   19  H   UNL     1      -9.374   8.836  69.242  1.00  0.00     0.000 HD 
HETATM   20  O   UNL     1     -10.576  10.036  70.925  1.00  0.00    -0.355 OA 
HETATM   21  H   UNL     1      -9.685   9.754  71.101  1.00  0.00     0.000 HD 
BRANCH  14  22
HETATM   22  C   UNL     1     -12.146  13.048  69.921  1.00  0.00    -0.277 C  
BRANCH  22  23
HETATM   23  O   UNL     1     -12.902  13.298  71.101  1.00  0.00    -0.334 OA 
HETATM   24  P   UNL     1     -12.587  14.865  71.764  1.00  0.00    -0.386 P  
HETATM   25  O   UNL     1     -12.305  16.267  72.358  1.00  0.00    -0.464 OA 
HETATM   26  O   UNL     1     -13.751  15.383  70.746  1.00  0.00    -0.394 OA 
HETATM   27  O   UNL     1     -13.544  14.395  73.003  1.00  0.00    -0.619 OA 
ENDBRANCH  22  23
ENDBRANCH  14  22
ENDBRANCH   8  13
TORSDOF 3
ENDMDL
MODEL       11
REMARK 921   NORMALIZED FREE ENERGY PREDICTED BY IDOCK:   -7.14 KCAL/MOL
REMARK 922        TOTAL FREE ENERGY PREDICTED BY IDOCK:   -8.86 KCAL/MOL
REMARK 923 INTER-LIGAND FREE ENERGY PREDICTED BY IDOCK:   -8.43 KCAL/MOL
REMARK 924 INTRA-LIGAND FREE ENERGY PREDICTED BY IDOCK:   -0.43 KCAL/MOL
REMARK 927      BINDING AFFINITY PREDICTED BY RF-SCORE:    0.00 PKD
ROOT
HETATM    1  N   UNL     1      -8.914   9.949  70.212  1.00  0.00    -0.360 NA 
HETATM    2  C   UNL     1      -9.912  10.428  69.376  1.00  0.00    -0.218 A  
HETATM    3  H1  UNL     1      -9.058   9.774  71.206  1.00  0.00     0.000 HD 
HETATM    4  H2  UNL     1      -8.116  10.579  70.126  1.00  0.00     0.000 HD 
HETATM    5  C   UNL     1      -9.713  10.669  68.007  1.00  0.00    -0.157 A  
HETATM    6  N   UNL     1      -8.609  10.531  67.199  1.00  0.00    -0.126 NA 
HETATM    7  C   UNL     1      -9.003  10.959  66.017  1.00  0.00    -0.186 A  
HETATM    8  N   UNL     1     -10.328  11.331  66.020  1.00  0.00    -0.245 NA 
HETATM    9  N   UNL     1     -11.123  10.703  69.910  1.00  0.00    -0.289 NA 
HETATM   10  C   UNL     1     -10.795  11.167  67.294  1.00  0.00    -0.274 A  
HETATM   11  N   UNL     1     -12.015  11.456  67.779  1.00  0.00    -0.646 NA 
HETATM   12  C   UNL     1     -12.090  11.173  69.097  1.00  0.00    -0.283 A  
ENDROOT
BRANCH   8  13
HETATM   13  C   UNL     1     -11.026  11.799  64.841  1.00  0.00    -0.300 C  
HETATM   14  C   UNL     1     -10.539  14.071  64.582  1.00  0.00    -0.395 C  
HETATM   15  C   UNL     1     -12.007  14.009  65.009  1.00  0.00    -0.401 C  
HETATM   16  O   UNL     1     -13.186  12.311  63.765  1.00  0.00    -0.771 OA 
HETATM   17  O   UNL     1     -10.165  12.737  64.169  1.00  0.00    -0.384 OA 
HETATM   18  C   UNL     1     -12.376  12.525  64.950  1.00  0.00    -0.470 C  
HETATM   19  H   UNL     1     -14.021  12.760  63.833  1.00  0.00     0.000 HD 
HETATM   20  O   UNL     1     -12.803  14.798  64.117  1.00  0.00    -0.678 OA 
HETATM   21  H   UNL     1     -13.715  14.760  64.382  1.00  0.00     0.000 HD 
BRANCH  14  22
HETATM   22  C   UNL     1      -9.664  14.566  65.742  1.00  0.00    -0.274 C  
BRANCH  22  23
HETATM   23  O   UNL     1     -10.336  15.570  66.494  1.00  0.00    -0.272 OA 
HETATM   24  P   UNL     1      -9.692  17.150  66.205  1.00  0.00    -0.149 P  
HETATM   25  O   UNL     1      -9.116  18.563  65.946  1.00  0.00    -0.477 OA 
HETATM   26  O   UNL     1     -10.736  17.200  64.952  1.00  0.00    -0.737 OA 
HETATM   27  O   UNL     1     -10.710  17.644  67.385  1.00  0.00    -0.340 OA 
ENDBRANCH  22  23
ENDBRANCH  14  22
ENDBRANCH   8  13
TORSDOF 3
ENDMDL
MODEL       12
REMARK 921   NORMALIZED FREE ENERGY PREDICTED BY IDOCK:   -7.14 KCAL/MOL
REMARK 922        TOTAL FREE ENERGY PREDICTED BY IDOCK:   -8.86 KCAL/MOL
REMARK 923 INTER-LIGAND FREE ENERGY PREDICTED BY IDOCK:   -8.47 KCAL/MOL
REMARK 924 INTRA-LIGAND FREE ENERGY PREDICTED BY IDOCK:   -0.38 KCAL/MOL
REMARK 927      BINDING AFFINITY PREDICTED BY RF-SCORE:    0.00 PKD
ROOT
HETATM    1  N   UNL     1     -12.005  11.545  63.199  1.00  0.00    -0.917 NA 
HETATM    2  C   UNL     1     -11.756  12.743  63.852  1.00  0.00    -0.459 A  
HETATM    3  H1  UNL     1     -12.663  11.461  62.425  1.00  0.00     0.000 HD 
HETATM    4  H2  UNL     1     -12.277  10.863  63.907  1.00  0.00     0.000 HD 
HETATM    5  C   UNL     1     -10.850  12.859  64.918  1.00  0.00    -0.308 A  
HETATM    6  N   UNL     1     -10.054  11.936  65.554  1.00  0.00    -0.239 NA 
HETATM    7  C   UNL     1      -9.459  12.613  66.516  1.00  0.00    -0.247 A  
HETATM    8  N   UNL     1      -9.808  13.943  66.501  1.00  0.00    -0.282 NA 
HETATM    9  N   UNL     1     -12.440  13.843  63.464  1.00  0.00    -0.812 NA 
HETATM   10  C   UNL     1     -10.714  14.116  65.492  1.00  0.00    -0.324 A  
HETATM   11  N   UNL     1     -11.370  15.236  65.143  1.00  0.00    -0.346 NA 
HETATM   12  C   UNL     1     -12.201  15.005  64.104  1.00  0.00    -0.211 A  
ENDROOT
BRANCH   8  13
HETATM   13  C   UNL     1      -9.266  14.919  67.423  1.00  0.00    -0.194 C  
HETATM   14  C   UNL     1     -10.739  15.083  69.231  1.00  0.00    -0.248 C  
HETATM   15  C   UNL     1     -10.883  16.397  68.460  1.00  0.00    -0.339 C  
HETATM   16  O   UNL     1      -8.718  17.282  67.871  1.00  0.00    -0.223 OA 
HETATM   17  O   UNL     1      -9.529  14.449  68.758  1.00  0.00    -0.205 OA 
HETATM   18  C   UNL     1      -9.758  16.374  67.423  1.00  0.00    -0.238 C  
HETATM   19  H   UNL     1      -9.022  18.182  67.871  1.00  0.00     0.000 HD 
HETATM   20  O   UNL     1     -10.763  17.503  69.363  1.00  0.00    -0.383 OA 
HETATM   21  H   UNL     1     -10.853  18.319  68.884  1.00  0.00     0.000 HD 
BRANCH  14  22
HETATM   22  C   UNL     1     -11.967  14.191  69.004  1.00  0.00    -0.340 C  
BRANCH  22  23
HETATM   23  O   UNL     1     -12.547  13.796  70.242  1.00  0.00    -0.301 OA 
HETATM   24  P   UNL     1     -12.393  15.017  71.459  1.00  0.00    -0.405 P  
HETATM   25  O   UNL     1     -12.256  16.108  72.548  1.00  0.00    -0.471 OA 
HETATM   26  O   UNL     1     -13.782  15.615  70.845  1.00  0.00    -0.549 OA 
HETATM   27  O   UNL     1     -13.038  13.909  72.474  1.00  0.00    -0.433 OA 
ENDBRANCH  22  23
ENDBRANCH  14  22
ENDBRANCH   8  13
TORSDOF 3
ENDMDL
MODEL       13
REMARK 921   NORMALIZED FREE ENERGY PREDICTED BY IDOCK:   -7.13 KCAL/MOL
REMARK 922        TOTAL FREE ENERGY PREDICTED BY IDOCK:   -8.86 KCAL/MOL
REMARK 923 INTER-LIGAND FREE ENERGY PREDICTED BY IDOCK:   -8.76 KCAL/MOL
REMARK 924 INTRA-LIGAND FREE ENERGY PREDICTED BY IDOCK:   -0.09 KCAL/MOL
REMARK 927      BINDING AFFINITY PREDICTED BY RF-SCORE:    0.00 PKD
ROOT
HETATM    1  N   UNL     1     -11.223  10.875  70.456  1.00  0.00    -0.436 NA 
HETATM    2  C   UNL     1     -11.496  11.847  69.506  1.00  0.00    -0.288 A  
HETATM    3  H1  UNL     1     -11.424  10.996  71.449  1.00  0.00     0.000 HD 
HETATM    4  H2  UNL     1     -10.236  10.634  70.372  1.00  0.00     0.000 HD 
HETATM    5  C   UNL     1     -11.220  11.680  68.139  1.00  0.00    -0.263 A  
HETATM    6  N   UNL     1     -10.659  10.641  67.435  1.00  0.00    -0.238 NA 
HETATM    7  C   UNL     1     -10.602  11.072  66.191  1.00  0.00    -0.228 A  
HETATM    8  N   UNL     1     -11.140  12.331  66.058  1.00  0.00    -0.296 NA 
HETATM    9  N   UNL     1     -12.024  13.021  69.918  1.00  0.00    -0.330 NA 
HETATM   10  C   UNL     1     -11.526  12.744  67.302  1.00  0.00    -0.337 A  
HETATM   11  N   UNL     1     -12.050  13.927  67.664  1.00  0.00    -0.359 NA 
HETATM   12  C   UNL     1     -12.283  13.967  68.993  1.00  0.00    -0.245 A  
ENDROOT
BRANCH   8  13
HETATM   13  C   UNL     1     -11.242  13.024  64.791  1.00  0.00    -0.317 C  
HETATM   14  C   UNL     1      -9.827  14.882  64.880  1.00  0.00     0.113 C  
HETATM   15  C   UNL     1     -11.250  15.445  64.913  1.00  0.00    -0.403 C  
HETATM   16  O   UNL     1     -12.631  14.366  63.256  1.00  0.00    -1.043 OA 
HETATM   17  O   UNL     1      -9.928  13.506  64.451  1.00  0.00    -0.264 OA 
HETATM   18  C   UNL     1     -12.157  14.247  64.622  1.00  0.00    -0.463 C  
HETATM   19  H   UNL     1     -13.197  15.122  63.152  1.00  0.00     0.000 HD 
HETATM   20  O   UNL     1     -11.385  16.476  63.928  1.00  0.00    -1.557 OA 
HETATM   21  H   UNL     1     -12.268  16.825  63.948  1.00  0.00     0.000 HD 
BRANCH  14  22
HETATM   22  C   UNL     1      -9.175  14.993  66.265  1.00  0.00    -0.289 C  
BRANCH  22  23
HETATM   23  O   UNL     1      -9.769  16.037  67.027  1.00  0.00    -0.223 OA 
HETATM   24  P   UNL     1      -8.685  17.360  67.288  1.00  0.00    -0.233 P  
HETATM   25  O   UNL     1      -7.715  18.543  67.523  1.00  0.00    -0.226 OA 
HETATM   26  O   UNL     1      -9.228  17.914  65.853  1.00  0.00    -0.519 OA 
HETATM   27  O   UNL     1      -9.862  17.973  68.243  1.00  0.00    -0.317 OA 
ENDBRANCH  22  23
ENDBRANCH  14  22
ENDBRANCH   8  13
TORSDOF 3
ENDMDL
MODEL       14
REMARK 921   NORMALIZED FREE ENERGY PREDICTED BY IDOCK:   -7.11 KCAL/MOL
REMARK 922        TOTAL FREE ENERGY PREDICTED BY IDOCK:   -8.83 KCAL/MOL
REMARK 923 INTER-LIGAND FREE ENERGY PREDICTED BY IDOCK:   -8.09 KCAL/MOL
REMARK 924 INTRA-LIGAND FREE ENERGY PREDICTED BY IDOCK:   -0.74 KCAL/MOL
REMARK 927      BINDING AFFINITY PREDICTED BY RF-SCORE:    0.00 PKD
ROOT
HETATM    1  N   UNL     1      -6.248  18.977  64.556  1.00  0.00    -0.480 NA 
HETATM    2  C   UNL     1      -6.449  18.139  65.642  1.00  0.00    -0.252 A  
HETATM    3  H1  UNL     1      -5.338  19.108  64.116  1.00  0.00     0.000 HD 
HETATM    4  H2  UNL     1      -6.598  19.900  64.814  1.00  0.00     0.000 HD 
HETATM    5  C   UNL     1      -7.702  17.958  66.248  1.00  0.00    -0.266 A  
HETATM    6  N   UNL     1      -8.938  18.499  65.985  1.00  0.00    -0.484 NA 
HETATM    7  C   UNL     1      -9.727  18.001  66.915  1.00  0.00    -0.314 A  
HETATM    8  N   UNL     1      -9.059  17.130  67.744  1.00  0.00    -0.231 NA 
HETATM    9  N   UNL     1      -5.382  17.489  66.160  1.00  0.00    -0.210 NA 
HETATM   10  C   UNL     1      -7.753  17.104  67.341  1.00  0.00    -0.171 A  
HETATM   11  N   UNL     1      -6.724  16.437  67.891  1.00  0.00    -0.128 NA 
HETATM   12  C   UNL     1      -5.578  16.679  67.219  1.00  0.00    -0.152 A  
ENDROOT
BRANCH   8  13
HETATM   13  C   UNL     1      -9.699  16.411  68.825  1.00  0.00    -0.250 C  
HETATM   14  C   UNL     1     -10.499  14.392  67.959  1.00  0.00    -0.237 C  
HETATM   15  C   UNL     1     -11.741  15.240  68.245  1.00  0.00    -0.301 C  
HETATM   16  O   UNL     1     -11.581  16.281  70.415  1.00  0.00    -0.438 OA 
HETATM   17  O   UNL     1      -9.396  15.013  68.656  1.00  0.00    -0.188 OA 
HETATM   18  C   UNL     1     -11.223  16.454  69.019  1.00  0.00    -0.291 C  
HETATM   19  H   UNL     1     -12.524  16.307  70.535  1.00  0.00     0.000 HD 
HETATM   20  O   UNL     1     -12.683  14.476  69.006  1.00  0.00    -0.501 OA 
HETATM   21  H   UNL     1     -13.454  15.002  69.183  1.00  0.00     0.000 HD 
BRANCH  14  22
HETATM   22  C   UNL     1     -10.238  14.316  66.448  1.00  0.00    -0.291 C  
BRANCH  22  23
HETATM   23  O   UNL     1     -11.083  15.214  65.739  1.00  0.00    -0.342 OA 
HETATM   24  P   UNL     1     -11.799  14.481  64.344  1.00  0.00    -0.299 P  
HETATM   25  O   UNL     1     -12.438  13.827  63.096  1.00  0.00    -0.786 OA 
HETATM   26  O   UNL     1     -12.964  13.981  65.370  1.00  0.00    -0.726 OA 
HETATM   27  O   UNL     1     -12.389  15.971  64.019  1.00  0.00    -0.752 OA 
ENDBRANCH  22  23
ENDBRANCH  14  22
ENDBRANCH   8  13
TORSDOF 3
ENDMDL
MODEL       15
REMARK 921   NORMALIZED FREE ENERGY PREDICTED BY IDOCK:   -7.03 KCAL/MOL
REMARK 922        TOTAL FREE ENERGY PREDICTED BY IDOCK:   -8.73 KCAL/MOL
REMARK 923 INTER-LIGAND FREE ENERGY PREDICTED BY IDOCK:   -8.25 KCAL/MOL
REMARK 924 INTRA-LIGAND FREE ENERGY PREDICTED BY IDOCK:   -0.48 KCAL/MOL
REMARK 927      BINDING AFFINITY PREDICTED BY RF-SCORE:    0.00 PKD
ROOT
HETATM    1  N   UNL     1     -11.046  10.377  70.656  1.00  0.00    -0.406 NA 
HETATM    2  C   UNL     1     -10.769  10.449  69.298  1.00  0.00    -0.237 A  
HETATM    3  H1  UNL     1     -10.721   9.614  71.249  1.00  0.00     0.000 HD 
HETATM    4  H2  UNL     1     -12.058  10.439  70.765  1.00  0.00     0.000 HD 
HETATM    5  C   UNL     1     -11.217  11.499  68.481  1.00  0.00    -0.258 A  
HETATM    6  N   UNL     1     -11.973  12.615  68.749  1.00  0.00    -0.289 NA 
HETATM    7  C   UNL     1     -12.119  13.210  67.582  1.00  0.00    -0.232 A  
HETATM    8  N   UNL     1     -11.454  12.543  66.579  1.00  0.00    -0.341 NA 
HETATM    9  N   UNL     1     -10.063   9.446  68.731  1.00  0.00    -0.186 NA 
HETATM   10  C   UNL     1     -10.883  11.433  67.135  1.00  0.00    -0.268 A  
HETATM   11  N   UNL     1     -10.185  10.459  66.526  1.00  0.00    -0.226 NA 
HETATM   12  C   UNL     1      -9.800   9.514  67.411  1.00  0.00    -0.170 A  
ENDROOT
BRANCH   8  13
HETATM   13  C   UNL     1     -11.414  13.004  65.207  1.00  0.00    -0.309 C  
HETATM   14  C   UNL     1     -10.071  14.916  65.138  1.00  0.00    -0.319 C  
HETATM   15  C   UNL     1     -11.501  15.407  64.902  1.00  0.00    -0.311 C  
HETATM   16  O   UNL     1     -12.635  13.997  63.307  1.00  0.00    -1.073 OA 
HETATM   17  O   UNL     1     -10.082  13.483  64.947  1.00  0.00    -0.327 OA 
HETATM   18  C   UNL     1     -12.332  14.135  64.720  1.00  0.00    -0.417 C  
HETATM   19  H   UNL     1     -13.202  14.697  63.005  1.00  0.00     0.000 HD 
HETATM   20  O   UNL     1     -11.538  16.247  63.743  1.00  0.00    -1.539 OA 
HETATM   21  H   UNL     1     -12.426  16.553  63.596  1.00  0.00     0.000 HD 
BRANCH  14  22
HETATM   22  C   UNL     1      -9.601  15.291  66.550  1.00  0.00    -0.271 C  
BRANCH  22  23
HETATM   23  O   UNL     1      -8.182  15.369  66.611  1.00  0.00    -0.248 OA 
HETATM   24  P   UNL     1      -7.636  16.735  67.523  1.00  0.00    -0.176 P  
HETATM   25  O   UNL     1      -7.148  17.957  68.337  1.00  0.00    -0.226 OA 
HETATM   26  O   UNL     1      -7.774  15.756  68.820  1.00  0.00    -0.153 OA 
HETATM   27  O   UNL     1      -6.135  16.294  67.048  1.00  0.00    -0.275 OA 
ENDBRANCH  22  23
ENDBRANCH  14  22
ENDBRANCH   8  13
TORSDOF 3
ENDMDL
MODEL       16
REMARK 921   NORMALIZED FREE ENERGY PREDICTED BY IDOCK:   -7.01 KCAL/MOL
REMARK 922        TOTAL FREE ENERGY PREDICTED BY IDOCK:   -8.71 KCAL/MOL
REMARK 923 INTER-LIGAND FREE ENERGY PREDICTED BY IDOCK:   -8.78 KCAL/MOL
REMARK 924 INTRA-LIGAND FREE ENERGY PREDICTED BY IDOCK:    0.08 KCAL/MOL
REMARK 927      BINDING AFFINITY PREDICTED BY RF-SCORE:    0.00 PKD
ROOT
HETATM    1  N   UNL     1     -14.077  12.374  72.669  1.00  0.00    -0.365 NA 
HETATM    2  C   UNL     1     -13.443  13.555  72.314  1.00  0.00    -0.571 A  
HETATM    3  H1  UNL     1     -14.687  12.294  73.482  1.00  0.00     0.000 HD 
HETATM    4  H2  UNL     1     -13.358  11.655  72.755  1.00  0.00     0.000 HD 
HETATM    5  C   UNL     1     -12.603  13.666  71.195  1.00  0.00    -0.371 A  
HETATM    6  N   UNL     1     -12.203  12.751  70.250  1.00  0.00    -0.317 NA 
HETATM    7  C   UNL     1     -11.369  13.413  69.473  1.00  0.00    -0.183 A  
HETATM    8  N   UNL     1     -11.246  14.728  69.856  1.00  0.00    -0.262 NA 
HETATM    9  N   UNL     1     -13.618  14.642  73.099  1.00  0.00    -0.521 NA 
HETATM   10  C   UNL     1     -12.017  14.905  70.970  1.00  0.00    -0.320 A  
HETATM   11  N   UNL     1     -12.160  16.011  71.720  1.00  0.00    -0.484 NA 
HETATM   12  C   UNL     1     -12.996  15.787  72.756  1.00  0.00    -0.490 A  
ENDROOT
BRANCH   8  13
HETATM   13  C   UNL     1     -10.425  15.689  69.149  1.00  0.00    -0.236 C  
HETATM   14  C   UNL     1     -10.964  15.549  66.878  1.00  0.00    -0.268 C  
HETATM   15  C   UNL     1      -9.558  14.957  67.006  1.00  0.00    -0.238 C  
HETATM   16  O   UNL     1      -8.169  16.352  68.400  1.00  0.00    -0.174 OA 
HETATM   17  O   UNL     1     -11.232  16.265  68.104  1.00  0.00    -0.350 OA 
HETATM   18  C   UNL     1      -9.128  15.263  68.443  1.00  0.00    -0.189 C  
HETATM   19  H   UNL     1      -7.367  16.088  67.964  1.00  0.00     0.000 HD 
HETATM   20  O   UNL     1      -8.689  15.561  66.042  1.00  0.00    -0.405 OA 
HETATM   21  H   UNL     1      -7.816  15.193  66.121  1.00  0.00     0.000 HD 
BRANCH  14  22
HETATM   22  C   UNL     1     -11.994  14.436  66.640  1.00  0.00    -0.392 C  
BRANCH  22  23
HETATM   23  O   UNL     1     -12.550  14.527  65.333  1.00  0.00    -0.350 OA 
HETATM   24  P   UNL     1     -11.817  13.417  64.227  1.00  0.00    -0.441 P  
HETATM   25  O   UNL     1     -11.162  12.424  63.237  1.00  0.00    -0.441 OA 
HETATM   26  O   UNL     1     -12.926  12.351  64.771  1.00  0.00    -0.786 OA 
HETATM   27  O   UNL     1     -12.729  14.148  63.084  1.00  0.00    -0.627 OA 
ENDBRANCH  22  23
ENDBRANCH  14  22
ENDBRANCH   8  13
TORSDOF 3
ENDMDL
MODEL       17
REMARK 921   NORMALIZED FREE ENERGY PREDICTED BY IDOCK:   -6.96 KCAL/MOL
REMARK 922        TOTAL FREE ENERGY PREDICTED BY IDOCK:   -8.65 KCAL/MOL
REMARK 923 INTER-LIGAND FREE ENERGY PREDICTED BY IDOCK:   -7.98 KCAL/MOL
REMARK 924 INTRA-LIGAND FREE ENERGY PREDICTED BY IDOCK:   -0.67 KCAL/MOL
REMARK 927      BINDING AFFINITY PREDICTED BY RF-SCORE:    0.00 PKD
ROOT
HETATM    1  N   UNL     1      -8.990   9.873  70.464  1.00  0.00    -0.347 NA 
HETATM    2  C   UNL     1      -8.963  10.012  69.084  1.00  0.00    -0.169 A  
HETATM    3  H1  UNL     1      -8.279   9.359  70.984  1.00  0.00     0.000 HD 
HETATM    4  H2  UNL     1      -9.896   9.476  70.713  1.00  0.00     0.000 HD 
HETATM    5  C   UNL     1      -9.942  10.719  68.367  1.00  0.00    -0.164 A  
HETATM    6  N   UNL     1     -11.075  11.384  68.769  1.00  0.00    -0.215 NA 
HETATM    7  C   UNL     1     -11.630  11.807  67.651  1.00  0.00    -0.294 A  
HETATM    8  N   UNL     1     -10.880  11.475  66.547  1.00  0.00    -0.278 NA 
HETATM    9  N   UNL     1      -7.965   9.414  68.395  1.00  0.00    -0.094 NA 
HETATM   10  C   UNL     1      -9.801  10.760  66.987  1.00  0.00    -0.187 A  
HETATM   11  N   UNL     1      -8.829  10.183  66.259  1.00  0.00    -0.146 NA 
HETATM   12  C   UNL     1      -7.944   9.545  67.054  1.00  0.00    -0.109 A  
ENDROOT
BRANCH   8  13
HETATM   13  C   UNL     1     -11.239  11.854  65.197  1.00  0.00    -0.289 C  
HETATM   14  C   UNL     1     -10.430  14.015  64.827  1.00  0.00    -0.421 C  
HETATM   15  C   UNL     1     -11.952  14.152  64.905  1.00  0.00    -0.417 C  
HETATM   16  O   UNL     1     -13.031  12.433  63.602  1.00  0.00    -0.758 OA 
HETATM   17  O   UNL     1     -10.142  12.610  64.651  1.00  0.00    -0.291 OA 
HETATM   18  C   UNL     1     -12.479  12.716  64.915  1.00  0.00    -0.494 C  
HETATM   19  H   UNL     1     -13.798  12.966  63.428  1.00  0.00     0.000 HD 
HETATM   20  O   UNL     1     -12.429  14.895  63.777  1.00  0.00    -1.048 OA 
HETATM   21  H   UNL     1     -13.374  14.980  63.825  1.00  0.00     0.000 HD 
BRANCH  14  22
HETATM   22  C   UNL     1      -9.776  14.568  66.101  1.00  0.00    -0.316 C  
BRANCH  22  23
HETATM   23  O   UNL     1     -10.547  15.630  66.650  1.00  0.00    -0.301 OA 
HETATM   24  P   UNL     1      -9.794  17.172  66.429  1.00  0.00    -0.286 P  
HETATM   25  O   UNL     1      -9.121  18.552  66.231  1.00  0.00    -0.393 OA 
HETATM   26  O   UNL     1     -10.555  17.186  64.986  1.00  0.00    -0.704 OA 
HETATM   27  O   UNL     1     -11.013  17.759  67.348  1.00  0.00    -0.261 OA 
ENDBRANCH  22  23
ENDBRANCH  14  22
ENDBRANCH   8  13
TORSDOF 3
ENDMDL
MODEL       18
REMARK 921   NORMALIZED FREE ENERGY PREDICTED BY IDOCK:   -6.96 KCAL/MOL
REMARK 922        TOTAL FREE ENERGY PREDICTED BY IDOCK:   -8.65 KCAL/MOL
REMARK 923 INTER-LIGAND FREE ENERGY PREDICTED BY IDOCK:   -8.12 KCAL/MOL
REMARK 924 INTRA-LIGAND FREE ENERGY PREDICTED BY IDOCK:   -0.53 KCAL/MOL
REMARK 927      BINDING AFFINITY PREDICTED BY RF-SCORE:    0.00 PKD
ROOT
HETATM    1  N   UNL     1     -10.191  17.620  68.943  1.00  0.00    -0.371 NA 
HETATM    2  C   UNL     1     -10.817  16.412  68.677  1.00  0.00    -0.331 A  
HETATM    3  H1  UNL     1     -10.067  17.986  69.887  1.00  0.00     0.000 HD 
HETATM    4  H2  UNL     1     -10.669  18.338  68.398  1.00  0.00     0.000 HD 
HETATM    5  C   UNL     1     -10.988  15.908  67.378  1.00  0.00    -0.257 A  
HETATM    6  N   UNL     1     -10.640  16.407  66.145  1.00  0.00    -0.291 NA 
HETATM    7  C   UNL     1     -11.103  15.523  65.283  1.00  0.00    -0.338 A  
HETATM    8  N   UNL     1     -11.700  14.456  65.912  1.00  0.00    -0.367 NA 
HETATM    9  N   UNL     1     -11.312  15.700  69.715  1.00  0.00    -0.298 NA 
HETATM   10  C   UNL     1     -11.650  14.694  67.257  1.00  0.00    -0.387 A  
HETATM   11  N   UNL     1     -12.159  13.953  68.256  1.00  0.00    -0.346 NA 
HETATM   12  C   UNL     1     -11.925  14.529  69.454  1.00  0.00    -0.322 A  
ENDROOT
BRANCH   8  13
HETATM   13  C   UNL     1     -12.255  13.323  65.203  1.00  0.00    -0.443 C  
HETATM   14  C   UNL     1     -10.743  11.551  65.400  1.00  0.00    -0.278 C  
HETATM   15  C   UNL     1     -10.670  11.995  63.937  1.00  0.00    -0.397 C  
HETATM   16  O   UNL     1     -12.882  12.325  63.035  1.00  0.00    -0.716 OA 
HETATM   17  O   UNL     1     -11.939  12.138  65.959  1.00  0.00    -0.578 OA 
HETATM   18  C   UNL     1     -11.820  12.990  63.767  1.00  0.00    -0.502 C  
HETATM   19  H   UNL     1     -12.613  12.120  62.147  1.00  0.00     0.000 HD 
HETATM   20  O   UNL     1     -10.809  10.857  63.079  1.00  0.00    -0.757 OA 
HETATM   21  H   UNL     1     -10.763  11.133  62.170  1.00  0.00     0.000 HD 
BRANCH  14  22
HETATM   22  C   UNL     1      -9.487  12.000  66.160  1.00  0.00    -0.232 C  
BRANCH  22  23
HETATM   23  O   UNL     1      -9.264  11.184  67.303  1.00  0.00    -0.159 OA 
HETATM   24  P   UNL     1      -9.795   9.554  67.063  1.00  0.00    -0.221 P  
HETATM   25  O   UNL     1     -10.271   8.098  66.848  1.00  0.00    -0.266 OA 
HETATM   26  O   UNL     1      -8.313   9.306  66.428  1.00  0.00    -0.116 OA 
HETATM   27  O   UNL     1      -9.422   9.332  68.639  1.00  0.00    -0.145 OA 
ENDBRANCH  22  23
ENDBRANCH  14  22
ENDBRANCH   8  13
TORSDOF 3
ENDMDL
MODEL       19
REMARK 921   NORMALIZED FREE ENERGY PREDICTED BY IDOCK:   -6.94 KCAL/MOL
REMARK 922        TOTAL FREE ENERGY PREDICTED BY IDOCK:   -8.63 KCAL/MOL
REMARK 923 INTER-LIGAND FREE ENERGY PREDICTED BY IDOCK:   -8.03 KCAL/MOL
REMARK 924 INTRA-LIGAND FREE ENERGY PREDICTED BY IDOCK:   -0.60 KCAL/MOL
REMARK 927      BINDING AFFINITY PREDICTED BY RF-SCORE:    0.00 PKD
ROOT
HETATM    1  N   UNL     1     -11.664  16.305  63.746  1.00  0.00    -1.488 NA 
HETATM    2  C   UNL     1     -11.898  15.087  64.367  1.00  0.00    -0.339 A  
HETATM    3  H1  UNL     1     -11.912  16.490  62.775  1.00  0.00     0.000 HD 
HETATM    4  H2  UNL     1     -10.672  16.517  63.854  1.00  0.00     0.000 HD 
HETATM    5  C   UNL     1     -11.557  14.832  65.705  1.00  0.00    -0.290 A  
HETATM    6  N   UNL     1     -10.958  15.611  66.666  1.00  0.00    -0.264 NA 
HETATM    7  C   UNL     1     -10.846  14.822  67.715  1.00  0.00    -0.278 A  
HETATM    8  N   UNL     1     -11.384  13.578  67.483  1.00  0.00    -0.294 NA 
HETATM    9  N   UNL     1     -12.452  14.090  63.641  1.00  0.00    -0.809 NA 
HETATM   10  C   UNL     1     -11.830  13.561  66.191  1.00  0.00    -0.389 A  
HETATM   11  N   UNL     1     -12.378  12.539  65.510  1.00  0.00    -0.642 NA 
HETATM   12  C   UNL     1     -12.672  12.905  64.244  1.00  0.00    -0.205 A  
ENDROOT
BRANCH   8  13
HETATM   13  C   UNL     1     -11.431  12.531  68.482  1.00  0.00    -0.305 C  
HETATM   14  C   UNL     1      -9.607  11.116  68.115  1.00  0.00    -0.179 C  
HETATM   15  C   UNL     1     -10.843  10.311  67.707  1.00  0.00    -0.292 C  
HETATM   16  O   UNL     1     -12.589  10.536  69.356  1.00  0.00    -0.701 OA 
HETATM   17  O   UNL     1     -10.077  12.248  68.880  1.00  0.00    -0.123 OA 
HETATM   18  C   UNL     1     -12.035  11.154  68.166  1.00  0.00    -0.056 C  
HETATM   19  H   UNL     1     -12.963   9.684  69.160  1.00  0.00     0.000 HD 
HETATM   20  O   UNL     1     -10.815   9.027  68.341  1.00  0.00    -0.415 OA 
HETATM   21  H   UNL     1     -11.582   8.527  68.088  1.00  0.00     0.000 HD 
BRANCH  14  22
HETATM   22  C   UNL     1      -8.824  11.562  66.872  1.00  0.00    -0.182 C  
BRANCH  22  23
HETATM   23  O   UNL     1      -9.286  10.885  65.709  1.00  0.00    -0.186 OA 
HETATM   24  P   UNL     1      -8.006  10.083  64.864  1.00  0.00    -0.142 P  
HETATM   25  O   UNL     1      -6.862   9.366  64.107  1.00  0.00    -0.090 OA 
HETATM   26  O   UNL     1      -8.303   8.835  65.872  1.00  0.00    -0.114 OA 
HETATM   27  O   UNL     1      -9.135   9.748  63.729  1.00  0.00    -0.243 OA 
ENDBRANCH  22  23
ENDBRANCH  14  22
ENDBRANCH   8  13
TORSDOF 3
ENDMDL
MODEL       20
REMARK 921   NORMALIZED FREE ENERGY PREDICTED BY IDOCK:   -6.92 KCAL/MOL
REMARK 922        TOTAL FREE ENERGY PREDICTED BY IDOCK:   -8.60 KCAL/MOL
REMARK 923 INTER-LIGAND FREE ENERGY PREDICTED BY IDOCK:   -8.11 KCAL/MOL
REMARK 924 INTRA-LIGAND FREE ENERGY PREDICTED BY IDOCK:   -0.49 KCAL/MOL
REMARK 927      BINDING AFFINITY PREDICTED BY RF-SCORE:    0.00 PKD
ROOT
HETATM    1  N   UNL     1     -10.409  19.508  69.335  1.00  0.00    -0.526 NA 
HETATM    2  C   UNL     1      -9.860  18.401  68.704  1.00  0.00    -0.376 A  
HETATM    3  H1  UNL     1     -10.129  20.465  69.121  1.00  0.00     0.000 HD 
HETATM    4  H2  UNL     1     -10.296  19.374  70.340  1.00  0.00     0.000 HD 
HETATM    5  C   UNL     1     -10.245  17.084  68.999  1.00  0.00    -0.313 A  
HETATM    6  N   UNL     1     -11.154  16.569  69.892  1.00  0.00    -0.312 NA 
HETATM    7  C   UNL     1     -11.048  15.262  69.763  1.00  0.00    -0.282 A  
HETATM    8  N   UNL     1     -10.135  14.913  68.794  1.00  0.00    -0.234 NA 
HETATM    9  N   UNL     1      -8.888  18.599  67.786  1.00  0.00    -0.272 NA 
HETATM   10  C   UNL     1      -9.597  16.070  68.305  1.00  0.00    -0.210 A  
HETATM   11  N   UNL     1      -8.628  16.217  67.386  1.00  0.00    -0.176 NA 
HETATM   12  C   UNL     1      -8.351  17.522  67.179  1.00  0.00    -0.216 A  
ENDROOT
BRANCH   8  13
HETATM   13  C   UNL     1      -9.856  13.543  68.420  1.00  0.00    -0.225 C  
HETATM   14  C   UNL     1     -11.427  12.912  66.808  1.00  0.00    -0.340 C  
HETATM   15  C   UNL     1     -11.795  12.131  68.072  1.00  0.00    -0.285 C  
HETATM   16  O   UNL     1      -9.828  11.166  69.082  1.00  0.00    -0.363 OA 
HETATM   17  O   UNL     1     -10.089  13.422  67.004  1.00  0.00    -0.241 OA 
HETATM   18  C   UNL     1     -10.635  12.373  69.040  1.00  0.00    -0.049 C  
HETATM   19  H   UNL     1     -10.310  10.443  69.465  1.00  0.00     0.000 HD 
HETATM   20  O   UNL     1     -11.953  10.743  67.754  1.00  0.00    -0.692 OA 
HETATM   21  H   UNL     1     -12.182  10.259  68.539  1.00  0.00     0.000 HD 
BRANCH  14  22
HETATM   22  C   UNL     1     -12.432  14.046  66.567  1.00  0.00    -0.311 C  
BRANCH  22  23
HETATM   23  O   UNL     1     -12.697  14.206  65.178  1.00  0.00    -0.616 OA 
HETATM   24  P   UNL     1     -12.096  12.884  64.237  1.00  0.00    -0.453 P  
HETATM   25  O   UNL     1     -11.558  11.701  63.396  1.00  0.00    -0.395 OA 
HETATM   26  O   UNL     1     -13.527  12.174  64.567  1.00  0.00    -0.614 OA 
HETATM   27  O   UNL     1     -12.558  13.762  62.938  1.00  0.00    -0.611 OA 
ENDBRANCH  22  23
ENDBRANCH  14  22
ENDBRANCH   8  13
TORSDOF 3
ENDMDL
MODEL       21
REMARK 921   NORMALIZED FREE ENERGY PREDICTED BY IDOCK:   -6.86 KCAL/MOL
REMARK 922        TOTAL FREE ENERGY PREDICTED BY IDOCK:   -8.54 KCAL/MOL
REMARK 923 INTER-LIGAND FREE ENERGY PREDICTED BY IDOCK:   -7.92 KCAL/MOL
REMARK 924 INTRA-LIGAND FREE ENERGY PREDICTED BY IDOCK:   -0.62 KCAL/MOL
REMARK 927      BINDING AFFINITY PREDICTED BY RF-SCORE:    0.00 PKD
ROOT
HETATM    1  N   UNL     1      -7.180  19.394  67.793  1.00  0.00    -0.246 NA 
HETATM    2  C   UNL     1      -8.319  19.000  67.107  1.00  0.00    -0.278 A  
HETATM    3  H1  UNL     1      -6.984  20.366  68.033  1.00  0.00     0.000 HD 
HETATM    4  H2  UNL     1      -6.374  19.039  67.278  1.00  0.00     0.000 HD 
HETATM    5  C   UNL     1      -8.588  17.663  66.777  1.00  0.00    -0.255 A  
HETATM    6  N   UNL     1      -7.888  16.501  66.999  1.00  0.00    -0.184 NA 
HETATM    7  C   UNL     1      -8.604  15.561  66.417  1.00  0.00    -0.257 A  
HETATM    8  N   UNL     1      -9.759  16.063  65.864  1.00  0.00    -0.332 NA 
HETATM    9  N   UNL     1      -9.194  19.952  66.711  1.00  0.00    -0.357 NA 
HETATM   10  C   UNL     1      -9.757  17.414  66.070  1.00  0.00    -0.152 A  
HETATM   11  N   UNL     1     -10.655  18.323  65.655  1.00  0.00    -0.590 NA 
HETATM   12  C   UNL     1     -10.297  19.567  66.039  1.00  0.00    -0.511 A  
ENDROOT
BRANCH   8  13
HETATM   13  C   UNL     1     -10.748  15.240  65.200  1.00  0.00    -0.436 C  
HETATM   14  C   UNL     1     -12.032  14.200  66.854  1.00  0.00    -0.449 C  
HETATM   15  C   UNL     1     -11.186  13.089  66.229  1.00  0.00    -0.301 C  
HETATM   16  O   UNL     1     -11.214  13.247  63.822  1.00  0.00    -0.555 OA 
HETATM   17  O   UNL     1     -11.969  15.331  65.957  1.00  0.00     0.074 OA 
HETATM   18  C   UNL     1     -10.528  13.731  65.006  1.00  0.00    -0.402 C  
HETATM   19  H   UNL     1     -11.078  12.314  63.702  1.00  0.00     0.000 HD 
HETATM   20  O   UNL     1     -12.025  11.984  65.872  1.00  0.00    -0.540 OA 
HETATM   21  H   UNL     1     -11.500  11.294  65.484  1.00  0.00     0.000 HD 
BRANCH  14  22
HETATM   22  C   UNL     1     -11.501  14.558  68.248  1.00  0.00    -0.311 C  
BRANCH  22  23
HETATM   23  O   UNL     1     -12.278  13.936  69.265  1.00  0.00    -0.346 OA 
HETATM   24  P   UNL     1     -11.938  14.575  70.837  1.00  0.00    -0.291 P  
HETATM   25  O   UNL     1     -11.634  15.146  72.243  1.00  0.00    -0.414 OA 
HETATM   26  O   UNL     1     -13.064  15.698  70.476  1.00  0.00    -0.436 OA 
HETATM   27  O   UNL     1     -12.936  13.404  71.391  1.00  0.00    -0.352 OA 
ENDBRANCH  22  23
ENDBRANCH  14  22
ENDBRANCH   8  13
TORSDOF 3
ENDMDL
MODEL       22
REMARK 921   NORMALIZED FREE ENERGY PREDICTED BY IDOCK:   -6.81 KCAL/MOL
REMARK 922        TOTAL FREE ENERGY PREDICTED BY IDOCK:   -8.48 KCAL/MOL
REMARK 923 INTER-LIGAND FREE ENERGY PREDICTED BY IDOCK:   -7.85 KCAL/MOL
REMARK 924 INTRA-LIGAND FREE ENERGY PREDICTED BY IDOCK:   -0.63 KCAL/MOL
REMARK 927      BINDING AFFINITY PREDICTED BY RF-SCORE:    0.00 PKD
ROOT
HETATM    1  N   UNL     1      -7.488  19.375  69.315  1.00  0.00    -0.304 NA 
HETATM    2  C   UNL     1      -8.564  18.908  68.576  1.00  0.00    -0.348 A  
HETATM    3  H1  UNL     1      -7.374  20.356  69.573  1.00  0.00     0.000 HD 
HETATM    4  H2  UNL     1      -6.637  19.086  68.832  1.00  0.00     0.000 HD 
HETATM    5  C   UNL     1      -8.720  17.558  68.222  1.00  0.00    -0.270 A  
HETATM    6  N   UNL     1      -7.946  16.449  68.462  1.00  0.00    -0.192 NA 
HETATM    7  C   UNL     1      -8.566  15.466  67.840  1.00  0.00    -0.155 A  
HETATM    8  N   UNL     1      -9.729  15.890  67.242  1.00  0.00    -0.222 NA 
HETATM    9  N   UNL     1      -9.489  19.798  68.151  1.00  0.00    -0.354 NA 
HETATM   10  C   UNL     1      -9.836  17.234  67.462  1.00  0.00    -0.275 A  
HETATM   11  N   UNL     1     -10.780  18.081  67.017  1.00  0.00    -0.300 NA 
HETATM   12  C   UNL     1     -10.531  19.342  67.428  1.00  0.00    -0.466 A  
ENDROOT
BRANCH   8  13
HETATM   13  C   UNL     1     -10.625  15.005  66.528  1.00  0.00    -0.305 C  
HETATM   14  C   UNL     1     -11.979  13.938  68.107  1.00  0.00    -0.350 C  
HETATM   15  C   UNL     1     -11.037  12.857  67.574  1.00  0.00    -0.269 C  
HETATM   16  O   UNL     1     -10.892  12.963  65.168  1.00  0.00    -0.284 OA 
HETATM   17  O   UNL     1     -11.903  15.052  67.190  1.00  0.00    -0.288 OA 
HETATM   18  C   UNL     1     -10.320  13.505  66.387  1.00  0.00    -0.289 C  
HETATM   19  H   UNL     1     -10.703  12.036  65.081  1.00  0.00     0.000 HD 
HETATM   20  O   UNL     1     -11.794  11.705  67.183  1.00  0.00    -0.608 OA 
HETATM   21  H   UNL     1     -11.208  11.033  66.852  1.00  0.00     0.000 HD 
BRANCH  14  22
HETATM   22  C   UNL     1     -11.572  14.351  69.528  1.00  0.00    -0.304 C  
BRANCH  22  23
HETATM   23  O   UNL     1     -12.566  15.176  70.124  1.00  0.00    -0.329 OA 
HETATM   24  P   UNL     1     -13.330  14.412  71.476  1.00  0.00    -0.372 P  
HETATM   25  O   UNL     1     -14.014  13.730  72.685  1.00  0.00    -0.710 OA 
HETATM   26  O   UNL     1     -12.100  15.031  72.350  1.00  0.00    -0.345 OA 
HETATM   27  O   UNL     1     -14.317  15.716  71.495  1.00  0.00    -0.507 OA 
ENDBRANCH  22  23
ENDBRANCH  14  22
ENDBRANCH   8  13
TORSDOF 3
ENDMDL
MODEL       23
REMARK 921   NORMALIZED FREE ENERGY PREDICTED BY IDOCK:   -6.72 KCAL/MOL
REMARK 922        TOTAL FREE ENERGY PREDICTED BY IDOCK:   -8.36 KCAL/MOL
REMARK 923 INTER-LIGAND FREE ENERGY PREDICTED BY IDOCK:   -8.03 KCAL/MOL
REMARK 924 INTRA-LIGAND FREE ENERGY PREDICTED BY IDOCK:   -0.33 KCAL/MOL
REMARK 927      BINDING AFFINITY PREDICTED BY RF-SCORE:    0.00 PKD
ROOT
HETATM    1  N   UNL     1     -10.286  20.110  65.852  1.00  0.00    -0.526 NA 
HETATM    2  C   UNL     1      -9.826  18.898  66.346  1.00  0.00    -0.375 A  
HETATM    3  H1  UNL     1      -9.988  21.010  66.225  1.00  0.00     0.000 HD 
HETATM    4  H2  UNL     1     -11.305  20.087  65.888  1.00  0.00     0.000 HD 
HETATM    5  C   UNL     1     -10.237  17.657  65.832  1.00  0.00    -0.232 A  
HETATM    6  N   UNL     1     -11.112  17.322  64.826  1.00  0.00    -0.920 NA 
HETATM    7  C   UNL     1     -11.139  16.005  64.830  1.00  0.00    -0.365 A  
HETATM    8  N   UNL     1     -10.287  15.476  65.771  1.00  0.00    -0.336 NA 
HETATM    9  N   UNL     1      -8.967  18.911  67.389  1.00  0.00    -0.275 NA 
HETATM   10  C   UNL     1      -9.712  16.523  66.436  1.00  0.00    -0.285 A  
HETATM   11  N   UNL     1      -8.857  16.486  67.472  1.00  0.00    -0.190 NA 
HETATM   12  C   UNL     1      -8.526  17.732  67.871  1.00  0.00    -0.245 A  
ENDROOT
BRANCH   8  13
HETATM   13  C   UNL     1     -10.091  14.054  65.958  1.00  0.00    -0.315 C  
HETATM   14  C   UNL     1     -11.192  13.437  67.926  1.00  0.00    -0.275 C  
HETATM   15  C   UNL     1      -9.697  13.338  68.240  1.00  0.00    -0.225 C  
HETATM   16  O   UNL     1      -8.524  12.214  66.457  1.00  0.00    -0.345 OA 
HETATM   17  O   UNL     1     -11.315  13.512  66.488  1.00  0.00    -0.304 OA 
HETATM   18  C   UNL     1      -8.995  13.516  66.892  1.00  0.00    -0.209 C  
HETATM   19  H   UNL     1      -7.847  11.882  67.034  1.00  0.00     0.000 HD 
HETATM   20  O   UNL     1      -9.411  12.066  68.833  1.00  0.00    -0.403 OA 
HETATM   21  H   UNL     1      -8.484  12.004  69.028  1.00  0.00     0.000 HD 
BRANCH  14  22
HETATM   22  C   UNL     1     -11.801  14.670  68.607  1.00  0.00    -0.311 C  
BRANCH  22  23
HETATM   23  O   UNL     1     -11.416  14.740  69.975  1.00  0.00    -0.257 OA 
HETATM   24  P   UNL     1     -12.741  15.142  71.012  1.00  0.00    -0.463 P  
HETATM   25  O   UNL     1     -13.926  15.502  71.940  1.00  0.00    -0.483 OA 
HETATM   26  O   UNL     1     -13.034  13.537  71.037  1.00  0.00    -0.280 OA 
HETATM   27  O   UNL     1     -11.626  15.200  72.206  1.00  0.00    -0.414 OA 
ENDBRANCH  22  23
ENDBRANCH  14  22
ENDBRANCH   8  13
TORSDOF 3
ENDMDL
MODEL       24
REMARK 921   NORMALIZED FREE ENERGY PREDICTED BY IDOCK:   -6.71 KCAL/MOL
REMARK 922        TOTAL FREE ENERGY PREDICTED BY IDOCK:   -8.36 KCAL/MOL
REMARK 923 INTER-LIGAND FREE ENERGY PREDICTED BY IDOCK:   -8.03 KCAL/MOL
REMARK 924 INTRA-LIGAND FREE ENERGY PREDICTED BY IDOCK:   -0.33 KCAL/MOL
REMARK 927      BINDING AFFINITY PREDICTED BY RF-SCORE:    0.00 PKD
ROOT
HETATM    1  N   UNL     1     -13.001  11.730  62.887  1.00  0.00    -0.784 NA 
HETATM    2  C   UNL     1     -11.941  11.864  63.770  1.00  0.00    -0.445 A  
HETATM    3  H1  UNL     1     -12.974  11.114  62.075  1.00  0.00     0.000 HD 
HETATM    4  H2  UNL     1     -13.240  12.664  62.552  1.00  0.00     0.000 HD 
HETATM    5  C   UNL     1     -11.979  12.713  64.888  1.00  0.00    -0.406 A  
HETATM    6  N   UNL     1     -12.948  13.561  65.366  1.00  0.00    -0.661 NA 
HETATM    7  C   UNL     1     -12.401  14.138  66.417  1.00  0.00    -0.400 A  
HETATM    8  N   UNL     1     -11.131  13.666  66.659  1.00  0.00    -0.302 NA 
HETATM    9  N   UNL     1     -10.808  11.167  63.527  1.00  0.00    -0.300 NA 
HETATM   10  C   UNL     1     -10.837  12.763  65.676  1.00  0.00    -0.273 A  
HETATM   11  N   UNL     1      -9.690  12.091  65.476  1.00  0.00    -0.229 NA 
HETATM   12  C   UNL     1      -9.776  11.302  64.384  1.00  0.00    -0.254 A  
ENDROOT
BRANCH   8  13
HETATM   13  C   UNL     1     -10.320  14.101  67.777  1.00  0.00    -0.242 C  
HETATM   14  C   UNL     1      -9.556  16.259  67.304  1.00  0.00    -0.230 C  
HETATM   15  C   UNL     1      -8.326  15.354  67.204  1.00  0.00    -0.219 C  
HETATM   16  O   UNL     1      -8.237  13.828  69.070  1.00  0.00    -0.341 OA 
HETATM   17  O   UNL     1     -10.581  15.502  67.985  1.00  0.00    -0.257 OA 
HETATM   18  C   UNL     1      -8.788  13.996  67.737  1.00  0.00    -0.187 C  
HETATM   19  H   UNL     1      -7.289  13.763  69.045  1.00  0.00     0.000 HD 
HETATM   20  O   UNL     1      -7.256  15.904  67.982  1.00  0.00    -0.122 OA 
HETATM   21  H   UNL     1      -6.492  15.343  67.920  1.00  0.00     0.000 HD 
BRANCH  14  22
HETATM   22  C   UNL     1     -10.015  16.695  65.906  1.00  0.00    -0.295 C  
BRANCH  22  23
HETATM   23  O   UNL     1     -10.117  18.112  65.821  1.00  0.00    -0.563 OA 
HETATM   24  P   UNL     1      -9.090  18.914  66.960  1.00  0.00    -0.313 P  
HETATM   25  O   UNL     1      -8.173  19.632  67.979  1.00  0.00    -0.302 OA 
HETATM   26  O   UNL     1      -7.942  18.793  65.808  1.00  0.00    -0.476 OA 
HETATM   27  O   UNL     1      -9.804  20.291  66.444  1.00  0.00    -0.426 OA 
ENDBRANCH  22  23
ENDBRANCH  14  22
ENDBRANCH   8  13
TORSDOF 3
ENDMDL
MODEL       25
REMARK 921   NORMALIZED FREE ENERGY PREDICTED BY IDOCK:   -6.70 KCAL/MOL
REMARK 922        TOTAL FREE ENERGY PREDICTED BY IDOCK:   -8.34 KCAL/MOL
REMARK 923 INTER-LIGAND FREE ENERGY PREDICTED BY IDOCK:   -7.76 KCAL/MOL
REMARK 924 INTRA-LIGAND FREE ENERGY PREDICTED BY IDOCK:   -0.58 KCAL/MOL
REMARK 927      BINDING AFFINITY PREDICTED BY RF-SCORE:    0.00 PKD
ROOT
HETATM    1  N   UNL     1      -8.628  20.350  65.981  1.00  0.00    -0.563 NA 
HETATM    2  C   UNL     1      -8.318  19.063  66.396  1.00  0.00    -0.307 A  
HETATM    3  H1  UNL     1      -7.962  20.954  65.500  1.00  0.00     0.000 HD 
HETATM    4  H2  UNL     1      -8.968  20.861  66.796  1.00  0.00     0.000 HD 
HETATM    5  C   UNL     1      -9.235  18.232  67.059  1.00  0.00    -0.274 A  
HETATM    6  N   UNL     1     -10.538  18.428  67.452  1.00  0.00    -0.420 NA 
HETATM    7  C   UNL     1     -10.870  17.318  68.079  1.00  0.00    -0.297 A  
HETATM    8  N   UNL     1      -9.847  16.398  68.071  1.00  0.00    -0.235 NA 
HETATM    9  N   UNL     1      -7.067  18.600  66.179  1.00  0.00    -0.244 NA 
HETATM   10  C   UNL     1      -8.783  16.975  67.436  1.00  0.00    -0.202 A  
HETATM   11  N   UNL     1      -7.553  16.471  67.243  1.00  0.00    -0.147 NA 
HETATM   12  C   UNL     1      -6.766  17.351  66.589  1.00  0.00    -0.229 A  
ENDROOT
BRANCH   8  13
HETATM   13  C   UNL     1      -9.960  15.077  68.653  1.00  0.00    -0.220 C  
HETATM   14  C   UNL     1     -10.525  13.591  66.939  1.00  0.00    -0.271 C  
HETATM   15  C   UNL     1     -11.776  13.709  67.812  1.00  0.00    -0.362 C  
HETATM   16  O   UNL     1     -11.202  13.559  70.150  1.00  0.00    -0.483 OA 
HETATM   17  O   UNL     1      -9.426  14.136  67.703  1.00  0.00    -0.203 OA 
HETATM   18  C   UNL     1     -11.326  14.494  69.046  1.00  0.00    -0.272 C  
HETATM   19  H   UNL     1     -12.047  13.198  70.393  1.00  0.00     0.000 HD 
HETATM   20  O   UNL     1     -12.256  12.402  68.148  1.00  0.00    -0.314 OA 
HETATM   21  H   UNL     1     -13.033  12.475  68.690  1.00  0.00     0.000 HD 
BRANCH  14  22
HETATM   22  C   UNL     1     -10.720  14.347  65.618  1.00  0.00    -0.320 C  
BRANCH  22  23
HETATM   23  O   UNL     1     -10.510  13.489  64.503  1.00  0.00    -0.418 OA 
HETATM   24  P   UNL     1     -11.922  12.573  64.102  1.00  0.00    -0.506 P  
HETATM   25  O   UNL     1     -13.185  11.754  63.743  1.00  0.00    -0.546 OA 
HETATM   26  O   UNL     1     -12.340  13.866  63.199  1.00  0.00    -0.696 OA 
HETATM   27  O   UNL     1     -10.969  11.817  63.010  1.00  0.00    -0.225 OA 
ENDBRANCH  22  23
ENDBRANCH  14  22
ENDBRANCH   8  13
TORSDOF 3
ENDMDL
MODEL       26
REMARK 921   NORMALIZED FREE ENERGY PREDICTED BY IDOCK:   -6.69 KCAL/MOL
REMARK 922        TOTAL FREE ENERGY PREDICTED BY IDOCK:   -8.33 KCAL/MOL
REMARK 923 INTER-LIGAND FREE ENERGY PREDICTED BY IDOCK:   -7.68 KCAL/MOL
REMARK 924 INTRA-LIGAND FREE ENERGY PREDICTED BY IDOCK:   -0.65 KCAL/MOL
REMARK 927      BINDING AFFINITY PREDICTED BY RF-SCORE:    0.00 PKD
ROOT
HETATM    1  N   UNL     1      -9.132   9.987  70.124  1.00  0.00    -0.379 NA 
HETATM    2  C   UNL     1     -10.008  10.466  69.162  1.00  0.00    -0.223 A  
HETATM    3  H1  UNL     1      -9.375   9.917  71.112  1.00  0.00     0.000 HD 
HETATM    4  H2  UNL     1      -8.276  10.538  70.060  1.00  0.00     0.000 HD 
HETATM    5  C   UNL     1      -9.673  10.563  67.802  1.00  0.00    -0.160 A  
HETATM    6  N   UNL     1      -8.521  10.261  67.115  1.00  0.00    -0.125 NA 
HETATM    7  C   UNL     1      -8.773  10.610  65.869  1.00  0.00    -0.177 A  
HETATM    8  N   UNL     1     -10.054  11.087  65.718  1.00  0.00    -0.242 NA 
HETATM    9  N   UNL     1     -11.230  10.888  69.557  1.00  0.00    -0.255 NA 
HETATM   10  C   UNL     1     -10.641  11.081  66.953  1.00  0.00    -0.258 A  
HETATM   11  N   UNL     1     -11.866  11.512  67.297  1.00  0.00    -0.604 NA 
HETATM   12  C   UNL     1     -12.078  11.360  68.621  1.00  0.00    -0.145 A  
ENDROOT
BRANCH   8  13
HETATM   13  C   UNL     1     -10.605  11.501  64.445  1.00  0.00    -0.334 C  
HETATM   14  C   UNL     1     -10.491  13.834  64.344  1.00  0.00    -0.241 C  
HETATM   15  C   UNL     1     -11.977  13.499  64.491  1.00  0.00    -0.410 C  
HETATM   16  O   UNL     1     -12.597  11.704  63.003  1.00  0.00    -0.950 OA 
HETATM   17  O   UNL     1      -9.819  12.610  63.970  1.00  0.00    -0.230 OA 
HETATM   18  C   UNL     1     -12.060  11.980  64.323  1.00  0.00    -0.322 C  
HETATM   19  H   UNL     1     -13.497  12.000  62.928  1.00  0.00     0.000 HD 
HETATM   20  O   UNL     1     -12.730  14.194  63.490  1.00  0.00    -0.908 OA 
HETATM   21  H   UNL     1     -13.653  13.986  63.581  1.00  0.00     0.000 HD 
BRANCH  14  22
HETATM   22  C   UNL     1      -9.937  14.400  65.659  1.00  0.00    -0.337 C  
BRANCH  22  23
HETATM   23  O   UNL     1     -10.991  14.740  66.552  1.00  0.00    -0.314 OA 
HETATM   24  P   UNL     1     -10.418  15.074  68.150  1.00  0.00    -0.255 P  
HETATM   25  O   UNL     1      -9.906  15.372  69.580  1.00  0.00    -0.243 OA 
HETATM   26  O   UNL     1     -10.202  16.598  67.610  1.00  0.00    -0.269 OA 
HETATM   27  O   UNL     1     -11.998  15.186  68.558  1.00  0.00    -0.304 OA 
ENDBRANCH  22  23
ENDBRANCH  14  22
ENDBRANCH   8  13
TORSDOF 3
ENDMDL
MODEL       27
REMARK 921   NORMALIZED FREE ENERGY PREDICTED BY IDOCK:   -6.64 KCAL/MOL
REMARK 922        TOTAL FREE ENERGY PREDICTED BY IDOCK:   -8.27 KCAL/MOL
REMARK 923 INTER-LIGAND FREE ENERGY PREDICTED BY IDOCK:   -7.65 KCAL/MOL
REMARK 924 INTRA-LIGAND FREE ENERGY PREDICTED BY IDOCK:   -0.62 KCAL/MOL
REMARK 927      BINDING AFFINITY PREDICTED BY RF-SCORE:    0.00 PKD
ROOT
HETATM    1  N   UNL     1     -12.534   9.691  70.273  1.00  0.00    -0.466 NA 
HETATM    2  C   UNL     1     -12.410  11.065  70.414  1.00  0.00    -0.356 A  
HETATM    3  H1  UNL     1     -13.128   9.122  70.875  1.00  0.00     0.000 HD 
HETATM    4  H2  UNL     1     -11.595   9.295  70.309  1.00  0.00     0.000 HD 
HETATM    5  C   UNL     1     -11.592  11.849  69.585  1.00  0.00    -0.317 A  
HETATM    6  N   UNL     1     -10.769  11.525  68.533  1.00  0.00    -0.199 NA 
HETATM    7  C   UNL     1     -10.213  12.666  68.178  1.00  0.00    -0.240 A  
HETATM    8  N   UNL     1     -10.675  13.719  68.933  1.00  0.00    -0.246 NA 
HETATM    9  N   UNL     1     -13.086  11.673  71.415  1.00  0.00    -0.328 NA 
HETATM   10  C   UNL     1     -11.548  13.211  69.853  1.00  0.00    -0.185 A  
HETATM   11  N   UNL     1     -12.199  13.859  70.833  1.00  0.00    -0.358 NA 
HETATM   12  C   UNL     1     -12.960  13.008  71.554  1.00  0.00    -0.305 A  
ENDROOT
BRANCH   8  13
HETATM   13  C   UNL     1     -10.260  15.090  68.724  1.00  0.00    -0.235 C  
HETATM   14  C   UNL     1     -11.195  15.816  66.708  1.00  0.00    -0.021 C  
HETATM   15  C   UNL     1      -9.694  15.681  66.442  1.00  0.00    -0.279 C  
HETATM   16  O   UNL     1      -8.418  16.660  68.241  1.00  0.00    -0.189 OA 
HETATM   17  O   UNL     1     -11.371  15.797  68.142  1.00  0.00    -0.350 OA 
HETATM   18  C   UNL     1      -9.068  15.433  67.817  1.00  0.00    -0.178 C  
HETATM   19  H   UNL     1      -7.681  16.871  67.680  1.00  0.00     0.000 HD 
HETATM   20  O   UNL     1      -9.201  16.881  65.834  1.00  0.00    -0.500 OA 
HETATM   21  H   UNL     1      -8.269  16.797  65.668  1.00  0.00     0.000 HD 
BRANCH  14  22
HETATM   22  C   UNL     1     -11.963  14.673  66.032  1.00  0.00    -0.242 C  
BRANCH  22  23
HETATM   23  O   UNL     1     -11.177  14.061  65.016  1.00  0.00    -0.324 OA 
HETATM   24  P   UNL     1     -12.048  12.836  64.158  1.00  0.00    -0.482 P  
HETATM   25  O   UNL     1     -12.827  11.740  63.391  1.00  0.00    -0.632 OA 
HETATM   26  O   UNL     1     -12.567  14.057  63.210  1.00  0.00    -0.801 OA 
HETATM   27  O   UNL     1     -10.630  12.532  63.404  1.00  0.00    -0.415 OA 
ENDBRANCH  22  23
ENDBRANCH  14  22
ENDBRANCH   8  13
TORSDOF 3
ENDMDL
MODEL       28
REMARK 921   NORMALIZED FREE ENERGY PREDICTED BY IDOCK:   -6.60 KCAL/MOL
REMARK 922        TOTAL FREE ENERGY PREDICTED BY IDOCK:   -8.23 KCAL/MOL
REMARK 923 INTER-LIGAND FREE ENERGY PREDICTED BY IDOCK:   -7.81 KCAL/MOL
REMARK 924 INTRA-LIGAND FREE ENERGY PREDICTED BY IDOCK:   -0.41 KCAL/MOL
REMARK 927      BINDING AFFINITY PREDICTED BY RF-SCORE:    0.00 PKD
ROOT
HETATM    1  N   UNL     1     -10.294  17.367  69.670  1.00  0.00    -0.161 NA 
HETATM    2  C   UNL     1     -10.500  16.954  68.363  1.00  0.00    -0.355 A  
HETATM    3  H1  UNL     1      -9.812  18.234  69.910  1.00  0.00     0.000 HD 
HETATM    4  H2  UNL     1      -9.818  16.609  70.160  1.00  0.00     0.000 HD 
HETATM    5  C   UNL     1     -11.163  15.761  68.033  1.00  0.00    -0.338 A  
HETATM    6  N   UNL     1     -11.720  14.773  68.810  1.00  0.00    -0.317 NA 
HETATM    7  C   UNL     1     -12.151  13.873  67.950  1.00  0.00    -0.283 A  
HETATM    8  N   UNL     1     -11.930  14.258  66.648  1.00  0.00    -0.427 NA 
HETATM    9  N   UNL     1     -10.013  17.719  67.360  1.00  0.00    -0.311 NA 
HETATM   10  C   UNL     1     -11.280  15.460  66.683  1.00  0.00    -0.175 A  
HETATM   11  N   UNL     1     -10.814  16.187  65.653  1.00  0.00    -0.283 NA 
HETATM   12  C   UNL     1     -10.208  17.312  66.091  1.00  0.00    -0.331 A  
ENDROOT
BRANCH   8  13
HETATM   13  C   UNL     1     -12.343  13.474  65.504  1.00  0.00    -0.481 C  
HETATM   14  C   UNL     1     -10.804  11.733  65.242  1.00  0.00    -0.290 C  
HETATM   15  C   UNL     1     -10.556  12.684  64.068  1.00  0.00    -0.427 C  
HETATM   16  O   UNL     1     -12.642  13.353  63.058  1.00  0.00    -0.779 OA 
HETATM   17  O   UNL     1     -12.085  12.090  65.809  1.00  0.00    -0.536 OA 
HETATM   18  C   UNL     1     -11.711  13.688  64.120  1.00  0.00    -0.386 C  
HETATM   19  H   UNL     1     -12.251  13.486  62.202  1.00  0.00     0.000 HD 
HETATM   20  O   UNL     1     -10.538  11.945  62.842  1.00  0.00    -0.648 OA 
HETATM   21  H   UNL     1     -10.384  12.535  62.113  1.00  0.00     0.000 HD 
BRANCH  14  22
HETATM   22  C   UNL     1      -9.678  11.855  66.277  1.00  0.00    -0.229 C  
BRANCH  22  23
HETATM   23  O   UNL     1     -10.021  11.186  67.485  1.00  0.00    -0.178 OA 
HETATM   24  P   UNL     1     -10.202   9.480  67.265  1.00  0.00    -0.253 P  
HETATM   25  O   UNL     1     -10.365   7.953  67.068  1.00  0.00    -0.286 OA 
HETATM   26  O   UNL     1      -8.594   9.411  67.526  1.00  0.00    -0.122 OA 
HETATM   27  O   UNL     1     -10.699   9.458  68.822  1.00  0.00    -0.220 OA 
ENDBRANCH  22  23
ENDBRANCH  14  22
ENDBRANCH   8  13
TORSDOF 3
ENDMDL
MODEL       29
REMARK 921   NORMALIZED FREE ENERGY PREDICTED BY IDOCK:   -6.52 KCAL/MOL
REMARK 922        TOTAL FREE ENERGY PREDICTED BY IDOCK:   -8.14 KCAL/MOL
REMARK 923 INTER-LIGAND FREE ENERGY PREDICTED BY IDOCK:   -7.36 KCAL/MOL
REMARK 924 INTRA-LIGAND FREE ENERGY PREDICTED BY IDOCK:   -0.78 KCAL/MOL
REMARK 927      BINDING AFFINITY PREDICTED BY RF-SCORE:    0.00 PKD
ROOT
HETATM    1  N   UNL     1     -11.207   9.155  69.508  1.00  0.00    -0.437 NA 
HETATM    2  C   UNL     1     -10.309  10.145  69.137  1.00  0.00    -0.219 A  
HETATM    3  H1  UNL     1     -10.920   8.282  69.949  1.00  0.00     0.000 HD 
HETATM    4  H2  UNL     1     -11.754   8.914  68.681  1.00  0.00     0.000 HD 
HETATM    5  C   UNL     1     -10.704  11.347  68.529  1.00  0.00    -0.201 A  
HETATM    6  N   UNL     1     -11.937  11.830  68.160  1.00  0.00    -0.557 NA 
HETATM    7  C   UNL     1     -11.685  12.989  67.586  1.00  0.00    -0.366 A  
HETATM    8  N   UNL     1     -10.343  13.292  67.606  1.00  0.00    -0.228 NA 
HETATM    9  N   UNL     1      -8.990   9.928  69.342  1.00  0.00    -0.181 NA 
HETATM   10  C   UNL     1      -9.696  12.241  68.192  1.00  0.00    -0.213 A  
HETATM   11  N   UNL     1      -8.375  12.070  68.376  1.00  0.00    -0.163 NA 
HETATM   12  C   UNL     1      -8.119  10.889  68.976  1.00  0.00    -0.126 A  
ENDROOT
BRANCH   8  13
HETATM   13  C   UNL     1      -9.797  14.525  67.080  1.00  0.00    -0.249 C  
HETATM   14  C   UNL     1      -9.720  16.072  68.831  1.00  0.00    -0.232 C  
HETATM   15  C   UNL     1     -10.827  16.563  67.895  1.00  0.00    -0.326 C  
HETATM   16  O   UNL     1     -10.101  16.473  65.596  1.00  0.00    -0.483 OA 
HETATM   17  O   UNL     1      -8.950  15.095  68.096  1.00  0.00    -0.169 OA 
HETATM   18  C   UNL     1     -10.712  15.682  66.649  1.00  0.00    -0.296 C  
HETATM   19  H   UNL     1     -10.667  17.188  65.330  1.00  0.00     0.000 HD 
HETATM   20  O   UNL     1     -10.628  17.949  67.596  1.00  0.00    -0.390 OA 
HETATM   21  H   UNL     1     -11.315  18.254  67.015  1.00  0.00     0.000 HD 
BRANCH  14  22
HETATM   22  C   UNL     1     -10.325  15.468  70.106  1.00  0.00    -0.262 C  
BRANCH  22  23
HETATM   23  O   UNL     1     -11.722  15.728  70.180  1.00  0.00    -0.319 OA 
HETATM   24  P   UNL     1     -12.449  15.020  71.581  1.00  0.00    -0.409 P  
HETATM   25  O   UNL     1     -13.100  14.386  72.834  1.00  0.00    -0.487 OA 
HETATM   26  O   UNL     1     -12.016  16.399  72.338  1.00  0.00    -0.530 OA 
HETATM   27  O   UNL     1     -13.868  15.529  70.948  1.00  0.00    -0.512 OA 
ENDBRANCH  22  23
ENDBRANCH  14  22
ENDBRANCH   8  13
TORSDOF 3
ENDMDL
MODEL       30
REMARK 921   NORMALIZED FREE ENERGY PREDICTED BY IDOCK:   -6.50 KCAL/MOL
REMARK 922        TOTAL FREE ENERGY PREDICTED BY IDOCK:   -8.11 KCAL/MOL
REMARK 923 INTER-LIGAND FREE ENERGY PREDICTED BY IDOCK:   -7.23 KCAL/MOL
REMARK 924 INTRA-LIGAND FREE ENERGY PREDICTED BY IDOCK:   -0.88 KCAL/MOL
REMARK 927      BINDING AFFINITY PREDICTED BY RF-SCORE:    0.00 PKD
ROOT
HETATM    1  N   UNL     1      -8.520  10.195  70.196  1.00  0.00    -0.337 NA 
HETATM    2  C   UNL     1      -8.568  10.305  68.814  1.00  0.00    -0.139 A  
HETATM    3  H1  UNL     1      -7.736   9.771  70.692  1.00  0.00     0.000 HD 
HETATM    4  H2  UNL     1      -9.367   9.712  70.494  1.00  0.00     0.000 HD 
HETATM    5  C   UNL     1      -9.646  10.890  68.131  1.00  0.00    -0.164 A  
HETATM    6  N   UNL     1     -10.825  11.442  68.573  1.00  0.00    -0.197 NA 
HETATM    7  C   UNL     1     -11.470  11.779  67.474  1.00  0.00    -0.303 A  
HETATM    8  N   UNL     1     -10.738  11.502  66.343  1.00  0.00    -0.264 NA 
HETATM    9  N   UNL     1      -7.544   9.800  68.091  1.00  0.00    -0.082 NA 
HETATM   10  C   UNL     1      -9.571  10.915  66.745  1.00  0.00    -0.183 A  
HETATM   11  N   UNL     1      -8.577  10.426  65.984  1.00  0.00    -0.145 NA 
HETATM   12  C   UNL     1      -7.595   9.902  66.748  1.00  0.00    -0.095 A  
ENDROOT
BRANCH   8  13
HETATM   13  C   UNL     1     -11.194  11.812  65.004  1.00  0.00    -0.257 C  
HETATM   14  C   UNL     1     -10.549  14.007  64.523  1.00  0.00    -0.309 C  
HETATM   15  C   UNL     1     -12.071  14.049  64.683  1.00  0.00    -0.440 C  
HETATM   16  O   UNL     1     -13.103  12.220  63.495  1.00  0.00    -0.766 OA 
HETATM   17  O   UNL     1     -10.180  12.618  64.375  1.00  0.00    -0.338 OA 
HETATM   18  C   UNL     1     -12.501  12.582  64.766  1.00  0.00    -0.457 C  
HETATM   19  H   UNL     1     -13.912  12.696  63.348  1.00  0.00     0.000 HD 
HETATM   20  O   UNL     1     -12.656  14.720  63.561  1.00  0.00    -0.990 OA 
HETATM   21  H   UNL     1     -13.601  14.746  63.660  1.00  0.00     0.000 HD 
BRANCH  14  22
HETATM   22  C   UNL     1      -9.865  14.643  65.741  1.00  0.00    -0.328 C  
BRANCH  22  23
HETATM   23  O   UNL     1     -10.827  15.165  66.651  1.00  0.00    -0.311 OA 
HETATM   24  P   UNL     1     -10.185  15.358  68.247  1.00  0.00    -0.236 P  
HETATM   25  O   UNL     1      -9.612  15.531  69.674  1.00  0.00    -0.274 OA 
HETATM   26  O   UNL     1      -9.687  16.821  67.724  1.00  0.00    -0.241 OA 
HETATM   27  O   UNL     1     -11.710  15.763  68.675  1.00  0.00    -0.375 OA 
ENDBRANCH  22  23
ENDBRANCH  14  22
ENDBRANCH   8  13
TORSDOF 3
ENDMDL
MODEL       31
REMARK 921   NORMALIZED FREE ENERGY PREDICTED BY IDOCK:   -6.46 KCAL/MOL
REMARK 922        TOTAL FREE ENERGY PREDICTED BY IDOCK:   -8.07 KCAL/MOL
REMARK 923 INTER-LIGAND FREE ENERGY PREDICTED BY IDOCK:   -7.28 KCAL/MOL
REMARK 924 INTRA-LIGAND FREE ENERGY PREDICTED BY IDOCK:   -0.78 KCAL/MOL
REMARK 927      BINDING AFFINITY PREDICTED BY RF-SCORE:    0.00 PKD
ROOT
HETATM    1  N   UNL     1     -12.060  10.705  68.662  1.00  0.00    -0.812 NA 
HETATM    2  C   UNL     1     -11.046  11.562  68.262  1.00  0.00    -0.239 A  
HETATM    3  H1  UNL     1     -12.112   9.730  68.366  1.00  0.00     0.000 HD 
HETATM    4  H2  UNL     1     -12.947  11.146  68.418  1.00  0.00     0.000 HD 
HETATM    5  C   UNL     1     -10.973  12.904  68.670  1.00  0.00    -0.261 A  
HETATM    6  N   UNL     1     -11.788  13.667  69.471  1.00  0.00    -0.318 NA 
HETATM    7  C   UNL     1     -11.249  14.869  69.450  1.00  0.00    -0.283 A  
HETATM    8  N   UNL     1     -10.097  14.902  68.699  1.00  0.00    -0.230 NA 
HETATM    9  N   UNL     1     -10.100  11.093  67.418  1.00  0.00    -0.182 NA 
HETATM   10  C   UNL     1      -9.914  13.653  68.176  1.00  0.00    -0.246 A  
HETATM   11  N   UNL     1      -8.952  13.232  67.337  1.00  0.00    -0.204 NA 
HETATM   12  C   UNL     1      -9.119  11.929  67.026  1.00  0.00    -0.191 A  
ENDROOT
BRANCH   8  13
HETATM   13  C   UNL     1      -9.282  16.089  68.544  1.00  0.00    -0.206 C  
HETATM   14  C   UNL     1     -10.109  17.284  66.713  1.00  0.00    -0.302 C  
HETATM   15  C   UNL     1      -8.762  16.716  66.260  1.00  0.00    -0.324 C  
HETATM   16  O   UNL     1      -7.083  17.045  67.961  1.00  0.00    -0.156 OA 
HETATM   17  O   UNL     1     -10.153  17.167  68.153  1.00  0.00    -0.280 OA 
HETATM   18  C   UNL     1      -8.130  16.137  67.528  1.00  0.00    -0.145 C  
HETATM   19  H   UNL     1      -6.371  17.075  67.332  1.00  0.00     0.000 HD 
HETATM   20  O   UNL     1      -7.965  17.759  65.687  1.00  0.00    -0.532 OA 
HETATM   21  H   UNL     1      -7.129  17.406  65.406  1.00  0.00     0.000 HD 
BRANCH  14  22
HETATM   22  C   UNL     1     -11.264  16.519  66.051  1.00  0.00     0.372 C  
BRANCH  22  23
HETATM   23  O   UNL     1     -10.775  15.440  65.264  1.00  0.00    -0.363 OA 
HETATM   24  P   UNL     1     -11.904  14.132  65.166  1.00  0.00    -0.413 P  
HETATM   25  O   UNL     1     -12.913  12.962  65.078  1.00  0.00    -0.777 OA 
HETATM   26  O   UNL     1     -12.533  14.948  63.901  1.00  0.00    -0.806 OA 
HETATM   27  O   UNL     1     -10.719  13.334  64.371  1.00  0.00    -0.382 OA 
ENDBRANCH  22  23
ENDBRANCH  14  22
ENDBRANCH   8  13
TORSDOF 3
ENDMDL
MODEL       32
REMARK 921   NORMALIZED FREE ENERGY PREDICTED BY IDOCK:   -6.46 KCAL/MOL
REMARK 922        TOTAL FREE ENERGY PREDICTED BY IDOCK:   -8.06 KCAL/MOL
REMARK 923 INTER-LIGAND FREE ENERGY PREDICTED BY IDOCK:   -7.67 KCAL/MOL
REMARK 924 INTRA-LIGAND FREE ENERGY PREDICTED BY IDOCK:   -0.39 KCAL/MOL
REMARK 927      BINDING AFFINITY PREDICTED BY RF-SCORE:    0.00 PKD
ROOT
HETATM    1  N   UNL     1     -11.732  16.219  63.730  1.00  0.00    -1.488 NA 
HETATM    2  C   UNL     1     -11.987  15.019  64.377  1.00  0.00    -0.353 A  
HETATM    3  H1  UNL     1     -11.954  16.379  62.748  1.00  0.00     0.000 HD 
HETATM    4  H2  UNL     1     -10.742  16.431  63.857  1.00  0.00     0.000 HD 
HETATM    5  C   UNL     1     -11.680  14.799  65.729  1.00  0.00    -0.252 A  
HETATM    6  N   UNL     1     -11.102  15.601  66.684  1.00  0.00    -0.217 NA 
HETATM    7  C   UNL     1     -11.020  14.840  67.757  1.00  0.00    -0.291 A  
HETATM    8  N   UNL     1     -11.558  13.592  67.544  1.00  0.00    -0.329 NA 
HETATM    9  N   UNL     1     -12.526  14.005  63.664  1.00  0.00    -0.809 NA 
HETATM   10  C   UNL     1     -11.972  13.542  66.242  1.00  0.00    -0.413 A  
HETATM   11  N   UNL     1     -12.507  12.505  65.575  1.00  0.00    -0.635 NA 
HETATM   12  C   UNL     1     -12.768  12.838  64.293  1.00  0.00    -0.253 A  
ENDROOT
BRANCH   8  13
HETATM   13  C   UNL     1     -11.635  12.573  68.569  1.00  0.00    -0.321 C  
HETATM   14  C   UNL     1      -9.731  11.230  68.380  1.00  0.00    -0.194 C  
HETATM   15  C   UNL     1     -10.899  10.360  67.909  1.00  0.00    -0.279 C  
HETATM   16  O   UNL     1     -12.770  10.554  69.419  1.00  0.00    -0.692 OA 
HETATM   17  O   UNL     1     -10.303  12.361  69.073  1.00  0.00    -0.102 OA 
HETATM   18  C   UNL     1     -12.155  11.163  68.253  1.00  0.00     0.062 C  
HETATM   19  H   UNL     1     -13.092   9.682  69.223  1.00  0.00     0.000 HD 
HETATM   20  O   UNL     1     -10.864   9.097  68.583  1.00  0.00    -0.393 OA 
HETATM   21  H   UNL     1     -11.589   8.556  68.291  1.00  0.00     0.000 HD 
BRANCH  14  22
HETATM   22  C   UNL     1      -8.878  11.675  67.184  1.00  0.00    -0.172 C  
BRANCH  22  23
HETATM   23  O   UNL     1      -7.494  11.469  67.441  1.00  0.00    -0.111 OA 
HETATM   24  P   UNL     1      -6.589  12.943  67.394  1.00  0.00     0.086 P  
HETATM   25  O   UNL     1      -5.780  14.262  67.352  1.00  0.00    -0.344 OA 
HETATM   26  O   UNL     1      -6.997  13.086  68.967  1.00  0.00    -0.098 OA 
HETATM   27  O   UNL     1      -5.271  11.993  67.574  1.00  0.00    -0.068 OA 
ENDBRANCH  22  23
ENDBRANCH  14  22
ENDBRANCH   8  13
TORSDOF 3
ENDMDL
MODEL       33
REMARK 921   NORMALIZED FREE ENERGY PREDICTED BY IDOCK:   -6.46 KCAL/MOL
REMARK 922        TOTAL FREE ENERGY PREDICTED BY IDOCK:   -8.06 KCAL/MOL
REMARK 923 INTER-LIGAND FREE ENERGY PREDICTED BY IDOCK:   -7.29 KCAL/MOL
REMARK 924 INTRA-LIGAND FREE ENERGY PREDICTED BY IDOCK:   -0.77 KCAL/MOL
REMARK 927      BINDING AFFINITY PREDICTED BY RF-SCORE:    0.00 PKD
ROOT
HETATM    1  N   UNL     1     -10.414  17.570  69.579  1.00  0.00    -0.299 NA 
HETATM    2  C   UNL     1     -10.568  17.047  68.304  1.00  0.00    -0.372 A  
HETATM    3  H1  UNL     1      -9.930  18.448  69.765  1.00  0.00     0.000 HD 
HETATM    4  H2  UNL     1      -9.974  16.852  70.154  1.00  0.00     0.000 HD 
HETATM    5  C   UNL     1     -11.235  15.838  68.049  1.00  0.00    -0.338 A  
HETATM    6  N   UNL     1     -11.843  14.929  68.882  1.00  0.00    -0.313 NA 
HETATM    7  C   UNL     1     -12.250  13.963  68.083  1.00  0.00    -0.150 A  
HETATM    8  N   UNL     1     -11.964  14.231  66.765  1.00  0.00    -0.431 NA 
HETATM    9  N   UNL     1     -10.024  17.716  67.263  1.00  0.00    -0.310 NA 
HETATM   10  C   UNL     1     -11.297  15.423  66.726  1.00  0.00    -0.125 A  
HETATM   11  N   UNL     1     -10.773  16.052  65.660  1.00  0.00    -0.347 NA 
HETATM   12  C   UNL     1     -10.169  17.202  66.025  1.00  0.00    -0.321 A  
ENDROOT
BRANCH   8  13
HETATM   13  C   UNL     1     -12.339  13.355  65.675  1.00  0.00    -0.470 C  
HETATM   14  C   UNL     1     -10.797  11.599  65.612  1.00  0.00    -0.276 C  
HETATM   15  C   UNL     1     -10.504  12.450  64.375  1.00  0.00    -0.344 C  
HETATM   16  O   UNL     1     -12.550  13.033  63.238  1.00  0.00    -0.696 OA 
HETATM   17  O   UNL     1     -12.096  12.001  66.102  1.00  0.00    -0.582 OA 
HETATM   18  C   UNL     1     -11.657  13.454  64.302  1.00  0.00    -0.402 C  
HETATM   19  H   UNL     1     -12.128  13.095  62.389  1.00  0.00     0.000 HD 
HETATM   20  O   UNL     1     -10.444  11.612  63.214  1.00  0.00    -0.515 OA 
HETATM   21  H   UNL     1     -10.262  12.140  62.446  1.00  0.00     0.000 HD 
BRANCH  14  22
HETATM   22  C   UNL     1      -9.707  11.804  66.674  1.00  0.00    -0.202 C  
BRANCH  22  23
HETATM   23  O   UNL     1      -8.994  13.014  66.445  1.00  0.00    -0.133 OA 
HETATM   24  P   UNL     1      -8.073  13.506  67.825  1.00  0.00    -0.211 P  
HETATM   25  O   UNL     1      -7.249  13.946  69.059  1.00  0.00    -0.111 OA 
HETATM   26  O   UNL     1      -6.903  12.543  67.219  1.00  0.00    -0.151 OA 
HETATM   27  O   UNL     1      -7.741  14.856  66.965  1.00  0.00    -0.185 OA 
ENDBRANCH  22  23
ENDBRANCH  14  22
ENDBRANCH   8  13
TORSDOF 3
ENDMDL
MODEL       34
REMARK 921   NORMALIZED FREE ENERGY PREDICTED BY IDOCK:   -6.40 KCAL/MOL
REMARK 922        TOTAL FREE ENERGY PREDICTED BY IDOCK:   -7.99 KCAL/MOL
REMARK 923 INTER-LIGAND FREE ENERGY PREDICTED BY IDOCK:   -7.63 KCAL/MOL
REMARK 924 INTRA-LIGAND FREE ENERGY PREDICTED BY IDOCK:   -0.35 KCAL/MOL
REMARK 927      BINDING AFFINITY PREDICTED BY RF-SCORE:    0.00 PKD
ROOT
HETATM    1  N   UNL     1     -11.697  16.328  63.761  1.00  0.00    -1.488 NA 
HETATM    2  C   UNL     1     -11.036  15.971  64.927  1.00  0.00    -0.370 A  
HETATM    3  H1  UNL     1     -11.469  17.167  63.228  1.00  0.00     0.000 HD 
HETATM    4  H2  UNL     1     -12.695  16.364  63.975  1.00  0.00     0.000 HD 
HETATM    5  C   UNL     1     -11.350  14.816  65.661  1.00  0.00    -0.343 A  
HETATM    6  N   UNL     1     -12.292  13.833  65.471  1.00  0.00    -0.444 NA 
HETATM    7  C   UNL     1     -12.156  13.033  66.510  1.00  0.00    -0.341 A  
HETATM    8  N   UNL     1     -11.138  13.438  67.341  1.00  0.00    -0.271 NA 
HETATM    9  N   UNL     1     -10.065  16.788  65.394  1.00  0.00    -0.596 NA 
HETATM   10  C   UNL     1     -10.620  14.591  66.820  1.00  0.00    -0.276 A  
HETATM   11  N   UNL     1      -9.649  15.372  67.324  1.00  0.00    -0.210 NA 
HETATM   12  C   UNL     1      -9.428  16.441  66.530  1.00  0.00    -0.272 A  
ENDROOT
BRANCH   8  13
HETATM   13  C   UNL     1     -10.747  12.715  68.532  1.00  0.00    -0.248 C  
HETATM   14  C   UNL     1      -9.942  10.625  67.863  1.00  0.00    -0.166 C  
HETATM   15  C   UNL     1     -11.282  10.351  68.550  1.00  0.00    -0.251 C  
HETATM   16  O   UNL     1     -11.452  11.590  70.612  1.00  0.00    -0.408 OA 
HETATM   17  O   UNL     1      -9.555  11.971  68.218  1.00  0.00    -0.197 OA 
HETATM   18  C   UNL     1     -11.684  11.685  69.182  1.00  0.00    -0.326 C  
HETATM   19  H   UNL     1     -12.031  10.953  71.014  1.00  0.00     0.000 HD 
HETATM   20  O   UNL     1     -11.121   9.316  69.528  1.00  0.00    -0.378 OA 
HETATM   21  H   UNL     1     -11.953   9.146  69.954  1.00  0.00     0.000 HD 
BRANCH  14  22
HETATM   22  C   UNL     1     -10.076  10.461  66.343  1.00  0.00    -0.228 C  
BRANCH  22  23
HETATM   23  O   UNL     1      -8.802  10.506  65.711  1.00  0.00    -0.162 OA 
HETATM   24  P   UNL     1      -8.404   9.015  64.927  1.00  0.00    -0.179 P  
HETATM   25  O   UNL     1      -8.047   7.683  64.226  1.00  0.00    -0.134 OA 
HETATM   26  O   UNL     1      -9.210   9.628  63.648  1.00  0.00    -0.247 OA 
HETATM   27  O   UNL     1      -6.947   9.700  64.642  1.00  0.00    -0.101 OA 
ENDBRANCH  22  23
ENDBRANCH  14  22
ENDBRANCH   8  13
TORSDOF 3
ENDMDL
MODEL       35
REMARK 921   NORMALIZED FREE ENERGY PREDICTED BY IDOCK:   -6.34 KCAL/MOL
REMARK 922        TOTAL FREE ENERGY PREDICTED BY IDOCK:   -7.92 KCAL/MOL
REMARK 923 INTER-LIGAND FREE ENERGY PREDICTED BY IDOCK:   -7.21 KCAL/MOL
REMARK 924 INTRA-LIGAND FREE ENERGY PREDICTED BY IDOCK:   -0.71 KCAL/MOL
REMARK 927      BINDING AFFINITY PREDICTED BY RF-SCORE:    0.00 PKD
ROOT
HETATM    1  N   UNL     1     -11.997  12.012  67.878  1.00  0.00    -0.547 NA 
HETATM    2  C   UNL     1     -11.539  12.896  66.912  1.00  0.00    -0.368 A  
HETATM    3  H1  UNL     1     -12.165  11.024  67.691  1.00  0.00     0.000 HD 
HETATM    4  H2  UNL     1     -12.857  12.400  68.264  1.00  0.00     0.000 HD 
HETATM    5  C   UNL     1     -11.307  14.256  67.169  1.00  0.00    -0.337 A  
HETATM    6  N   UNL     1     -11.457  15.017  68.304  1.00  0.00    -0.320 NA 
HETATM    7  C   UNL     1     -11.137  16.240  67.933  1.00  0.00    -0.270 A  
HETATM    8  N   UNL     1     -10.749  16.292  66.615  1.00  0.00    -0.252 NA 
HETATM    9  N   UNL     1     -11.337  12.433  65.658  1.00  0.00    -0.332 NA 
HETATM   10  C   UNL     1     -10.869  15.031  66.103  1.00  0.00    -0.329 A  
HETATM   11  N   UNL     1     -10.654  14.617  64.843  1.00  0.00    -0.435 NA 
HETATM   12  C   UNL     1     -10.898  13.295  64.720  1.00  0.00    -0.360 A  
ENDROOT
BRANCH   8  13
HETATM   13  C   UNL     1     -10.307  17.507  65.962  1.00  0.00    -0.306 C  
HETATM   14  C   UNL     1      -8.185  18.027  66.795  1.00  0.00    -0.251 C  
HETATM   15  C   UNL     1      -9.126  19.087  67.372  1.00  0.00    -0.293 C  
HETATM   16  O   UNL     1     -10.601  19.938  65.664  1.00  0.00    -0.495 OA 
HETATM   17  O   UNL     1      -8.894  17.378  65.716  1.00  0.00    -0.522 OA 
HETATM   18  C   UNL     1     -10.455  18.876  66.643  1.00  0.00    -0.428 C  
HETATM   19  H   UNL     1     -10.694  20.785  66.085  1.00  0.00     0.000 HD 
HETATM   20  O   UNL     1      -8.585  20.393  67.141  1.00  0.00    -0.355 OA 
HETATM   21  H   UNL     1      -9.169  21.051  67.500  1.00  0.00     0.000 HD 
BRANCH  14  22
HETATM   22  C   UNL     1      -7.776  17.025  67.883  1.00  0.00    -0.175 C  
BRANCH  22  23
HETATM   23  O   UNL     1      -6.712  16.193  67.435  1.00  0.00    -0.152 OA 
HETATM   24  P   UNL     1      -6.724  14.640  68.200  1.00  0.00    -0.165 P  
HETATM   25  O   UNL     1      -6.734  13.252  68.884  1.00  0.00    -0.100 OA 
HETATM   26  O   UNL     1      -7.746  14.208  67.004  1.00  0.00    -0.076 OA 
HETATM   27  O   UNL     1      -5.313  14.382  67.415  1.00  0.00    -0.334 OA 
ENDBRANCH  22  23
ENDBRANCH  14  22
ENDBRANCH   8  13
TORSDOF 3
ENDMDL
MODEL       36
REMARK 921   NORMALIZED FREE ENERGY PREDICTED BY IDOCK:   -6.33 KCAL/MOL
REMARK 922        TOTAL FREE ENERGY PREDICTED BY IDOCK:   -7.92 KCAL/MOL
REMARK 923 INTER-LIGAND FREE ENERGY PREDICTED BY IDOCK:   -7.47 KCAL/MOL
REMARK 924 INTRA-LIGAND FREE ENERGY PREDICTED BY IDOCK:   -0.44 KCAL/MOL
REMARK 927      BINDING AFFINITY PREDICTED BY RF-SCORE:    0.00 PKD
ROOT
HETATM    1  N   UNL     1     -11.899  16.228  63.783  1.00  0.00    -1.413 NA 
HETATM    2  C   UNL     1     -10.972  15.581  64.587  1.00  0.00    -0.322 A  
HETATM    3  H1  UNL     1     -11.947  17.243  63.696  1.00  0.00     0.000 HD 
HETATM    4  H2  UNL     1     -12.825  15.902  64.062  1.00  0.00     0.000 HD 
HETATM    5  C   UNL     1     -10.907  14.183  64.706  1.00  0.00    -0.413 A  
HETATM    6  N   UNL     1     -11.654  13.176  64.144  1.00  0.00    -0.388 NA 
HETATM    7  C   UNL     1     -11.168  12.067  64.666  1.00  0.00    -0.326 A  
HETATM    8  N   UNL     1     -10.112  12.317  65.511  1.00  0.00    -0.255 NA 
HETATM    9  N   UNL     1     -10.112  16.331  65.311  1.00  0.00    -0.525 NA 
HETATM   10  C   UNL     1      -9.941  13.672  65.563  1.00  0.00    -0.224 A  
HETATM   11  N   UNL     1      -9.067  14.375  66.302  1.00  0.00    -0.165 NA 
HETATM   12  C   UNL     1      -9.216  15.701  66.096  1.00  0.00    -0.343 A  
ENDROOT
BRANCH   8  13
HETATM   13  C   UNL     1      -9.368  11.273  66.184  1.00  0.00    -0.211 C  
HETATM   14  C   UNL     1     -10.469  10.796  68.190  1.00  0.00    -0.185 C  
HETATM   15  C   UNL     1      -9.173  11.505  68.590  1.00  0.00    -0.132 C  
HETATM   16  O   UNL     1      -7.300  10.614  67.358  1.00  0.00    -0.090 OA 
HETATM   17  O   UNL     1     -10.321  10.394  66.810  1.00  0.00    -0.223 OA 
HETATM   18  C   UNL     1      -8.361  11.604  67.296  1.00  0.00    -0.158 C  
HETATM   19  H   UNL     1      -6.677  10.819  68.046  1.00  0.00     0.000 HD 
HETATM   20  O   UNL     1      -8.496  10.744  69.596  1.00  0.00    -0.383 OA 
HETATM   21  H   UNL     1      -7.691  11.184  69.844  1.00  0.00     0.000 HD 
BRANCH  14  22
HETATM   22  C   UNL     1     -11.672  11.732  68.377  1.00  0.00    -0.325 C  
BRANCH  22  23
HETATM   23  O   UNL     1     -12.716  11.084  69.094  1.00  0.00    -0.277 OA 
HETATM   24  P   UNL     1     -12.154  10.356  70.560  1.00  0.00    -0.346 P  
HETATM   25  O   UNL     1     -11.651   9.705  71.871  1.00  0.00    -0.339 OA 
HETATM   26  O   UNL     1     -12.418  11.820  71.230  1.00  0.00    -0.331 OA 
HETATM   27  O   UNL     1     -13.668   9.754  70.694  1.00  0.00    -0.102 OA 
ENDBRANCH  22  23
ENDBRANCH  14  22
ENDBRANCH   8  13
TORSDOF 3
ENDMDL
MODEL       37
REMARK 921   NORMALIZED FREE ENERGY PREDICTED BY IDOCK:   -6.33 KCAL/MOL
REMARK 922        TOTAL FREE ENERGY PREDICTED BY IDOCK:   -7.91 KCAL/MOL
REMARK 923 INTER-LIGAND FREE ENERGY PREDICTED BY IDOCK:   -7.27 KCAL/MOL
REMARK 924 INTRA-LIGAND FREE ENERGY PREDICTED BY IDOCK:   -0.64 KCAL/MOL
REMARK 927      BINDING AFFINITY PREDICTED BY RF-SCORE:    0.00 PKD
ROOT
HETATM    1  N   UNL     1      -6.959  18.595  69.043  1.00  0.00    -0.291 NA 
HETATM    2  C   UNL     1      -8.179  18.432  68.403  1.00  0.00    -0.312 A  
HETATM    3  H1  UNL     1      -6.707  19.442  69.551  1.00  0.00     0.000 HD 
HETATM    4  H2  UNL     1      -6.227  18.423  68.354  1.00  0.00     0.000 HD 
HETATM    5  C   UNL     1      -8.526  17.265  67.703  1.00  0.00    -0.209 A  
HETATM    6  N   UNL     1      -7.843  16.096  67.468  1.00  0.00    -0.138 NA 
HETATM    7  C   UNL     1      -8.649  15.384  66.707  1.00  0.00    -0.273 A  
HETATM    8  N   UNL     1      -9.841  16.031  66.475  1.00  0.00    -0.252 NA 
HETATM    9  N   UNL     1      -9.061  19.456  68.428  1.00  0.00    -0.348 NA 
HETATM   10  C   UNL     1      -9.773  17.248  67.093  1.00  0.00    -0.259 A  
HETATM   11  N   UNL     1     -10.682  18.238  67.089  1.00  0.00    -0.356 NA 
HETATM   12  C   UNL     1     -10.243  19.299  67.800  1.00  0.00    -0.408 A  
ENDROOT
BRANCH   8  13
HETATM   13  C   UNL     1     -10.922  15.454  65.704  1.00  0.00    -0.326 C  
HETATM   14  C   UNL     1     -12.002  13.884  67.059  1.00  0.00    -0.424 C  
HETATM   15  C   UNL     1     -11.264  13.071  65.991  1.00  0.00    -0.292 C  
HETATM   16  O   UNL     1     -11.601  14.033  63.805  1.00  0.00    -0.623 OA 
HETATM   17  O   UNL     1     -12.034  15.253  66.597  1.00  0.00     0.019 OA 
HETATM   18  C   UNL     1     -10.758  14.107  64.984  1.00  0.00    -0.416 C  
HETATM   19  H   UNL     1     -11.499  13.199  63.360  1.00  0.00     0.000 HD 
HETATM   20  O   UNL     1     -12.164  12.131  65.393  1.00  0.00    -0.515 OA 
HETATM   21  H   UNL     1     -11.706  11.626  64.730  1.00  0.00     0.000 HD 
BRANCH  14  22
HETATM   22  C   UNL     1     -11.288  13.763  68.412  1.00  0.00    -0.293 C  
BRANCH  22  23
HETATM   23  O   UNL     1     -10.594  12.525  68.514  1.00  0.00    -0.234 OA 
HETATM   24  P   UNL     1     -11.350  11.436  69.626  1.00  0.00    -0.221 P  
HETATM   25  O   UNL     1     -12.026  10.463  70.621  1.00  0.00    -0.294 OA 
HETATM   26  O   UNL     1     -12.258  10.977  68.351  1.00  0.00    -0.586 OA 
HETATM   27  O   UNL     1     -10.059  10.469  69.362  1.00  0.00    -0.222 OA 
ENDBRANCH  22  23
ENDBRANCH  14  22
ENDBRANCH   8  13
TORSDOF 3
ENDMDL
MODEL       38
REMARK 921   NORMALIZED FREE ENERGY PREDICTED BY IDOCK:   -6.32 KCAL/MOL
REMARK 922        TOTAL FREE ENERGY PREDICTED BY IDOCK:   -7.90 KCAL/MOL
REMARK 923 INTER-LIGAND FREE ENERGY PREDICTED BY IDOCK:   -7.29 KCAL/MOL
REMARK 924 INTRA-LIGAND FREE ENERGY PREDICTED BY IDOCK:   -0.60 KCAL/MOL
REMARK 927      BINDING AFFINITY PREDICTED BY RF-SCORE:    0.00 PKD
ROOT
HETATM    1  N   UNL     1     -10.926  10.848  69.962  1.00  0.00    -0.455 NA 
HETATM    2  C   UNL     1     -10.283  11.459  68.896  1.00  0.00    -0.168 A  
HETATM    3  H1  UNL     1     -10.547  10.037  70.449  1.00  0.00     0.000 HD 
HETATM    4  H2  UNL     1     -11.868  10.605  69.653  1.00  0.00     0.000 HD 
HETATM    5  C   UNL     1     -10.806  12.576  68.226  1.00  0.00    -0.234 A  
HETATM    6  N   UNL     1     -11.966  13.294  68.399  1.00  0.00    -0.338 NA 
HETATM    7  C   UNL     1     -11.945  14.200  67.443  1.00  0.00    -0.404 A  
HETATM    8  N   UNL     1     -10.801  14.121  66.684  1.00  0.00    -0.296 NA 
HETATM    9  N   UNL     1      -9.114  10.935  68.463  1.00  0.00    -0.167 NA 
HETATM   10  C   UNL     1     -10.065  13.073  67.162  1.00  0.00    -0.244 A  
HETATM   11  N   UNL     1      -8.902  12.588  66.695  1.00  0.00    -0.183 NA 
HETATM   12  C   UNL     1      -8.494  11.527  67.423  1.00  0.00    -0.147 A  
ENDROOT
BRANCH   8  13
HETATM   13  C   UNL     1     -10.504  15.026  65.594  1.00  0.00    -0.350 C  
HETATM   14  C   UNL     1      -9.497  16.930  66.504  1.00  0.00    -0.276 C  
HETATM   15  C   UNL     1     -10.887  17.377  66.046  1.00  0.00     0.016 C  
HETATM   16  O   UNL     1     -11.371  16.530  63.840  1.00  0.00    -1.557 OA 
HETATM   17  O   UNL     1      -9.239  15.652  65.879  1.00  0.00    -0.340 OA 
HETATM   18  C   UNL     1     -11.442  16.194  65.250  1.00  0.00     0.206 C  
HETATM   19  H   UNL     1     -11.951  17.252  63.627  1.00  0.00     0.000 HD 
HETATM   20  O   UNL     1     -10.774  18.560  65.246  1.00  0.00    -0.578 OA 
HETATM   21  H   UNL     1     -11.637  18.838  64.961  1.00  0.00     0.000 HD 
BRANCH  14  22
HETATM   22  C   UNL     1      -9.445  16.828  68.035  1.00  0.00    -0.233 C  
BRANCH  22  23
HETATM   23  O   UNL     1      -8.359  17.582  68.559  1.00  0.00    -0.263 OA 
HETATM   24  P   UNL     1      -8.279  19.175  67.889  1.00  0.00    -0.309 P  
HETATM   25  O   UNL     1      -8.208  20.600  67.289  1.00  0.00    -0.336 OA 
HETATM   26  O   UNL     1      -9.315  19.583  69.081  1.00  0.00    -0.349 OA 
HETATM   27  O   UNL     1      -6.881  19.321  68.724  1.00  0.00    -0.285 OA 
ENDBRANCH  22  23
ENDBRANCH  14  22
ENDBRANCH   8  13
TORSDOF 3
ENDMDL
MODEL       39
REMARK 921   NORMALIZED FREE ENERGY PREDICTED BY IDOCK:   -6.31 KCAL/MOL
REMARK 922        TOTAL FREE ENERGY PREDICTED BY IDOCK:   -7.88 KCAL/MOL
REMARK 923 INTER-LIGAND FREE ENERGY PREDICTED BY IDOCK:   -8.26 KCAL/MOL
REMARK 924 INTRA-LIGAND FREE ENERGY PREDICTED BY IDOCK:    0.38 KCAL/MOL
REMARK 927      BINDING AFFINITY PREDICTED BY RF-SCORE:    0.00 PKD
ROOT
HETATM    1  N   UNL     1     -13.050  16.065  73.142  1.00  0.00    -0.539 NA 
HETATM    2  C   UNL     1     -12.922  14.916  72.376  1.00  0.00    -0.352 A  
HETATM    3  H1  UNL     1     -13.399  16.057  74.100  1.00  0.00     0.000 HD 
HETATM    4  H2  UNL     1     -13.623  16.723  72.614  1.00  0.00     0.000 HD 
HETATM    5  C   UNL     1     -12.441  14.926  71.056  1.00  0.00    -0.330 A  
HETATM    6  N   UNL     1     -12.021  15.948  70.238  1.00  0.00    -0.343 NA 
HETATM    7  C   UNL     1     -11.735  15.363  69.092  1.00  0.00    -0.345 A  
HETATM    8  N   UNL     1     -11.915  14.001  69.151  1.00  0.00    -0.348 NA 
HETATM    9  N   UNL     1     -13.306  13.737  72.913  1.00  0.00    -0.593 NA 
HETATM   10  C   UNL     1     -12.385  13.704  70.400  1.00  0.00    -0.345 A  
HETATM   11  N   UNL     1     -12.755  12.509  70.890  1.00  0.00    -0.243 NA 
HETATM   12  C   UNL     1     -13.187  12.622  72.164  1.00  0.00    -0.421 A  
ENDROOT
BRANCH   8  13
HETATM   13  C   UNL     1     -11.632  13.112  68.044  1.00  0.00    -0.334 C  
HETATM   14  C   UNL     1      -9.520  13.667  67.208  1.00  0.00    -0.230 C  
HETATM   15  C   UNL     1     -10.519  14.122  66.142  1.00  0.00    -0.296 C  
HETATM   16  O   UNL     1     -12.175  12.415  65.740  1.00  0.00    -0.620 OA 
HETATM   17  O   UNL     1     -10.232  12.779  68.099  1.00  0.00    -0.227 OA 
HETATM   18  C   UNL     1     -11.866  13.551  66.590  1.00  0.00    -0.407 C  
HETATM   19  H   UNL     1     -12.320  12.687  64.841  1.00  0.00     0.000 HD 
HETATM   20  O   UNL     1     -10.120  13.623  64.860  1.00  0.00    -0.543 OA 
HETATM   21  H   UNL     1     -10.740  13.906  64.198  1.00  0.00     0.000 HD 
BRANCH  14  22
HETATM   22  C   UNL     1      -8.949  14.877  67.959  1.00  0.00    -0.172 C  
BRANCH  22  23
HETATM   23  O   UNL     1      -8.254  15.746  67.072  1.00  0.00    -0.185 OA 
HETATM   24  P   UNL     1      -9.183  17.146  66.660  1.00  0.00    -0.276 P  
HETATM   25  O   UNL     1     -10.014  18.398  66.291  1.00  0.00    -0.360 OA 
HETATM   26  O   UNL     1      -8.549  17.800  68.013  1.00  0.00    -0.238 OA 
HETATM   27  O   UNL     1      -7.964  17.497  65.629  1.00  0.00    -0.512 OA 
ENDBRANCH  22  23
ENDBRANCH  14  22
ENDBRANCH   8  13
TORSDOF 3
ENDMDL
MODEL       40
REMARK 921   NORMALIZED FREE ENERGY PREDICTED BY IDOCK:   -6.28 KCAL/MOL
REMARK 922        TOTAL FREE ENERGY PREDICTED BY IDOCK:   -7.85 KCAL/MOL
REMARK 923 INTER-LIGAND FREE ENERGY PREDICTED BY IDOCK:   -7.54 KCAL/MOL
REMARK 924 INTRA-LIGAND FREE ENERGY PREDICTED BY IDOCK:   -0.31 KCAL/MOL
REMARK 927      BINDING AFFINITY PREDICTED BY RF-SCORE:    0.00 PKD
ROOT
HETATM    1  N   UNL     1     -12.414  11.367  62.912  1.00  0.00    -0.863 NA 
HETATM    2  C   UNL     1     -11.550  11.763  63.923  1.00  0.00    -0.377 A  
HETATM    3  H1  UNL     1     -12.404  10.431  62.509  1.00  0.00     0.000 HD 
HETATM    4  H2  UNL     1     -12.311  12.031  62.145  1.00  0.00     0.000 HD 
HETATM    5  C   UNL     1     -11.562  13.053  64.478  1.00  0.00    -0.360 A  
HETATM    6  N   UNL     1     -12.328  14.162  64.210  1.00  0.00    -0.660 NA 
HETATM    7  C   UNL     1     -11.854  15.098  65.008  1.00  0.00    -0.180 A  
HETATM    8  N   UNL     1     -10.840  14.625  65.808  1.00  0.00    -0.311 NA 
HETATM    9  N   UNL     1     -10.634  10.876  64.372  1.00  0.00    -0.339 NA 
HETATM   10  C   UNL     1     -10.627  13.318  65.469  1.00  0.00    -0.287 A  
HETATM   11  N   UNL     1      -9.699  12.472  65.947  1.00  0.00    -0.247 NA 
HETATM   12  C   UNL     1      -9.791  11.265  65.349  1.00  0.00    -0.237 A  
ENDROOT
BRANCH   8  13
HETATM   13  C   UNL     1     -10.171  15.432  66.807  1.00  0.00    -0.271 C  
HETATM   14  C   UNL     1     -10.704  14.552  68.906  1.00  0.00    -0.254 C  
HETATM   15  C   UNL     1     -11.446  15.887  68.818  1.00  0.00    -0.393 C  
HETATM   16  O   UNL     1      -9.999  17.612  67.951  1.00  0.00    -0.295 OA 
HETATM   17  O   UNL     1      -9.718  14.548  67.849  1.00  0.00    -0.211 OA 
HETATM   18  C   UNL     1     -10.911  16.556  67.549  1.00  0.00    -0.237 C  
HETATM   19  H   UNL     1     -10.457  18.307  68.410  1.00  0.00     0.000 HD 
HETATM   20  O   UNL     1     -11.182  16.666  69.990  1.00  0.00    -0.430 OA 
HETATM   21  H   UNL     1     -11.643  17.495  69.936  1.00  0.00     0.000 HD 
BRANCH  14  22
HETATM   22  C   UNL     1     -11.686  13.382  68.762  1.00  0.00    -0.340 C  
BRANCH  22  23
HETATM   23  O   UNL     1     -11.104  12.168  69.220  1.00  0.00    -0.226 OA 
HETATM   24  P   UNL     1     -12.024  11.433  70.488  1.00  0.00    -0.198 P  
HETATM   25  O   UNL     1     -12.847  10.775  71.622  1.00  0.00    -0.421 OA 
HETATM   26  O   UNL     1     -12.871  10.730  69.283  1.00  0.00    -0.150 OA 
HETATM   27  O   UNL     1     -10.800  10.354  70.581  1.00  0.00    -0.249 OA 
ENDBRANCH  22  23
ENDBRANCH  14  22
ENDBRANCH   8  13
TORSDOF 3
ENDMDL
MODEL       41
REMARK 921   NORMALIZED FREE ENERGY PREDICTED BY IDOCK:   -6.23 KCAL/MOL
REMARK 922        TOTAL FREE ENERGY PREDICTED BY IDOCK:   -7.79 KCAL/MOL
REMARK 923 INTER-LIGAND FREE ENERGY PREDICTED BY IDOCK:   -7.07 KCAL/MOL
REMARK 924 INTRA-LIGAND FREE ENERGY PREDICTED BY IDOCK:   -0.73 KCAL/MOL
REMARK 927      BINDING AFFINITY PREDICTED BY RF-SCORE:    0.00 PKD
ROOT
HETATM    1  N   UNL     1      -7.648  20.608  65.511  1.00  0.00    -0.459 NA 
HETATM    2  C   UNL     1      -7.561  19.388  66.166  1.00  0.00    -0.297 A  
HETATM    3  H1  UNL     1      -6.928  20.949  64.874  1.00  0.00     0.000 HD 
HETATM    4  H2  UNL     1      -7.793  21.326  66.220  1.00  0.00     0.000 HD 
HETATM    5  C   UNL     1      -8.553  18.919  67.042  1.00  0.00    -0.289 A  
HETATM    6  N   UNL     1      -9.742  19.464  67.463  1.00  0.00    -0.322 NA 
HETATM    7  C   UNL     1     -10.223  18.593  68.327  1.00  0.00    -0.380 A  
HETATM    8  N   UNL     1      -9.412  17.489  68.450  1.00  0.00    -0.283 NA 
HETATM    9  N   UNL     1      -6.457  18.632  65.975  1.00  0.00    -0.207 NA 
HETATM   10  C   UNL     1      -8.325  17.689  67.645  1.00  0.00    -0.226 A  
HETATM   11  N   UNL     1      -7.247  16.902  67.488  1.00  0.00    -0.143 NA 
HETATM   12  C   UNL     1      -6.372  17.450  66.618  1.00  0.00    -0.214 A  
ENDROOT
BRANCH   8  13
HETATM   13  C   UNL     1      -9.726  16.361  69.300  1.00  0.00    -0.221 C  
HETATM   14  C   UNL     1     -11.065  14.893  68.068  1.00  0.00    -0.295 C  
HETATM   15  C   UNL     1     -11.989  15.508  69.122  1.00  0.00    -0.309 C  
HETATM   16  O   UNL     1     -10.924  15.518  71.287  1.00  0.00    -0.342 OA 
HETATM   17  O   UNL     1      -9.710  15.178  68.479  1.00  0.00    -0.202 OA 
HETATM   18  C   UNL     1     -11.060  16.282  70.060  1.00  0.00    -0.348 C  
HETATM   19  H   UNL     1     -11.748  15.470  71.756  1.00  0.00     0.000 HD 
HETATM   20  O   UNL     1     -12.702  14.470  69.805  1.00  0.00    -0.555 OA 
HETATM   21  H   UNL     1     -13.275  14.852  70.459  1.00  0.00     0.000 HD 
BRANCH  14  22
HETATM   22  C   UNL     1     -11.368  15.480  66.682  1.00  0.00    -0.034 C  
BRANCH  22  23
HETATM   23  O   UNL     1     -11.082  14.538  65.656  1.00  0.00    -0.309 OA 
HETATM   24  P   UNL     1     -11.472  12.918  66.122  1.00  0.00    -0.389 P  
HETATM   25  O   UNL     1     -11.820  11.469  66.539  1.00  0.00    -0.434 OA 
HETATM   26  O   UNL     1     -12.969  13.263  65.573  1.00  0.00    -0.526 OA 
HETATM   27  O   UNL     1     -10.792  12.479  64.701  1.00  0.00    -0.283 OA 
ENDBRANCH  22  23
ENDBRANCH  14  22
ENDBRANCH   8  13
TORSDOF 3
ENDMDL
MODEL       42
REMARK 921   NORMALIZED FREE ENERGY PREDICTED BY IDOCK:   -6.22 KCAL/MOL
REMARK 922        TOTAL FREE ENERGY PREDICTED BY IDOCK:   -7.79 KCAL/MOL
REMARK 923 INTER-LIGAND FREE ENERGY PREDICTED BY IDOCK:   -7.03 KCAL/MOL
REMARK 924 INTRA-LIGAND FREE ENERGY PREDICTED BY IDOCK:   -0.75 KCAL/MOL
REMARK 927      BINDING AFFINITY PREDICTED BY RF-SCORE:    0.00 PKD
ROOT
HETATM    1  N   UNL     1     -11.645  14.775  71.958  1.00  0.00    -0.412 NA 
HETATM    2  C   UNL     1     -11.699  14.809  70.572  1.00  0.00    -0.293 A  
HETATM    3  H1  UNL     1     -11.583  15.615  72.532  1.00  0.00     0.000 HD 
HETATM    4  H2  UNL     1     -10.865  14.170  72.218  1.00  0.00     0.000 HD 
HETATM    5  C   UNL     1     -11.784  13.652  69.781  1.00  0.00    -0.297 A  
HETATM    6  N   UNL     1     -11.820  12.317  70.105  1.00  0.00    -0.312 NA 
HETATM    7  C   UNL     1     -11.846  11.691  68.945  1.00  0.00    -0.329 A  
HETATM    8  N   UNL     1     -11.868  12.570  67.888  1.00  0.00    -0.360 NA 
HETATM    9  N   UNL     1     -11.638  16.010  69.955  1.00  0.00    -0.320 NA 
HETATM   10  C   UNL     1     -11.811  13.834  68.405  1.00  0.00    -0.376 A  
HETATM   11  N   UNL     1     -11.752  15.004  67.746  1.00  0.00    -0.324 NA 
HETATM   12  C   UNL     1     -11.685  16.041  68.608  1.00  0.00    -0.270 A  
ENDROOT
BRANCH   8  13
HETATM   13  C   UNL     1     -11.940  12.150  66.504  1.00  0.00    -0.117 C  
HETATM   14  C   UNL     1      -9.751  11.923  65.715  1.00  0.00    -0.237 C  
HETATM   15  C   UNL     1     -10.318  13.159  65.012  1.00  0.00    -0.330 C  
HETATM   16  O   UNL     1     -12.539  12.722  64.180  1.00  0.00    -0.609 OA 
HETATM   17  O   UNL     1     -10.873  11.209  66.279  1.00  0.00    -0.263 OA 
HETATM   18  C   UNL     1     -11.809  13.161  65.355  1.00  0.00    -0.372 C  
HETATM   19  H   UNL     1     -12.459  13.348  63.470  1.00  0.00     0.000 HD 
HETATM   20  O   UNL     1     -10.089  13.060  63.601  1.00  0.00    -0.699 OA 
HETATM   21  H   UNL     1     -10.440  13.827  63.165  1.00  0.00     0.000 HD 
BRANCH  14  22
HETATM   22  C   UNL     1      -8.746  12.337  66.798  1.00  0.00    -0.175 C  
BRANCH  22  23
HETATM   23  O   UNL     1      -8.550  13.746  66.801  1.00  0.00    -0.160 OA 
HETATM   24  P   UNL     1      -7.766  14.299  68.241  1.00  0.00    -0.163 P  
HETATM   25  O   UNL     1      -7.065  14.794  69.529  1.00  0.00    -0.160 OA 
HETATM   26  O   UNL     1      -6.377  13.972  67.450  1.00  0.00    -0.323 OA 
HETATM   27  O   UNL     1      -8.027  15.803  67.656  1.00  0.00    -0.132 OA 
ENDBRANCH  22  23
ENDBRANCH  14  22
ENDBRANCH   8  13
TORSDOF 3
ENDMDL
MODEL       43
REMARK 921   NORMALIZED FREE ENERGY PREDICTED BY IDOCK:   -6.20 KCAL/MOL
REMARK 922        TOTAL FREE ENERGY PREDICTED BY IDOCK:   -7.75 KCAL/MOL
REMARK 923 INTER-LIGAND FREE ENERGY PREDICTED BY IDOCK:   -7.19 KCAL/MOL
REMARK 924 INTRA-LIGAND FREE ENERGY PREDICTED BY IDOCK:   -0.56 KCAL/MOL
REMARK 927      BINDING AFFINITY PREDICTED BY RF-SCORE:    0.00 PKD
ROOT
HETATM    1  N   UNL     1     -11.136   8.411  67.826  1.00  0.00    -0.388 NA 
HETATM    2  C   UNL     1     -10.332   9.526  67.644  1.00  0.00    -0.244 A  
HETATM    3  H1  UNL     1     -10.869   7.477  67.516  1.00  0.00     0.000 HD 
HETATM    4  H2  UNL     1     -12.047   8.620  67.416  1.00  0.00     0.000 HD 
HETATM    5  C   UNL     1     -10.700  10.812  68.071  1.00  0.00    -0.228 A  
HETATM    6  N   UNL     1     -11.825  11.284  68.704  1.00  0.00    -0.469 NA 
HETATM    7  C   UNL     1     -11.633  12.585  68.803  1.00  0.00    -0.322 A  
HETATM    8  N   UNL     1     -10.413  12.964  68.295  1.00  0.00    -0.236 NA 
HETATM    9  N   UNL     1      -9.155   9.374  66.998  1.00  0.00    -0.133 NA 
HETATM   10  C   UNL     1      -9.807  11.841  67.805  1.00  0.00    -0.181 A  
HETATM   11  N   UNL     1      -8.629  11.739  67.167  1.00  0.00    -0.161 NA 
HETATM   12  C   UNL     1      -8.378  10.460  66.816  1.00  0.00    -0.126 A  
ENDROOT
BRANCH   8  13
HETATM   13  C   UNL     1      -9.932  14.329  68.316  1.00  0.00    -0.239 C  
HETATM   14  C   UNL     1     -11.004  15.487  66.591  1.00  0.00    -0.248 C  
HETATM   15  C   UNL     1      -9.547  15.342  66.147  1.00  0.00    -0.321 C  
HETATM   16  O   UNL     1      -8.046  15.880  67.957  1.00  0.00    -0.138 OA 
HETATM   17  O   UNL     1     -11.045  15.188  68.004  1.00  0.00    -0.284 OA 
HETATM   18  C   UNL     1      -8.812  14.794  67.372  1.00  0.00    -0.193 C  
HETATM   19  H   UNL     1      -7.353  16.167  67.374  1.00  0.00     0.000 HD 
HETATM   20  O   UNL     1      -9.037  16.616  65.736  1.00  0.00    -0.503 OA 
HETATM   21  H   UNL     1      -8.132  16.526  65.460  1.00  0.00     0.000 HD 
BRANCH  14  22
HETATM   22  C   UNL     1     -11.906  14.539  65.789  1.00  0.00    -0.327 C  
BRANCH  22  23
HETATM   23  O   UNL     1     -11.157  13.833  64.806  1.00  0.00    -0.342 OA 
HETATM   24  P   UNL     1     -12.117  12.670  63.957  1.00  0.00    -0.518 P  
HETATM   25  O   UNL     1     -12.975  11.630  63.197  1.00  0.00    -0.477 OA 
HETATM   26  O   UNL     1     -12.503  13.910  62.968  1.00  0.00    -0.689 OA 
HETATM   27  O   UNL     1     -10.717  12.222  63.243  1.00  0.00    -0.427 OA 
ENDBRANCH  22  23
ENDBRANCH  14  22
ENDBRANCH   8  13
TORSDOF 3
ENDMDL
MODEL       44
REMARK 921   NORMALIZED FREE ENERGY PREDICTED BY IDOCK:   -6.20 KCAL/MOL
REMARK 922        TOTAL FREE ENERGY PREDICTED BY IDOCK:   -7.75 KCAL/MOL
REMARK 923 INTER-LIGAND FREE ENERGY PREDICTED BY IDOCK:   -7.51 KCAL/MOL
REMARK 924 INTRA-LIGAND FREE ENERGY PREDICTED BY IDOCK:   -0.24 KCAL/MOL
REMARK 927      BINDING AFFINITY PREDICTED BY RF-SCORE:    0.00 PKD
ROOT
HETATM    1  N   UNL     1     -12.915   9.788  70.833  1.00  0.00    -0.538 NA 
HETATM    2  C   UNL     1     -12.027  10.532  70.070  1.00  0.00    -0.288 A  
HETATM    3  H1  UNL     1     -12.958   8.770  70.799  1.00  0.00     0.000 HD 
HETATM    4  H2  UNL     1     -13.853  10.140  70.641  1.00  0.00     0.000 HD 
HETATM    5  C   UNL     1     -11.967  11.934  70.117  1.00  0.00    -0.332 A  
HETATM    6  N   UNL     1     -12.686  12.863  70.831  1.00  0.00    -0.259 NA 
HETATM    7  C   UNL     1     -12.225  14.029  70.425  1.00  0.00    -0.363 A  
HETATM    8  N   UNL     1     -11.211  13.888  69.506  1.00  0.00    -0.221 NA 
HETATM    9  N   UNL     1     -11.203   9.879  69.220  1.00  0.00    -0.178 NA 
HETATM   10  C   UNL     1     -11.043  12.551  69.283  1.00  0.00    -0.142 A  
HETATM   11  N   UNL     1     -10.206  11.946  68.424  1.00  0.00    -0.201 NA 
HETATM   12  C   UNL     1     -10.346  10.604  68.475  1.00  0.00    -0.183 A  
ENDROOT
BRANCH   8  13
HETATM   13  C   UNL     1     -10.500  15.009  68.929  1.00  0.00    -0.241 C  
HETATM   14  C   UNL     1     -11.266  15.285  66.737  1.00  0.00    -0.241 C  
HETATM   15  C   UNL     1      -9.836  14.753  66.611  1.00  0.00    -0.259 C  
HETATM   16  O   UNL     1      -8.356  15.921  68.115  1.00  0.00    -0.157 OA 
HETATM   17  O   UNL     1     -11.428  15.735  68.101  1.00  0.00    -0.352 OA 
HETATM   18  C   UNL     1      -9.270  14.797  68.032  1.00  0.00    -0.194 C  
HETATM   19  H   UNL     1      -7.596  15.790  67.561  1.00  0.00     0.000 HD 
HETATM   20  O   UNL     1      -9.092  15.578  65.708  1.00  0.00    -0.368 OA 
HETATM   21  H   UNL     1      -8.204  15.247  65.629  1.00  0.00     0.000 HD 
BRANCH  14  22
HETATM   22  C   UNL     1     -12.279  14.188  66.383  1.00  0.00    -0.446 C  
BRANCH  22  23
HETATM   23  O   UNL     1     -12.682  14.287  65.022  1.00  0.00    -0.625 OA 
HETATM   24  P   UNL     1     -11.978  13.052  64.035  1.00  0.00    -0.495 P  
HETATM   25  O   UNL     1     -11.348  11.948  63.152  1.00  0.00    -0.293 OA 
HETATM   26  O   UNL     1     -13.257  12.147  64.489  1.00  0.00    -0.724 OA 
HETATM   27  O   UNL     1     -12.672  13.835  62.779  1.00  0.00    -0.407 OA 
ENDBRANCH  22  23
ENDBRANCH  14  22
ENDBRANCH   8  13
TORSDOF 3
ENDMDL
MODEL       45
REMARK 921   NORMALIZED FREE ENERGY PREDICTED BY IDOCK:   -6.13 KCAL/MOL
REMARK 922        TOTAL FREE ENERGY PREDICTED BY IDOCK:   -7.67 KCAL/MOL
REMARK 923 INTER-LIGAND FREE ENERGY PREDICTED BY IDOCK:   -7.06 KCAL/MOL
REMARK 924 INTRA-LIGAND FREE ENERGY PREDICTED BY IDOCK:   -0.61 KCAL/MOL
REMARK 927      BINDING AFFINITY PREDICTED BY RF-SCORE:    0.00 PKD
ROOT
HETATM    1  N   UNL     1     -10.503  10.949  65.543  1.00  0.00    -0.247 NA 
HETATM    2  C   UNL     1      -9.728  11.954  66.103  1.00  0.00    -0.232 A  
HETATM    3  H1  UNL     1     -10.302   9.957  65.670  1.00  0.00     0.000 HD 
HETATM    4  H2  UNL     1     -10.552  11.124  64.539  1.00  0.00     0.000 HD 
HETATM    5  C   UNL     1     -10.004  13.319  65.929  1.00  0.00    -0.272 A  
HETATM    6  N   UNL     1     -10.990  13.977  65.232  1.00  0.00    -0.318 NA 
HETATM    7  C   UNL     1     -10.712  15.256  65.386  1.00  0.00    -0.391 A  
HETATM    8  N   UNL     1      -9.610  15.451  66.186  1.00  0.00    -0.304 NA 
HETATM    9  N   UNL     1      -8.640  11.603  66.824  1.00  0.00    -0.177 NA 
HETATM   10  C   UNL     1      -9.133  14.217  66.530  1.00  0.00    -0.185 A  
HETATM   11  N   UNL     1      -8.041  13.917  67.254  1.00  0.00    -0.171 NA 
HETATM   12  C   UNL     1      -7.885  12.581  67.362  1.00  0.00    -0.175 A  
ENDROOT
BRANCH   8  13
HETATM   13  C   UNL     1      -9.113  16.760  66.551  1.00  0.00    -0.273 C  
HETATM   14  C   UNL     1     -10.159  17.386  68.546  1.00  0.00    -0.352 C  
HETATM   15  C   UNL     1     -10.756  18.291  67.466  1.00  0.00    -0.355 C  
HETATM   16  O   UNL     1      -9.022  19.172  66.039  1.00  0.00    -0.447 OA 
HETATM   17  O   UNL     1      -8.970  16.787  67.984  1.00  0.00    -0.209 OA 
HETATM   18  C   UNL     1      -9.905  18.035  66.220  1.00  0.00    -0.307 C  
HETATM   19  H   UNL     1      -9.511  19.960  65.834  1.00  0.00     0.000 HD 
HETATM   20  O   UNL     1     -10.693  19.658  67.890  1.00  0.00    -0.408 OA 
HETATM   21  H   UNL     1     -11.063  20.220  67.220  1.00  0.00     0.000 HD 
BRANCH  14  22
HETATM   22  C   UNL     1     -11.177  16.320  68.975  1.00  0.00    -0.326 C  
BRANCH  22  23
HETATM   23  O   UNL     1     -10.932  15.888  70.307  1.00  0.00    -0.315 OA 
HETATM   24  P   UNL     1     -12.377  15.372  71.108  1.00  0.00    -0.468 P  
HETATM   25  O   UNL     1     -13.669  14.911  71.824  1.00  0.00    -0.362 OA 
HETATM   26  O   UNL     1     -12.070  13.917  70.436  1.00  0.00    -0.315 OA 
HETATM   27  O   UNL     1     -11.438  15.224  72.438  1.00  0.00    -0.454 OA 
ENDBRANCH  22  23
ENDBRANCH  14  22
ENDBRANCH   8  13
TORSDOF 3
ENDMDL
MODEL       46
REMARK 921   NORMALIZED FREE ENERGY PREDICTED BY IDOCK:   -6.12 KCAL/MOL
REMARK 922        TOTAL FREE ENERGY PREDICTED BY IDOCK:   -7.67 KCAL/MOL
REMARK 923 INTER-LIGAND FREE ENERGY PREDICTED BY IDOCK:   -7.11 KCAL/MOL
REMARK 924 INTRA-LIGAND FREE ENERGY PREDICTED BY IDOCK:   -0.55 KCAL/MOL
REMARK 927      BINDING AFFINITY PREDICTED BY RF-SCORE:    0.00 PKD
ROOT
HETATM    1  N   UNL     1     -10.721  15.334  71.331  1.00  0.00    -0.393 NA 
HETATM    2  C   UNL     1     -10.184  15.094  70.075  1.00  0.00    -0.127 A  
HETATM    3  H1  UNL     1     -10.232  15.863  72.053  1.00  0.00     0.000 HD 
HETATM    4  H2  UNL     1     -10.972  14.430  71.734  1.00  0.00     0.000 HD 
HETATM    5  C   UNL     1     -10.856  14.365  69.082  1.00  0.00    -0.257 A  
HETATM    6  N   UNL     1     -12.083  13.743  69.068  1.00  0.00    -0.350 NA 
HETATM    7  C   UNL     1     -12.156  13.173  67.882  1.00  0.00    -0.202 A  
HETATM    8  N   UNL     1     -11.044  13.434  67.117  1.00  0.00    -0.280 NA 
HETATM    9  N   UNL     1      -8.943  15.558  69.806  1.00  0.00    -0.164 NA 
HETATM   10  C   UNL     1     -10.191  14.184  67.877  1.00  0.00    -0.235 A  
HETATM   11  N   UNL     1      -8.961  14.624  67.563  1.00  0.00    -0.182 NA 
HETATM   12  C   UNL     1      -8.420  15.319  68.587  1.00  0.00    -0.168 A  
ENDROOT
BRANCH   8  13
HETATM   13  C   UNL     1     -10.885  12.963  65.757  1.00  0.00    -0.269 C  
HETATM   14  C   UNL     1     -11.047  14.816  64.340  1.00  0.00    -0.118 C  
HETATM   15  C   UNL     1     -12.325  14.006  64.108  1.00  0.00    -0.332 C  
HETATM   16  O   UNL     1     -11.817  11.659  63.881  1.00  0.00    -0.362 OA 
HETATM   17  O   UNL     1     -10.123  13.953  65.040  1.00  0.00    -0.356 OA 
HETATM   18  C   UNL     1     -12.103  12.692  64.860  1.00  0.00    -0.438 C  
HETATM   19  H   UNL     1     -12.571  11.491  63.327  1.00  0.00     0.000 HD 
HETATM   20  O   UNL     1     -12.518  13.799  62.704  1.00  0.00    -0.718 OA 
HETATM   21  H   UNL     1     -13.311  13.296  62.560  1.00  0.00     0.000 HD 
BRANCH  14  22
HETATM   22  C   UNL     1     -11.355  16.084  65.149  1.00  0.00    -0.074 C  
BRANCH  22  23
HETATM   23  O   UNL     1     -10.163  16.804  65.442  1.00  0.00    -0.599 OA 
HETATM   24  P   UNL     1     -10.487  18.377  66.084  1.00  0.00    -0.162 P  
HETATM   25  O   UNL     1     -10.776  19.785  66.659  1.00  0.00    -0.473 OA 
HETATM   26  O   UNL     1     -10.549  17.627  67.531  1.00  0.00    -0.366 OA 
HETATM   27  O   UNL     1      -8.870  18.606  66.003  1.00  0.00    -0.489 OA 
ENDBRANCH  22  23
ENDBRANCH  14  22
ENDBRANCH   8  13
TORSDOF 3
ENDMDL
MODEL       47
REMARK 921   NORMALIZED FREE ENERGY PREDICTED BY IDOCK:   -6.12 KCAL/MOL
REMARK 922        TOTAL FREE ENERGY PREDICTED BY IDOCK:   -7.66 KCAL/MOL
REMARK 923 INTER-LIGAND FREE ENERGY PREDICTED BY IDOCK:   -7.59 KCAL/MOL
REMARK 924 INTRA-LIGAND FREE ENERGY PREDICTED BY IDOCK:   -0.07 KCAL/MOL
REMARK 927      BINDING AFFINITY PREDICTED BY RF-SCORE:    0.00 PKD
ROOT
HETATM    1  N   UNL     1     -14.159   9.088  72.814  1.00  0.00    -1.035 NA 
HETATM    2  C   UNL     1     -13.164   8.617  71.971  1.00  0.00    -0.386 A  
HETATM    3  H1  UNL     1     -14.748   8.473  73.376  1.00  0.00     0.000 HD 
HETATM    4  H2  UNL     1     -14.778   9.677  72.257  1.00  0.00     0.000 HD 
HETATM    5  C   UNL     1     -12.354   9.462  71.197  1.00  0.00    -0.308 A  
HETATM    6  N   UNL     1     -12.320  10.829  71.057  1.00  0.00    -0.378 NA 
HETATM    7  C   UNL     1     -11.387  11.051  70.153  1.00  0.00    -0.251 A  
HETATM    8  N   UNL     1     -10.790   9.885  69.734  1.00  0.00    -0.252 NA 
HETATM    9  N   UNL     1     -12.987   7.280  71.866  1.00  0.00    -0.289 NA 
HETATM   10  C   UNL     1     -11.410   8.853  70.381  1.00  0.00    -0.202 A  
HETATM   11  N   UNL     1     -11.197   7.533  70.243  1.00  0.00    -0.263 NA 
HETATM   12  C   UNL     1     -12.024   6.825  71.041  1.00  0.00    -0.379 A  
ENDROOT
BRANCH   8  13
HETATM   13  C   UNL     1      -9.705   9.846  68.777  1.00  0.00    -0.160 C  
HETATM   14  C   UNL     1     -10.348  11.115  66.921  1.00  0.00    -0.231 C  
HETATM   15  C   UNL     1     -10.361   9.659  66.450  1.00  0.00    -0.176 C  
HETATM   16  O   UNL     1      -8.375   8.506  67.188  1.00  0.00    -0.110 OA 
HETATM   17  O   UNL     1      -9.615  11.148  68.167  1.00  0.00    -0.167 OA 
HETATM   18  C   UNL     1      -9.721   8.867  67.593  1.00  0.00    -0.161 C  
HETATM   19  H   UNL     1      -8.385   7.901  66.456  1.00  0.00     0.000 HD 
HETATM   20  O   UNL     1      -9.621   9.539  65.230  1.00  0.00    -0.319 OA 
HETATM   21  H   UNL     1      -9.629   8.635  64.937  1.00  0.00     0.000 HD 
BRANCH  14  22
HETATM   22  C   UNL     1     -11.781  11.634  67.098  1.00  0.00    -0.133 C  
BRANCH  22  23
HETATM   23  O   UNL     1     -11.912  12.954  66.585  1.00  0.00    -0.397 OA 
HETATM   24  P   UNL     1     -11.731  13.012  64.865  1.00  0.00    -0.393 P  
HETATM   25  O   UNL     1     -11.569  13.065  63.326  1.00  0.00    -0.446 OA 
HETATM   26  O   UNL     1     -13.330  12.691  64.820  1.00  0.00    -0.787 OA 
HETATM   27  O   UNL     1     -11.818  14.636  65.036  1.00  0.00    -0.371 OA 
ENDBRANCH  22  23
ENDBRANCH  14  22
ENDBRANCH   8  13
TORSDOF 3
ENDMDL
MODEL       48
REMARK 921   NORMALIZED FREE ENERGY PREDICTED BY IDOCK:   -6.10 KCAL/MOL
REMARK 922        TOTAL FREE ENERGY PREDICTED BY IDOCK:   -7.64 KCAL/MOL
REMARK 923 INTER-LIGAND FREE ENERGY PREDICTED BY IDOCK:   -7.11 KCAL/MOL
REMARK 924 INTRA-LIGAND FREE ENERGY PREDICTED BY IDOCK:   -0.53 KCAL/MOL
REMARK 927      BINDING AFFINITY PREDICTED BY RF-SCORE:    0.00 PKD
ROOT
HETATM    1  N   UNL     1      -9.787  12.440  63.612  1.00  0.00    -0.658 NA 
HETATM    2  C   UNL     1     -10.367  12.604  64.861  1.00  0.00    -0.308 A  
HETATM    3  H1  UNL     1      -9.628  11.526  63.189  1.00  0.00     0.000 HD 
HETATM    4  H2  UNL     1      -8.892  12.930  63.624  1.00  0.00     0.000 HD 
HETATM    5  C   UNL     1     -10.585  13.863  65.443  1.00  0.00    -0.335 A  
HETATM    6  N   UNL     1     -10.313  15.138  65.008  1.00  0.00    -0.378 NA 
HETATM    7  C   UNL     1     -10.690  15.919  66.000  1.00  0.00    -0.284 A  
HETATM    8  N   UNL     1     -11.232  15.202  67.041  1.00  0.00    -0.331 NA 
HETATM    9  N   UNL     1     -10.709  11.501  65.562  1.00  0.00    -0.278 NA 
HETATM   10  C   UNL     1     -11.157  13.878  66.708  1.00  0.00    -0.303 A  
HETATM   11  N   UNL     1     -11.513  12.811  67.444  1.00  0.00    -0.319 NA 
HETATM   12  C   UNL     1     -11.267  11.662  66.779  1.00  0.00    -0.308 A  
ENDROOT
BRANCH   8  13
HETATM   13  C   UNL     1     -11.765  15.816  68.239  1.00  0.00    -0.222 C  
HETATM   14  C   UNL     1      -9.985  16.151  69.718  1.00  0.00    -0.115 C  
HETATM   15  C   UNL     1     -10.826  15.029  70.331  1.00  0.00    -0.149 C  
HETATM   16  O   UNL     1     -13.173  15.582  70.251  1.00  0.00    -0.699 OA 
HETATM   17  O   UNL     1     -10.798  16.779  68.701  1.00  0.00    -0.336 OA 
HETATM   18  C   UNL     1     -12.099  14.979  69.483  1.00  0.00    -0.276 C  
HETATM   19  H   UNL     1     -13.380  15.064  71.021  1.00  0.00     0.000 HD 
HETATM   20  O   UNL     1     -11.104  15.328  71.704  1.00  0.00    -0.490 OA 
HETATM   21  H   UNL     1     -11.626  14.632  72.085  1.00  0.00     0.000 HD 
BRANCH  14  22
HETATM   22  C   UNL     1      -8.686  15.585  69.129  1.00  0.00    -0.247 C  
BRANCH  22  23
HETATM   23  O   UNL     1      -7.628  16.532  69.225  1.00  0.00    -0.233 OA 
HETATM   24  P   UNL     1      -6.705  16.639  67.765  1.00  0.00    -0.162 P  
HETATM   25  O   UNL     1      -5.880  16.734  66.459  1.00  0.00    -0.319 OA 
HETATM   26  O   UNL     1      -7.822  17.732  67.298  1.00  0.00    -0.205 OA 
HETATM   27  O   UNL     1      -5.725  17.641  68.605  1.00  0.00    -0.158 OA 
ENDBRANCH  22  23
ENDBRANCH  14  22
ENDBRANCH   8  13
TORSDOF 3
ENDMDL
MODEL       49
REMARK 921   NORMALIZED FREE ENERGY PREDICTED BY IDOCK:   -6.09 KCAL/MOL
REMARK 922        TOTAL FREE ENERGY PREDICTED BY IDOCK:   -7.63 KCAL/MOL
REMARK 923 INTER-LIGAND FREE ENERGY PREDICTED BY IDOCK:   -6.97 KCAL/MOL
REMARK 924 INTRA-LIGAND FREE ENERGY PREDICTED BY IDOCK:   -0.65 KCAL/MOL
REMARK 927      BINDING AFFINITY PREDICTED BY RF-SCORE:    0.00 PKD
ROOT
HETATM    1  N   UNL     1     -10.940  20.364  68.944  1.00  0.00     0.193 NA 
HETATM    2  C   UNL     1     -10.200  19.659  68.006  1.00  0.00    -0.457 A  
HETATM    3  H1  UNL     1     -11.177  21.350  68.837  1.00  0.00     0.000 HD 
HETATM    4  H2  UNL     1     -10.472  20.259  69.844  1.00  0.00     0.000 HD 
HETATM    5  C   UNL     1      -9.874  18.301  68.154  1.00  0.00    -0.341 A  
HETATM    6  N   UNL     1     -10.146  17.392  69.148  1.00  0.00    -0.283 NA 
HETATM    7  C   UNL     1      -9.540  16.286  68.767  1.00  0.00    -0.242 A  
HETATM    8  N   UNL     1      -8.920  16.434  67.548  1.00  0.00    -0.191 NA 
HETATM    9  N   UNL     1      -9.746  20.317  66.916  1.00  0.00    -0.432 NA 
HETATM   10  C   UNL     1      -9.110  17.727  67.147  1.00  0.00    -0.246 A  
HETATM   11  N   UNL     1      -8.636  18.338  66.048  1.00  0.00    -0.507 NA 
HETATM   12  C   UNL     1      -9.022  19.631  66.009  1.00  0.00    -0.243 A  
ENDROOT
BRANCH   8  13
HETATM   13  C   UNL     1      -8.216  15.361  66.878  1.00  0.00    -0.246 C  
HETATM   14  C   UNL     1      -9.817  13.917  65.973  1.00  0.00    -0.289 C  
HETATM   15  C   UNL     1      -9.178  13.151  67.134  1.00  0.00    -0.227 C  
HETATM   16  O   UNL     1      -6.776  13.368  67.080  1.00  0.00    -0.438 OA 
HETATM   17  O   UNL     1      -8.952  15.038  65.683  1.00  0.00     0.094 OA 
HETATM   18  C   UNL     1      -7.985  14.007  67.566  1.00  0.00    -0.187 C  
HETATM   19  H   UNL     1      -6.634  12.530  67.506  1.00  0.00     0.000 HD 
HETATM   20  O   UNL     1      -8.776  11.849  66.691  1.00  0.00    -0.192 OA 
HETATM   21  H   UNL     1      -8.380  11.373  67.412  1.00  0.00     0.000 HD 
BRANCH  14  22
HETATM   22  C   UNL     1     -11.230  14.381  66.351  1.00  0.00    -0.345 C  
BRANCH  22  23
HETATM   23  O   UNL     1     -12.032  14.570  65.190  1.00  0.00    -0.369 OA 
HETATM   24  P   UNL     1     -11.908  13.247  64.082  1.00  0.00    -0.464 P  
HETATM   25  O   UNL     1     -11.798  12.063  63.091  1.00  0.00    -0.355 OA 
HETATM   26  O   UNL     1     -13.104  12.573  64.963  1.00  0.00    -0.765 OA 
HETATM   27  O   UNL     1     -12.829  14.159  63.086  1.00  0.00    -0.440 OA 
ENDBRANCH  22  23
ENDBRANCH  14  22
ENDBRANCH   8  13
TORSDOF 3
ENDMDL
MODEL       50
REMARK 921   NORMALIZED FREE ENERGY PREDICTED BY IDOCK:   -6.08 KCAL/MOL
REMARK 922        TOTAL FREE ENERGY PREDICTED BY IDOCK:   -7.61 KCAL/MOL
REMARK 923 INTER-LIGAND FREE ENERGY PREDICTED BY IDOCK:   -7.40 KCAL/MOL
REMARK 924 INTRA-LIGAND FREE ENERGY PREDICTED BY IDOCK:   -0.21 KCAL/MOL
REMARK 927      BINDING AFFINITY PREDICTED BY RF-SCORE:    0.00 PKD
ROOT
HETATM    1  N   UNL     1     -10.678  15.482  71.130  1.00  0.00    -0.304 NA 
HETATM    2  C   UNL     1     -10.874  15.590  69.761  1.00  0.00    -0.296 A  
HETATM    3  H1  UNL     1     -10.326  16.248  71.703  1.00  0.00     0.000 HD 
HETATM    4  H2  UNL     1     -10.072  14.677  71.290  1.00  0.00     0.000 HD 
HETATM    5  C   UNL     1     -11.359  14.535  68.972  1.00  0.00    -0.272 A  
HETATM    6  N   UNL     1     -11.726  13.247  69.283  1.00  0.00    -0.308 NA 
HETATM    7  C   UNL     1     -12.050  12.702  68.127  1.00  0.00    -0.075 A  
HETATM    8  N   UNL     1     -11.945  13.599  67.089  1.00  0.00    -0.396 NA 
HETATM    9  N   UNL     1     -10.553  16.754  69.154  1.00  0.00    -0.335 NA 
HETATM   10  C   UNL     1     -11.487  14.776  67.611  1.00  0.00    -0.347 A  
HETATM   11  N   UNL     1     -11.181  15.913  66.963  1.00  0.00    -0.114 NA 
HETATM   12  C   UNL     1     -10.738  16.855  67.823  1.00  0.00    -0.315 A  
ENDROOT
BRANCH   8  13
HETATM   13  C   UNL     1     -12.282  13.274  65.720  1.00  0.00    -0.456 C  
HETATM   14  C   UNL     1     -10.862  11.550  65.029  1.00  0.00    -0.274 C  
HETATM   15  C   UNL     1     -10.406  12.793  64.261  1.00  0.00    -0.377 C  
HETATM   16  O   UNL     1     -12.302  13.978  63.355  1.00  0.00    -1.099 OA 
HETATM   17  O   UNL     1     -12.169  11.846  65.571  1.00  0.00    -0.399 OA 
HETATM   18  C   UNL     1     -11.478  13.848  64.543  1.00  0.00    -0.381 C  
HETATM   19  H   UNL     1     -11.804  14.333  62.627  1.00  0.00     0.000 HD 
HETATM   20  O   UNL     1     -10.302  12.488  62.865  1.00  0.00    -0.437 OA 
HETATM   21  H   UNL     1     -10.019  13.260  62.389  1.00  0.00     0.000 HD 
BRANCH  14  22
HETATM   22  C   UNL     1      -9.858  11.206  66.137  1.00  0.00    -0.225 C  
BRANCH  22  23
HETATM   23  O   UNL     1     -10.301  10.089  66.898  1.00  0.00    -0.225 OA 
HETATM   24  P   UNL     1      -9.621   8.599  66.337  1.00  0.00    -0.236 P  
HETATM   25  O   UNL     1      -9.013   7.268  65.835  1.00  0.00    -0.147 OA 
HETATM   26  O   UNL     1      -8.374   8.951  67.328  1.00  0.00    -0.104 OA 
HETATM   27  O   UNL     1     -10.602   7.884  67.431  1.00  0.00    -0.279 OA 
ENDBRANCH  22  23
ENDBRANCH  14  22
ENDBRANCH   8  13
TORSDOF 3
ENDMDL
MODEL       51
REMARK 921   NORMALIZED FREE ENERGY PREDICTED BY IDOCK:   -6.05 KCAL/MOL
REMARK 922        TOTAL FREE ENERGY PREDICTED BY IDOCK:   -7.58 KCAL/MOL
REMARK 923 INTER-LIGAND FREE ENERGY PREDICTED BY IDOCK:   -7.03 KCAL/MOL
REMARK 924 INTRA-LIGAND FREE ENERGY PREDICTED BY IDOCK:   -0.55 KCAL/MOL
REMARK 927      BINDING AFFINITY PREDICTED BY RF-SCORE:    0.00 PKD
ROOT
HETATM    1  N   UNL     1     -10.904  17.309  68.429  1.00  0.00    -0.325 NA 
HETATM    2  C   UNL     1     -11.052  15.968  68.751  1.00  0.00    -0.338 A  
HETATM    3  H1  UNL     1     -11.552  18.030  68.744  1.00  0.00     0.000 HD 
HETATM    4  H2  UNL     1     -10.847  17.374  67.412  1.00  0.00     0.000 HD 
HETATM    5  C   UNL     1     -10.160  14.974  68.317  1.00  0.00    -0.222 A  
HETATM    6  N   UNL     1      -9.032  15.029  67.534  1.00  0.00    -0.177 NA 
HETATM    7  C   UNL     1      -8.641  13.776  67.420  1.00  0.00    -0.203 A  
HETATM    8  N   UNL     1      -9.450  12.919  68.130  1.00  0.00    -0.216 NA 
HETATM    9  N   UNL     1     -12.119  15.597  69.493  1.00  0.00    -0.340 NA 
HETATM   10  C   UNL     1     -10.441  13.669  68.698  1.00  0.00    -0.234 A  
HETATM   11  N   UNL     1     -11.486  13.252  69.433  1.00  0.00    -0.273 NA 
HETATM   12  C   UNL     1     -12.264  14.293  69.801  1.00  0.00    -0.339 A  
ENDROOT
BRANCH   8  13
HETATM   13  C   UNL     1      -9.221  11.492  68.210  1.00  0.00    -0.186 C  
HETATM   14  C   UNL     1      -9.753  10.568  66.130  1.00  0.00    -0.209 C  
HETATM   15  C   UNL     1     -10.855  10.100  67.084  1.00  0.00    -0.189 C  
HETATM   16  O   UNL     1      -9.908   9.321  69.162  1.00  0.00    -0.159 OA 
HETATM   17  O   UNL     1      -8.672  11.067  66.948  1.00  0.00    -0.141 OA 
HETATM   18  C   UNL     1     -10.375  10.513  68.477  1.00  0.00    -0.179 C  
HETATM   19  H   UNL     1     -10.622   8.716  69.326  1.00  0.00     0.000 HD 
HETATM   20  O   UNL     1     -11.022   8.682  66.969  1.00  0.00    -0.332 OA 
HETATM   21  H   UNL     1     -11.706   8.391  67.561  1.00  0.00     0.000 HD 
BRANCH  14  22
HETATM   22  C   UNL     1     -10.289  11.652  65.184  1.00  0.00    -0.279 C  
BRANCH  22  23
HETATM   23  O   UNL     1     -11.412  12.315  65.752  1.00  0.00    -0.338 OA 
HETATM   24  P   UNL     1     -12.021  13.572  64.731  1.00  0.00    -0.437 P  
HETATM   25  O   UNL     1     -12.566  14.696  63.817  1.00  0.00    -0.820 OA 
HETATM   26  O   UNL     1     -12.902  12.391  64.030  1.00  0.00    -0.717 OA 
HETATM   27  O   UNL     1     -13.029  13.919  65.970  1.00  0.00    -0.378 OA 
ENDBRANCH  22  23
ENDBRANCH  14  22
ENDBRANCH   8  13
TORSDOF 3
ENDMDL
MODEL       52
REMARK 921   NORMALIZED FREE ENERGY PREDICTED BY IDOCK:   -6.04 KCAL/MOL
REMARK 922        TOTAL FREE ENERGY PREDICTED BY IDOCK:   -7.57 KCAL/MOL
REMARK 923 INTER-LIGAND FREE ENERGY PREDICTED BY IDOCK:   -7.14 KCAL/MOL
REMARK 924 INTRA-LIGAND FREE ENERGY PREDICTED BY IDOCK:   -0.43 KCAL/MOL
REMARK 927      BINDING AFFINITY PREDICTED BY RF-SCORE:    0.00 PKD
ROOT
HETATM    1  N   UNL     1     -10.176   9.511  66.981  1.00  0.00    -0.241 NA 
HETATM    2  C   UNL     1     -10.768  10.303  67.954  1.00  0.00    -0.264 A  
HETATM    3  H1  UNL     1      -9.873   8.553  67.153  1.00  0.00     0.000 HD 
HETATM    4  H2  UNL     1      -9.373  10.024  66.617  1.00  0.00     0.000 HD 
HETATM    5  C   UNL     1     -11.185  11.622  67.718  1.00  0.00    -0.268 A  
HETATM    6  N   UNL     1     -11.126  12.419  66.599  1.00  0.00    -0.275 NA 
HETATM    7  C   UNL     1     -11.620  13.578  66.987  1.00  0.00    -0.359 A  
HETATM    8  N   UNL     1     -12.032  13.548  68.299  1.00  0.00    -0.362 NA 
HETATM    9  N   UNL     1     -10.923   9.790  69.196  1.00  0.00    -0.207 NA 
HETATM   10  C   UNL     1     -11.745  12.305  68.789  1.00  0.00    -0.340 A  
HETATM   11  N   UNL     1     -11.919  11.839  70.038  1.00  0.00    -0.341 NA 
HETATM   12  C   UNL     1     -11.494  10.562  70.141  1.00  0.00    -0.325 A  
ENDROOT
BRANCH   8  13
HETATM   13  C   UNL     1     -12.651  14.675  68.964  1.00  0.00     0.237 C  
HETATM   14  C   UNL     1     -10.950  16.148  69.598  1.00  0.00    -0.346 C  
HETATM   15  C   UNL     1     -11.469  15.532  70.899  1.00  0.00    -0.375 C  
HETATM   16  O   UNL     1     -13.881  15.514  70.932  1.00  0.00    -0.827 OA 
HETATM   17  O   UNL     1     -11.930  15.859  68.576  1.00  0.00    -0.306 OA 
HETATM   18  C   UNL     1     -12.723  14.754  70.497  1.00  0.00    -0.343 C  
HETATM   19  H   UNL     1     -13.925  15.563  71.880  1.00  0.00     0.000 HD 
HETATM   20  O   UNL     1     -11.757  16.570  71.844  1.00  0.00    -0.621 OA 
HETATM   21  H   UNL     1     -12.079  16.187  72.652  1.00  0.00     0.000 HD 
BRANCH  14  22
HETATM   22  C   UNL     1      -9.576  15.566  69.239  1.00  0.00    -0.266 C  
BRANCH  22  23
HETATM   23  O   UNL     1      -9.105  16.093  68.005  1.00  0.00    -0.188 OA 
HETATM   24  P   UNL     1      -9.042  17.823  68.009  1.00  0.00    -0.282 P  
HETATM   25  O   UNL     1      -8.987  19.369  68.013  1.00  0.00    -0.305 OA 
HETATM   26  O   UNL     1      -7.555  17.634  68.651  1.00  0.00    -0.261 OA 
HETATM   27  O   UNL     1      -8.641  17.687  66.430  1.00  0.00    -0.281 OA 
ENDBRANCH  22  23
ENDBRANCH  14  22
ENDBRANCH   8  13
TORSDOF 3
ENDMDL
MODEL       53
REMARK 921   NORMALIZED FREE ENERGY PREDICTED BY IDOCK:   -6.02 KCAL/MOL
REMARK 922        TOTAL FREE ENERGY PREDICTED BY IDOCK:   -7.55 KCAL/MOL
REMARK 923 INTER-LIGAND FREE ENERGY PREDICTED BY IDOCK:   -6.84 KCAL/MOL
REMARK 924 INTRA-LIGAND FREE ENERGY PREDICTED BY IDOCK:   -0.71 KCAL/MOL
REMARK 927      BINDING AFFINITY PREDICTED BY RF-SCORE:    0.00 PKD
ROOT
HETATM    1  N   UNL     1     -11.630  14.373  71.090  1.00  0.00    -0.507 NA 
HETATM    2  C   UNL     1     -11.794  13.351  70.167  1.00  0.00    -0.272 A  
HETATM    3  H1  UNL     1     -11.699  14.229  72.097  1.00  0.00     0.000 HD 
HETATM    4  H2  UNL     1     -12.284  15.116  70.843  1.00  0.00     0.000 HD 
HETATM    5  C   UNL     1     -11.700  13.550  68.781  1.00  0.00    -0.337 A  
HETATM    6  N   UNL     1     -11.459  14.674  68.027  1.00  0.00    -0.310 NA 
HETATM    7  C   UNL     1     -11.541  14.263  66.777  1.00  0.00    -0.391 A  
HETATM    8  N   UNL     1     -11.785  12.912  66.695  1.00  0.00    -0.372 NA 
HETATM    9  N   UNL     1     -12.089  12.113  70.623  1.00  0.00    -0.331 NA 
HETATM   10  C   UNL     1     -11.907  12.440  67.972  1.00  0.00    -0.316 A  
HETATM   11  N   UNL     1     -12.202  11.193  68.377  1.00  0.00    -0.550 NA 
HETATM   12  C   UNL     1     -12.255  11.122  69.724  1.00  0.00    -0.300 A  
ENDROOT
BRANCH   8  13
HETATM   13  C   UNL     1     -11.879  12.194  65.441  1.00  0.00    -0.295 C  
HETATM   14  C   UNL     1      -9.797  11.215  65.025  1.00  0.00    -0.266 C  
HETATM   15  C   UNL     1      -9.937  12.341  63.998  1.00  0.00    -0.258 C  
HETATM   16  O   UNL     1     -12.128  12.308  62.989  1.00  0.00    -0.692 OA 
HETATM   17  O   UNL     1     -11.113  10.982  65.575  1.00  0.00    -0.091 OA 
HETATM   18  C   UNL     1     -11.385  12.818  64.127  1.00  0.00    -0.390 C  
HETATM   19  H   UNL     1     -11.823  12.694  62.176  1.00  0.00     0.000 HD 
HETATM   20  O   UNL     1      -9.649  11.838  62.687  1.00  0.00    -0.455 OA 
HETATM   21  H   UNL     1      -9.736  12.537  62.050  1.00  0.00     0.000 HD 
BRANCH  14  22
HETATM   22  C   UNL     1      -8.793  11.608  66.117  1.00  0.00    -0.139 C  
BRANCH  22  23
HETATM   23  O   UNL     1      -8.855  10.706  67.215  1.00  0.00    -0.136 OA 
HETATM   24  P   UNL     1      -8.272   9.128  66.805  1.00  0.00    -0.120 P  
HETATM   25  O   UNL     1      -7.751   7.718  66.439  1.00  0.00    -0.089 OA 
HETATM   26  O   UNL     1      -6.802   9.717  67.198  1.00  0.00    -0.081 OA 
HETATM   27  O   UNL     1      -8.764   8.695  68.303  1.00  0.00    -0.140 OA 
ENDBRANCH  22  23
ENDBRANCH  14  22
ENDBRANCH   8  13
TORSDOF 3
ENDMDL
MODEL       54
REMARK 921   NORMALIZED FREE ENERGY PREDICTED BY IDOCK:   -6.01 KCAL/MOL
REMARK 922        TOTAL FREE ENERGY PREDICTED BY IDOCK:   -7.54 KCAL/MOL
REMARK 923 INTER-LIGAND FREE ENERGY PREDICTED BY IDOCK:   -6.78 KCAL/MOL
REMARK 924 INTRA-LIGAND FREE ENERGY PREDICTED BY IDOCK:   -0.76 KCAL/MOL
REMARK 927      BINDING AFFINITY PREDICTED BY RF-SCORE:    0.00 PKD
ROOT
HETATM    1  N   UNL     1     -12.825  14.192  69.552  1.00  0.00    -0.280 NA 
HETATM    2  C   UNL     1     -11.564  13.843  69.091  1.00  0.00    -0.313 A  
HETATM    3  H1  UNL     1     -13.064  15.135  69.856  1.00  0.00     0.000 HD 
HETATM    4  H2  UNL     1     -13.057  13.557  70.316  1.00  0.00     0.000 HD 
HETATM    5  C   UNL     1     -11.235  12.544  68.672  1.00  0.00    -0.278 A  
HETATM    6  N   UNL     1     -11.968  11.382  68.615  1.00  0.00    -0.517 NA 
HETATM    7  C   UNL     1     -11.118  10.470  68.190  1.00  0.00    -0.287 A  
HETATM    8  N   UNL     1      -9.877  11.004  67.933  1.00  0.00    -0.168 NA 
HETATM    9  N   UNL     1     -10.600  14.790  69.072  1.00  0.00    -0.243 NA 
HETATM   10  C   UNL     1      -9.929  12.332  68.253  1.00  0.00    -0.216 A  
HETATM   11  N   UNL     1      -8.938  13.239  68.217  1.00  0.00    -0.189 NA 
HETATM   12  C   UNL     1      -9.374  14.448  68.629  1.00  0.00    -0.188 A  
ENDROOT
BRANCH   8  13
HETATM   13  C   UNL     1      -8.768  10.230  67.416  1.00  0.00    -0.128 C  
HETATM   14  C   UNL     1      -9.024  10.085  65.096  1.00  0.00    -0.192 C  
HETATM   15  C   UNL     1      -9.311   8.680  65.632  1.00  0.00    -0.103 C  
HETATM   16  O   UNL     1      -7.652   8.034  67.261  1.00  0.00    -0.094 OA 
HETATM   17  O   UNL     1      -8.376  10.816  66.160  1.00  0.00    -0.156 OA 
HETATM   18  C   UNL     1      -8.917   8.731  67.110  1.00  0.00    -0.131 C  
HETATM   19  H   UNL     1      -7.744   7.108  67.072  1.00  0.00     0.000 HD 
HETATM   20  O   UNL     1      -8.541   7.718  64.901  1.00  0.00    -0.354 OA 
HETATM   21  H   UNL     1      -8.719   6.845  65.234  1.00  0.00     0.000 HD 
BRANCH  14  22
HETATM   22  C   UNL     1     -10.328  10.767  64.658  1.00  0.00    -0.324 C  
BRANCH  22  23
HETATM   23  O   UNL     1     -10.335  12.140  65.030  1.00  0.00    -0.271 OA 
HETATM   24  P   UNL     1     -11.553  13.042  64.195  1.00  0.00    -0.459 P  
HETATM   25  O   UNL     1     -12.642  13.848  63.447  1.00  0.00    -0.853 OA 
HETATM   26  O   UNL     1     -12.542  12.569  65.403  1.00  0.00    -0.656 OA 
HETATM   27  O   UNL     1     -10.900  14.354  64.918  1.00  0.00    -0.376 OA 
ENDBRANCH  22  23
ENDBRANCH  14  22
ENDBRANCH   8  13
TORSDOF 3
ENDMDL
MODEL       55
REMARK 921   NORMALIZED FREE ENERGY PREDICTED BY IDOCK:   -5.99 KCAL/MOL
REMARK 922        TOTAL FREE ENERGY PREDICTED BY IDOCK:   -7.52 KCAL/MOL
REMARK 923 INTER-LIGAND FREE ENERGY PREDICTED BY IDOCK:   -7.29 KCAL/MOL
REMARK 924 INTRA-LIGAND FREE ENERGY PREDICTED BY IDOCK:   -0.23 KCAL/MOL
REMARK 927      BINDING AFFINITY PREDICTED BY RF-SCORE:    0.00 PKD
ROOT
HETATM    1  N   UNL     1     -10.906   8.267  67.841  1.00  0.00    -0.481 NA 
HETATM    2  C   UNL     1     -10.910   9.581  68.284  1.00  0.00    -0.145 A  
HETATM    3  H1  UNL     1     -11.350   7.506  68.356  1.00  0.00     0.000 HD 
HETATM    4  H2  UNL     1      -9.935   8.001  67.682  1.00  0.00     0.000 HD 
HETATM    5  C   UNL     1     -10.299  10.628  67.576  1.00  0.00    -0.214 A  
HETATM    6  N   UNL     1      -9.598  10.653  66.393  1.00  0.00    -0.184 NA 
HETATM    7  C   UNL     1      -9.219  11.908  66.255  1.00  0.00    -0.214 A  
HETATM    8  N   UNL     1      -9.680  12.700  67.280  1.00  0.00    -0.204 NA 
HETATM    9  N   UNL     1     -11.502   9.862  69.466  1.00  0.00    -0.131 NA 
HETATM   10  C   UNL     1     -10.362  11.892  68.146  1.00  0.00    -0.199 A  
HETATM   11  N   UNL     1     -10.937  12.220  69.316  1.00  0.00    -0.154 NA 
HETATM   12  C   UNL     1     -11.499  11.139  69.898  1.00  0.00    -0.306 A  
ENDROOT
BRANCH   8  13
HETATM   13  C   UNL     1      -9.444  14.127  67.351  1.00  0.00    -0.220 C  
HETATM   14  C   UNL     1     -11.440  15.207  66.789  1.00  0.00    -0.195 C  
HETATM   15  C   UNL     1     -10.491  15.455  65.614  1.00  0.00    -0.372 C  
HETATM   16  O   UNL     1      -8.306  16.101  66.404  1.00  0.00    -0.286 OA 
HETATM   17  O   UNL     1     -10.631  14.738  67.891  1.00  0.00    -0.244 OA 
HETATM   18  C   UNL     1      -9.129  14.947  66.090  1.00  0.00    -0.167 C  
HETATM   19  H   UNL     1      -8.111  16.607  65.624  1.00  0.00     0.000 HD 
HETATM   20  O   UNL     1     -10.467  16.851  65.299  1.00  0.00    -0.638 OA 
HETATM   21  H   UNL     1      -9.878  17.005  64.569  1.00  0.00     0.000 HD 
BRANCH  14  22
HETATM   22  C   UNL     1     -12.514  14.180  66.404  1.00  0.00    -0.318 C  
BRANCH  22  23
HETATM   23  O   UNL     1     -12.814  14.254  65.015  1.00  0.00    -0.674 OA 
HETATM   24  P   UNL     1     -12.044  12.997  64.108  1.00  0.00    -0.443 P  
HETATM   25  O   UNL     1     -11.355  11.874  63.297  1.00  0.00    -0.360 OA 
HETATM   26  O   UNL     1     -13.358  12.105  64.483  1.00  0.00    -0.691 OA 
HETATM   27  O   UNL     1     -12.638  13.757  62.788  1.00  0.00    -0.447 OA 
ENDBRANCH  22  23
ENDBRANCH  14  22
ENDBRANCH   8  13
TORSDOF 3
ENDMDL
MODEL       56
REMARK 921   NORMALIZED FREE ENERGY PREDICTED BY IDOCK:   -5.96 KCAL/MOL
REMARK 922        TOTAL FREE ENERGY PREDICTED BY IDOCK:   -7.48 KCAL/MOL
REMARK 923 INTER-LIGAND FREE ENERGY PREDICTED BY IDOCK:   -7.26 KCAL/MOL
REMARK 924 INTRA-LIGAND FREE ENERGY PREDICTED BY IDOCK:   -0.21 KCAL/MOL
REMARK 927      BINDING AFFINITY PREDICTED BY RF-SCORE:    0.00 PKD
ROOT
HETATM    1  N   UNL     1     -12.460  11.712  63.060  1.00  0.00    -0.937 NA 
HETATM    2  C   UNL     1     -12.175  12.412  64.223  1.00  0.00    -0.452 A  
HETATM    3  H1  UNL     1     -13.276  11.908  62.480  1.00  0.00     0.000 HD 
HETATM    4  H2  UNL     1     -12.488  10.721  63.299  1.00  0.00     0.000 HD 
HETATM    5  C   UNL     1     -11.052  12.141  65.022  1.00  0.00    -0.320 A  
HETATM    6  N   UNL     1     -10.043  11.215  64.908  1.00  0.00    -0.268 NA 
HETATM    7  C   UNL     1      -9.299  11.395  65.981  1.00  0.00    -0.217 A  
HETATM    8  N   UNL     1      -9.766  12.427  66.762  1.00  0.00    -0.218 NA 
HETATM    9  N   UNL     1     -13.032  13.378  64.621  1.00  0.00    -0.645 NA 
HETATM   10  C   UNL     1     -10.900  12.907  66.170  1.00  0.00    -0.279 A  
HETATM   11  N   UNL     1     -11.724  13.875  66.607  1.00  0.00    -0.373 NA 
HETATM   12  C   UNL     1     -12.756  14.052  65.755  1.00  0.00    -0.450 A  
ENDROOT
BRANCH   8  13
HETATM   13  C   UNL     1      -9.111  12.864  67.976  1.00  0.00    -0.211 C  
HETATM   14  C   UNL     1      -8.438  15.081  67.663  1.00  0.00    -0.160 C  
HETATM   15  C   UNL     1      -7.149  14.256  67.671  1.00  0.00    -0.183 C  
HETATM   16  O   UNL     1      -7.168  12.665  69.484  1.00  0.00    -0.318 OA 
HETATM   17  O   UNL     1      -9.481  14.238  68.200  1.00  0.00    -0.192 OA 
HETATM   18  C   UNL     1      -7.580  12.853  68.105  1.00  0.00    -0.135 C  
HETATM   19  H   UNL     1      -6.221  12.658  69.563  1.00  0.00     0.000 HD 
HETATM   20  O   UNL     1      -6.209  14.838  68.581  1.00  0.00    -0.081 OA 
HETATM   21  H   UNL     1      -5.409  14.326  68.587  1.00  0.00     0.000 HD 
BRANCH  14  22
HETATM   22  C   UNL     1      -8.769  15.545  66.237  1.00  0.00    -0.248 C  
BRANCH  22  23
HETATM   23  O   UNL     1      -9.695  16.624  66.254  1.00  0.00    -0.272 OA 
HETATM   24  P   UNL     1      -9.072  18.013  67.078  1.00  0.00    -0.271 P  
HETATM   25  O   UNL     1      -8.516  19.254  67.816  1.00  0.00    -0.291 OA 
HETATM   26  O   UNL     1      -8.425  18.413  65.636  1.00  0.00    -0.344 OA 
HETATM   27  O   UNL     1     -10.560  18.654  66.859  1.00  0.00    -0.397 OA 
ENDBRANCH  22  23
ENDBRANCH  14  22
ENDBRANCH   8  13
TORSDOF 3
ENDMDL
MODEL       57
REMARK 921   NORMALIZED FREE ENERGY PREDICTED BY IDOCK:   -5.90 KCAL/MOL
REMARK 922        TOTAL FREE ENERGY PREDICTED BY IDOCK:   -7.41 KCAL/MOL
REMARK 923 INTER-LIGAND FREE ENERGY PREDICTED BY IDOCK:   -6.77 KCAL/MOL
REMARK 924 INTRA-LIGAND FREE ENERGY PREDICTED BY IDOCK:   -0.64 KCAL/MOL
REMARK 927      BINDING AFFINITY PREDICTED BY RF-SCORE:    0.00 PKD
ROOT
HETATM    1  N   UNL     1     -11.011   9.363  71.542  1.00  0.00    -0.372 NA 
HETATM    2  C   UNL     1     -10.928   9.489  70.164  1.00  0.00    -0.262 A  
HETATM    3  H1  UNL     1     -10.722   8.522  72.042  1.00  0.00     0.000 HD 
HETATM    4  H2  UNL     1     -11.976   9.559  71.809  1.00  0.00     0.000 HD 
HETATM    5  C   UNL     1     -11.326  10.646  69.476  1.00  0.00    -0.277 A  
HETATM    6  N   UNL     1     -11.858  11.837  69.910  1.00  0.00    -0.335 NA 
HETATM    7  C   UNL     1     -12.082  12.526  68.809  1.00  0.00    -0.110 A  
HETATM    8  N   UNL     1     -11.678  11.843  67.685  1.00  0.00    -0.532 NA 
HETATM    9  N   UNL     1     -10.470   8.438  69.447  1.00  0.00    -0.220 NA 
HETATM   10  C   UNL     1     -11.206  10.627  68.093  1.00  0.00    -0.302 A  
HETATM   11  N   UNL     1     -10.758   9.609  67.338  1.00  0.00    -0.272 NA 
HETATM   12  C   UNL     1     -10.396   8.560  68.107  1.00  0.00    -0.206 A  
ENDROOT
BRANCH   8  13
HETATM   13  C   UNL     1     -11.770  12.388  66.347  1.00  0.00    -0.391 C  
HETATM   14  C   UNL     1      -9.969  13.849  66.050  1.00  0.00    -0.310 C  
HETATM   15  C   UNL     1     -11.213  14.737  66.128  1.00  0.00    -0.337 C  
HETATM   16  O   UNL     1     -12.990  13.838  64.767  1.00  0.00    -0.684 OA 
HETATM   17  O   UNL     1     -10.430  12.498  65.829  1.00  0.00    -0.260 OA 
HETATM   18  C   UNL     1     -12.396  13.767  66.089  1.00  0.00    -0.452 C  
HETATM   19  H   UNL     1     -13.377  14.691  64.607  1.00  0.00     0.000 HD 
HETATM   20  O   UNL     1     -11.226  15.649  65.023  1.00  0.00    -0.368 OA 
HETATM   21  H   UNL     1     -11.999  16.201  65.072  1.00  0.00     0.000 HD 
BRANCH  14  22
HETATM   22  C   UNL     1      -9.150  13.960  67.343  1.00  0.00    -0.217 C  
BRANCH  22  23
HETATM   23  O   UNL     1      -7.822  14.391  67.070  1.00  0.00    -0.135 OA 
HETATM   24  P   UNL     1      -6.666  13.685  68.148  1.00  0.00    -0.164 P  
HETATM   25  O   UNL     1      -5.632  13.055  69.111  1.00  0.00    -0.069 OA 
HETATM   26  O   UNL     1      -6.628  12.450  67.083  1.00  0.00    -0.154 OA 
HETATM   27  O   UNL     1      -5.577  14.664  67.420  1.00  0.00    -0.340 OA 
ENDBRANCH  22  23
ENDBRANCH  14  22
ENDBRANCH   8  13
TORSDOF 3
ENDMDL
MODEL       58
REMARK 921   NORMALIZED FREE ENERGY PREDICTED BY IDOCK:   -5.90 KCAL/MOL
REMARK 922        TOTAL FREE ENERGY PREDICTED BY IDOCK:   -7.41 KCAL/MOL
REMARK 923 INTER-LIGAND FREE ENERGY PREDICTED BY IDOCK:   -7.03 KCAL/MOL
REMARK 924 INTRA-LIGAND FREE ENERGY PREDICTED BY IDOCK:   -0.38 KCAL/MOL
REMARK 927      BINDING AFFINITY PREDICTED BY RF-SCORE:    0.00 PKD
ROOT
HETATM    1  N   UNL     1     -10.732   8.473  72.529  1.00  0.00    -0.300 NA 
HETATM    2  C   UNL     1     -11.284   9.248  71.519  1.00  0.00    -0.386 A  
HETATM    3  H1  UNL     1     -11.283   8.083  73.293  1.00  0.00     0.000 HD 
HETATM    4  H2  UNL     1      -9.971   9.011  72.945  1.00  0.00     0.000 HD 
HETATM    5  C   UNL     1     -10.525   9.786  70.467  1.00  0.00    -0.301 A  
HETATM    6  N   UNL     1      -9.184   9.722  70.173  1.00  0.00    -0.238 NA 
HETATM    7  C   UNL     1      -9.042  10.463  69.093  1.00  0.00    -0.187 A  
HETATM    8  N   UNL     1     -10.243  10.970  68.656  1.00  0.00    -0.191 NA 
HETATM    9  N   UNL     1     -12.607   9.522  71.567  1.00  0.00    -0.348 NA 
HETATM   10  C   UNL     1     -11.205  10.560  69.536  1.00  0.00    -0.271 A  
HETATM   11  N   UNL     1     -12.515  10.860  69.541  1.00  0.00    -0.299 NA 
HETATM   12  C   UNL     1     -13.139  10.280  70.588  1.00  0.00    -0.226 A  
ENDROOT
BRANCH   8  13
HETATM   13  C   UNL     1     -10.378  11.783  67.465  1.00  0.00    -0.196 C  
HETATM   14  C   UNL     1     -10.779  13.983  68.148  1.00  0.00    -0.246 C  
HETATM   15  C   UNL     1     -12.098  13.490  67.547  1.00  0.00    -0.300 C  
HETATM   16  O   UNL     1     -11.707  12.341  65.462  1.00  0.00    -0.376 OA 
HETATM   17  O   UNL     1      -9.754  13.053  67.732  1.00  0.00    -0.206 OA 
HETATM   18  C   UNL     1     -11.760  12.145  66.900  1.00  0.00    -0.301 C  
HETATM   19  H   UNL     1     -12.562  12.565  65.113  1.00  0.00     0.000 HD 
HETATM   20  O   UNL     1     -12.579  14.443  66.592  1.00  0.00    -0.534 OA 
HETATM   21  H   UNL     1     -13.398  14.138  66.219  1.00  0.00     0.000 HD 
BRANCH  14  22
HETATM   22  C   UNL     1     -10.883  14.058  69.678  1.00  0.00     0.030 C  
BRANCH  22  23
HETATM   23  O   UNL     1     -12.025  14.808  70.075  1.00  0.00    -0.280 OA 
HETATM   24  P   UNL     1     -12.828  14.109  71.440  1.00  0.00    -0.384 P  
HETATM   25  O   UNL     1     -13.547  13.485  72.660  1.00  0.00    -0.629 OA 
HETATM   26  O   UNL     1     -11.778  14.980  72.334  1.00  0.00    -0.375 OA 
HETATM   27  O   UNL     1     -13.961  15.266  71.206  1.00  0.00    -0.487 OA 
ENDBRANCH  22  23
ENDBRANCH  14  22
ENDBRANCH   8  13
TORSDOF 3
ENDMDL
MODEL       59
REMARK 921   NORMALIZED FREE ENERGY PREDICTED BY IDOCK:   -5.87 KCAL/MOL
REMARK 922        TOTAL FREE ENERGY PREDICTED BY IDOCK:   -7.38 KCAL/MOL
REMARK 923 INTER-LIGAND FREE ENERGY PREDICTED BY IDOCK:   -7.57 KCAL/MOL
REMARK 924 INTRA-LIGAND FREE ENERGY PREDICTED BY IDOCK:    0.20 KCAL/MOL
REMARK 927      BINDING AFFINITY PREDICTED BY RF-SCORE:    0.00 PKD
ROOT
HETATM    1  N   UNL     1      -9.859   9.718  65.123  1.00  0.00    -0.405 NA 
HETATM    2  C   UNL     1     -10.477  10.402  66.159  1.00  0.00    -0.154 A  
HETATM    3  H1  UNL     1      -9.845  10.060  64.162  1.00  0.00     0.000 HD 
HETATM    4  H2  UNL     1     -10.247   8.775  65.105  1.00  0.00     0.000 HD 
HETATM    5  C   UNL     1     -10.497   9.932  67.481  1.00  0.00    -0.255 A  
HETATM    6  N   UNL     1      -9.986   8.795  68.062  1.00  0.00    -0.173 NA 
HETATM    7  C   UNL     1     -10.360   8.866  69.323  1.00  0.00    -0.213 A  
HETATM    8  N   UNL     1     -11.058  10.021  69.589  1.00  0.00    -0.252 NA 
HETATM    9  N   UNL     1     -11.116  11.560  65.876  1.00  0.00    -0.257 NA 
HETATM   10  C   UNL     1     -11.170  10.710  68.414  1.00  0.00    -0.288 A  
HETATM   11  N   UNL     1     -11.818  11.864  68.182  1.00  0.00    -0.497 NA 
HETATM   12  C   UNL     1     -11.721  12.220  66.883  1.00  0.00    -0.334 A  
ENDROOT
BRANCH   8  13
HETATM   13  C   UNL     1     -11.549  10.369  70.905  1.00  0.00    -0.337 C  
HETATM   14  C   UNL     1     -12.147   8.386  71.989  1.00  0.00    -0.356 C  
HETATM   15  C   UNL     1     -13.464   9.103  71.683  1.00  0.00    -0.391 C  
HETATM   16  O   UNL     1     -13.315  11.442  72.255  1.00  0.00    -0.629 OA 
HETATM   17  O   UNL     1     -11.091   9.358  71.823  1.00  0.00    -0.370 OA 
HETATM   18  C   UNL     1     -13.054  10.492  71.188  1.00  0.00    -0.358 C  
HETATM   19  H   UNL     1     -14.246  11.517  72.429  1.00  0.00     0.000 HD 
HETATM   20  O   UNL     1     -14.267   9.167  72.868  1.00  0.00    -1.016 OA 
HETATM   21  H   UNL     1     -15.084   9.612  72.678  1.00  0.00     0.000 HD 
BRANCH  14  22
HETATM   22  C   UNL     1     -11.960   7.186  71.051  1.00  0.00    -0.347 C  
BRANCH  22  23
HETATM   23  O   UNL     1     -11.413   6.074  71.748  1.00  0.00    -0.288 OA 
HETATM   24  P   UNL     1     -10.237   5.220  70.808  1.00  0.00    -0.221 P  
HETATM   25  O   UNL     1      -9.186   4.456  69.967  1.00  0.00    -0.106 OA 
HETATM   26  O   UNL     1      -9.170   6.296  71.411  1.00  0.00    -0.149 OA 
HETATM   27  O   UNL     1     -10.216   4.145  72.039  1.00  0.00    -0.179 OA 
ENDBRANCH  22  23
ENDBRANCH  14  22
ENDBRANCH   8  13
TORSDOF 3
ENDMDL
MODEL       60
REMARK 921   NORMALIZED FREE ENERGY PREDICTED BY IDOCK:   -5.86 KCAL/MOL
REMARK 922        TOTAL FREE ENERGY PREDICTED BY IDOCK:   -7.36 KCAL/MOL
REMARK 923 INTER-LIGAND FREE ENERGY PREDICTED BY IDOCK:   -7.07 KCAL/MOL
REMARK 924 INTRA-LIGAND FREE ENERGY PREDICTED BY IDOCK:   -0.29 KCAL/MOL
REMARK 927      BINDING AFFINITY PREDICTED BY RF-SCORE:    0.00 PKD
ROOT
HETATM    1  N   UNL     1     -10.758   7.013  70.653  1.00  0.00    -0.225 NA 
HETATM    2  C   UNL     1     -10.430   7.420  69.368  1.00  0.00    -0.217 A  
HETATM    3  H1  UNL     1     -11.288   6.165  70.849  1.00  0.00     0.000 HD 
HETATM    4  H2  UNL     1     -11.245   7.788  71.104  1.00  0.00     0.000 HD 
HETATM    5  C   UNL     1      -9.700   8.588  69.099  1.00  0.00    -0.170 A  
HETATM    6  N   UNL     1      -9.173   9.555  69.922  1.00  0.00    -0.203 NA 
HETATM    7  C   UNL     1      -8.641  10.439  69.103  1.00  0.00    -0.164 A  
HETATM    8  N   UNL     1      -8.768  10.062  67.786  1.00  0.00    -0.125 NA 
HETATM    9  N   UNL     1     -10.860   6.673  68.327  1.00  0.00    -0.254 NA 
HETATM   10  C   UNL     1      -9.461   8.884  67.764  1.00  0.00    -0.141 A  
HETATM   11  N   UNL     1      -9.867   8.175  66.697  1.00  0.00    -0.249 NA 
HETATM   12  C   UNL     1     -10.546   7.073  67.079  1.00  0.00    -0.341 A  
ENDROOT
BRANCH   8  13
HETATM   13  C   UNL     1      -8.234  10.832  66.683  1.00  0.00    -0.140 C  
HETATM   14  C   UNL     1     -10.026  11.898  65.626  1.00  0.00    -0.241 C  
HETATM   15  C   UNL     1      -9.557  10.816  64.651  1.00  0.00    -0.268 C  
HETATM   16  O   UNL     1      -7.152  10.820  64.465  1.00  0.00    -0.351 OA 
HETATM   17  O   UNL     1      -8.979  12.062  66.609  1.00  0.00    -0.199 OA 
HETATM   18  C   UNL     1      -8.251  10.284  65.247  1.00  0.00    -0.161 C  
HETATM   19  H   UNL     1      -7.162  10.482  63.577  1.00  0.00     0.000 HD 
HETATM   20  O   UNL     1      -9.364  11.386  63.351  1.00  0.00    -0.389 OA 
HETATM   21  H   UNL     1      -9.073  10.714  62.746  1.00  0.00     0.000 HD 
BRANCH  14  22
HETATM   22  C   UNL     1     -11.353  11.491  66.281  1.00  0.00    -0.153 C  
BRANCH  22  23
HETATM   23  O   UNL     1     -12.304  12.546  66.205  1.00  0.00    -0.596 OA 
HETATM   24  P   UNL     1     -12.371  13.259  64.629  1.00  0.00    -0.352 P  
HETATM   25  O   UNL     1     -12.432  13.897  63.221  1.00  0.00    -0.817 OA 
HETATM   26  O   UNL     1     -13.449  12.082  64.290  1.00  0.00    -0.654 OA 
HETATM   27  O   UNL     1     -13.400  14.339  65.299  1.00  0.00    -0.660 OA 
ENDBRANCH  22  23
ENDBRANCH  14  22
ENDBRANCH   8  13
TORSDOF 3
ENDMDL
MODEL       61
REMARK 921   NORMALIZED FREE ENERGY PREDICTED BY IDOCK:   -5.80 KCAL/MOL
REMARK 922        TOTAL FREE ENERGY PREDICTED BY IDOCK:   -7.29 KCAL/MOL
REMARK 923 INTER-LIGAND FREE ENERGY PREDICTED BY IDOCK:   -6.47 KCAL/MOL
REMARK 924 INTRA-LIGAND FREE ENERGY PREDICTED BY IDOCK:   -0.82 KCAL/MOL
REMARK 927      BINDING AFFINITY PREDICTED BY RF-SCORE:    0.00 PKD
ROOT
HETATM    1  N   UNL     1      -7.369  10.410  68.468  1.00  0.00    -0.083 NA 
HETATM    2  C   UNL     1      -8.658  10.280  68.965  1.00  0.00    -0.162 A  
HETATM    3  H1  UNL     1      -7.160  10.858  67.576  1.00  0.00     0.000 HD 
HETATM    4  H2  UNL     1      -6.955   9.479  68.446  1.00  0.00     0.000 HD 
HETATM    5  C   UNL     1      -8.946   9.663  70.192  1.00  0.00    -0.236 A  
HETATM    6  N   UNL     1      -8.140   9.072  71.137  1.00  0.00    -0.246 NA 
HETATM    7  C   UNL     1      -8.973   8.619  72.052  1.00  0.00    -0.216 A  
HETATM    8  N   UNL     1     -10.280   8.928  71.756  1.00  0.00    -0.330 NA 
HETATM    9  N   UNL     1      -9.686  10.741  68.217  1.00  0.00    -0.159 NA 
HETATM   10  C   UNL     1     -10.283   9.584  70.556  1.00  0.00    -0.287 A  
HETATM   11  N   UNL     1     -11.337  10.026  69.849  1.00  0.00    -0.254 NA 
HETATM   12  C   UNL     1     -10.938  10.608  68.699  1.00  0.00    -0.246 A  
ENDROOT
BRANCH   8  13
HETATM   13  C   UNL     1     -11.393   8.586  72.615  1.00  0.00    -0.178 C  
HETATM   14  C   UNL     1     -11.884   6.325  72.275  1.00  0.00    -0.278 C  
HETATM   15  C   UNL     1     -13.047   7.099  71.651  1.00  0.00    -0.361 C  
HETATM   16  O   UNL     1     -13.792   8.856  73.126  1.00  0.00    -1.084 OA 
HETATM   17  O   UNL     1     -11.164   7.255  73.115  1.00  0.00    -0.302 OA 
HETATM   18  C   UNL     1     -12.833   8.552  72.079  1.00  0.00    -0.374 C  
HETATM   19  H   UNL     1     -14.682   8.836  72.794  1.00  0.00     0.000 HD 
HETATM   20  O   UNL     1     -14.290   6.572  72.130  1.00  0.00    -0.517 OA 
HETATM   21  H   UNL     1     -15.013   7.052  71.742  1.00  0.00     0.000 HD 
BRANCH  14  22
HETATM   22  C   UNL     1     -10.981   5.740  71.181  1.00  0.00    -0.225 C  
BRANCH  22  23
HETATM   23  O   UNL     1     -11.395   6.175  69.891  1.00  0.00    -0.405 OA 
HETATM   24  P   UNL     1     -10.071   6.308  68.785  1.00  0.00    -0.195 P  
HETATM   25  O   UNL     1      -8.886   6.427  67.796  1.00  0.00    -0.115 OA 
HETATM   26  O   UNL     1     -10.337   4.727  68.485  1.00  0.00    -0.046 OA 
HETATM   27  O   UNL     1     -11.165   6.937  67.746  1.00  0.00    -0.174 OA 
ENDBRANCH  22  23
ENDBRANCH  14  22
ENDBRANCH   8  13
TORSDOF 3
ENDMDL
MODEL       62
REMARK 921   NORMALIZED FREE ENERGY PREDICTED BY IDOCK:   -5.80 KCAL/MOL
REMARK 922        TOTAL FREE ENERGY PREDICTED BY IDOCK:   -7.29 KCAL/MOL
REMARK 923 INTER-LIGAND FREE ENERGY PREDICTED BY IDOCK:   -6.81 KCAL/MOL
REMARK 924 INTRA-LIGAND FREE ENERGY PREDICTED BY IDOCK:   -0.47 KCAL/MOL
REMARK 927      BINDING AFFINITY PREDICTED BY RF-SCORE:    0.00 PKD
ROOT
HETATM    1  N   UNL     1     -12.509  15.946  73.598  1.00  0.00    -0.535 NA 
HETATM    2  C   UNL     1     -12.607  14.910  72.680  1.00  0.00    -0.367 A  
HETATM    3  H1  UNL     1     -12.775  15.847  74.577  1.00  0.00     0.000 HD 
HETATM    4  H2  UNL     1     -13.028  16.739  73.220  1.00  0.00     0.000 HD 
HETATM    5  C   UNL     1     -12.241  15.047  71.331  1.00  0.00    -0.328 A  
HETATM    6  N   UNL     1     -11.754  16.113  70.613  1.00  0.00    -0.338 NA 
HETATM    7  C   UNL     1     -11.648  15.665  69.378  1.00  0.00    -0.370 A  
HETATM    8  N   UNL     1     -12.010  14.342  69.279  1.00  0.00    -0.322 NA 
HETATM    9  N   UNL     1     -13.105  13.725  73.097  1.00  0.00    -0.418 NA 
HETATM   10  C   UNL     1     -12.410  13.933  70.520  1.00  0.00    -0.369 A  
HETATM   11  N   UNL     1     -12.900  12.737  70.887  1.00  0.00    -0.172 NA 
HETATM   12  C   UNL     1     -13.205  12.722  72.202  1.00  0.00    -0.441 A  
ENDROOT
BRANCH   8  13
HETATM   13  C   UNL     1     -11.947  13.591  68.043  1.00  0.00    -0.337 C  
HETATM   14  C   UNL     1      -9.691  13.303  67.500  1.00  0.00    -0.224 C  
HETATM   15  C   UNL     1     -10.241  14.293  66.470  1.00  0.00    -0.276 C  
HETATM   16  O   UNL     1     -12.365  13.539  65.612  1.00  0.00    -0.425 OA 
HETATM   17  O   UNL     1     -10.831  12.686  68.140  1.00  0.00    -0.211 OA 
HETATM   18  C   UNL     1     -11.755  14.295  66.691  1.00  0.00    -0.400 C  
HETATM   19  H   UNL     1     -12.247  13.975  64.775  1.00  0.00     0.000 HD 
HETATM   20  O   UNL     1      -9.888  13.864  65.150  1.00  0.00    -0.566 OA 
HETATM   21  H   UNL     1     -10.229  14.479  64.511  1.00  0.00     0.000 HD 
BRANCH  14  22
HETATM   22  C   UNL     1      -8.799  14.027  68.517  1.00  0.00    -0.160 C  
BRANCH  22  23
HETATM   23  O   UNL     1      -7.506  14.272  67.978  1.00  0.00    -0.113 OA 
HETATM   24  P   UNL     1      -6.321  14.550  69.209  1.00  0.00    -0.136 P  
HETATM   25  O   UNL     1      -5.262  14.799  70.309  1.00  0.00    -0.102 OA 
HETATM   26  O   UNL     1      -6.155  12.928  69.227  1.00  0.00    -0.086 OA 
HETATM   27  O   UNL     1      -5.301  14.882  67.975  1.00  0.00    -0.117 OA 
ENDBRANCH  22  23
ENDBRANCH  14  22
ENDBRANCH   8  13
TORSDOF 3
ENDMDL
MODEL       63
REMARK 921   NORMALIZED FREE ENERGY PREDICTED BY IDOCK:   -5.74 KCAL/MOL
REMARK 922        TOTAL FREE ENERGY PREDICTED BY IDOCK:   -7.22 KCAL/MOL
REMARK 923 INTER-LIGAND FREE ENERGY PREDICTED BY IDOCK:   -6.55 KCAL/MOL
REMARK 924 INTRA-LIGAND FREE ENERGY PREDICTED BY IDOCK:   -0.68 KCAL/MOL
REMARK 927      BINDING AFFINITY PREDICTED BY RF-SCORE:    0.00 PKD
ROOT
HETATM    1  N   UNL     1     -10.979  10.696  70.154  1.00  0.00    -0.429 NA 
HETATM    2  C   UNL     1     -10.376  11.238  69.029  1.00  0.00    -0.166 A  
HETATM    3  H1  UNL     1     -10.654   9.838  70.599  1.00  0.00     0.000 HD 
HETATM    4  H2  UNL     1     -11.969  10.573  69.940  1.00  0.00     0.000 HD 
HETATM    5  C   UNL     1     -10.823  12.420  68.416  1.00  0.00    -0.238 A  
HETATM    6  N   UNL     1     -11.863  13.270  68.706  1.00  0.00    -0.326 NA 
HETATM    7  C   UNL     1     -11.828  14.181  67.754  1.00  0.00    -0.379 A  
HETATM    8  N   UNL     1     -10.783  13.974  66.884  1.00  0.00    -0.284 NA 
HETATM    9  N   UNL     1      -9.328  10.583  68.479  1.00  0.00    -0.160 NA 
HETATM   10  C   UNL     1     -10.137  12.838  67.284  1.00  0.00    -0.226 A  
HETATM   11  N   UNL     1      -9.094  12.222  66.702  1.00  0.00    -0.207 NA 
HETATM   12  C   UNL     1      -8.748  11.109  67.383  1.00  0.00    -0.133 A  
ENDROOT
BRANCH   8  13
HETATM   13  C   UNL     1     -10.489  14.851  65.770  1.00  0.00    -0.330 C  
HETATM   14  C   UNL     1      -9.108  16.564  66.561  1.00  0.00    -0.276 C  
HETATM   15  C   UNL     1     -10.461  17.222  66.278  1.00  0.00    -0.268 C  
HETATM   16  O   UNL     1     -11.327  16.506  64.144  1.00  0.00    -1.381 OA 
HETATM   17  O   UNL     1      -9.120  15.278  65.903  1.00  0.00    -0.291 OA 
HETATM   18  C   UNL     1     -11.277  16.151  65.550  1.00  0.00     0.053 C  
HETATM   19  H   UNL     1     -11.815  17.310  64.008  1.00  0.00     0.000 HD 
HETATM   20  O   UNL     1     -10.271  18.394  65.477  1.00  0.00    -0.522 OA 
HETATM   21  H   UNL     1     -11.111  18.802  65.302  1.00  0.00     0.000 HD 
BRANCH  14  22
HETATM   22  C   UNL     1      -8.888  16.420  68.073  1.00  0.00    -0.184 C  
BRANCH  22  23
HETATM   23  O   UNL     1      -7.715  17.110  68.486  1.00  0.00    -0.226 OA 
HETATM   24  P   UNL     1      -6.723  16.155  69.535  1.00  0.00    -0.103 P  
HETATM   25  O   UNL     1      -5.837  15.301  70.472  1.00  0.00    -0.136 OA 
HETATM   26  O   UNL     1      -6.062  15.576  68.160  1.00  0.00    -0.112 OA 
HETATM   27  O   UNL     1      -5.810  17.502  69.691  1.00  0.00    -0.218 OA 
ENDBRANCH  22  23
ENDBRANCH  14  22
ENDBRANCH   8  13
TORSDOF 3
ENDMDL
MODEL       64
REMARK 921   NORMALIZED FREE ENERGY PREDICTED BY IDOCK:   -5.74 KCAL/MOL
REMARK 922        TOTAL FREE ENERGY PREDICTED BY IDOCK:   -7.22 KCAL/MOL
REMARK 923 INTER-LIGAND FREE ENERGY PREDICTED BY IDOCK:   -6.72 KCAL/MOL
REMARK 924 INTRA-LIGAND FREE ENERGY PREDICTED BY IDOCK:   -0.50 KCAL/MOL
REMARK 927      BINDING AFFINITY PREDICTED BY RF-SCORE:    0.00 PKD
ROOT
HETATM    1  N   UNL     1      -8.767  11.100  65.109  1.00  0.00    -0.379 NA 
HETATM    2  C   UNL     1      -9.436  11.569  66.229  1.00  0.00    -0.217 A  
HETATM    3  H1  UNL     1      -8.325  10.182  65.069  1.00  0.00     0.000 HD 
HETATM    4  H2  UNL     1      -8.057  11.791  64.866  1.00  0.00     0.000 HD 
HETATM    5  C   UNL     1     -10.044  12.833  66.284  1.00  0.00    -0.259 A  
HETATM    6  N   UNL     1     -10.134  13.852  65.366  1.00  0.00    -0.323 NA 
HETATM    7  C   UNL     1     -10.776  14.815  65.995  1.00  0.00    -0.312 A  
HETATM    8  N   UNL     1     -11.139  14.444  67.269  1.00  0.00    -0.301 NA 
HETATM    9  N   UNL     1      -9.479  10.784  67.329  1.00  0.00    -0.158 NA 
HETATM   10  C   UNL     1     -10.663  13.180  67.478  1.00  0.00    -0.238 A  
HETATM   11  N   UNL     1     -10.731  12.437  68.595  1.00  0.00    -0.232 NA 
HETATM   12  C   UNL     1     -10.124  11.244  68.420  1.00  0.00    -0.195 A  
ENDROOT
BRANCH   8  13
HETATM   13  C   UNL     1     -11.892  15.298  68.163  1.00  0.00    -0.195 C  
HETATM   14  C   UNL     1     -10.370  16.685  69.270  1.00  0.00    -0.318 C  
HETATM   15  C   UNL     1     -10.882  15.705  70.329  1.00  0.00    -0.350 C  
HETATM   16  O   UNL     1     -13.280  15.481  70.195  1.00  0.00    -0.680 OA 
HETATM   17  O   UNL     1     -11.274  16.599  68.146  1.00  0.00    -0.339 OA 
HETATM   18  C   UNL     1     -12.037  14.961  69.655  1.00  0.00    -0.295 C  
HETATM   19  H   UNL     1     -13.369  15.272  71.118  1.00  0.00     0.000 HD 
HETATM   20  O   UNL     1     -11.309  16.427  71.490  1.00  0.00    -0.337 OA 
HETATM   21  H   UNL     1     -11.626  15.818  72.147  1.00  0.00     0.000 HD 
BRANCH  14  22
HETATM   22  C   UNL     1      -8.932  16.334  68.865  1.00  0.00    -0.248 C  
BRANCH  22  23
HETATM   23  O   UNL     1      -8.602  16.911  67.607  1.00  0.00    -0.204 OA 
HETATM   24  P   UNL     1      -8.170  18.581  67.742  1.00  0.00    -0.259 P  
HETATM   25  O   UNL     1      -7.784  20.075  67.863  1.00  0.00    -0.289 OA 
HETATM   26  O   UNL     1      -6.663  18.029  68.037  1.00  0.00    -0.191 OA 
HETATM   27  O   UNL     1      -8.114  18.569  66.108  1.00  0.00    -0.398 OA 
ENDBRANCH  22  23
ENDBRANCH  14  22
ENDBRANCH   8  13
TORSDOF 3
ENDMDL
MODEL       65
REMARK 921   NORMALIZED FREE ENERGY PREDICTED BY IDOCK:   -5.71 KCAL/MOL
REMARK 922        TOTAL FREE ENERGY PREDICTED BY IDOCK:   -7.19 KCAL/MOL
REMARK 923 INTER-LIGAND FREE ENERGY PREDICTED BY IDOCK:   -7.29 KCAL/MOL
REMARK 924 INTRA-LIGAND FREE ENERGY PREDICTED BY IDOCK:    0.10 KCAL/MOL
REMARK 927      BINDING AFFINITY PREDICTED BY RF-SCORE:    0.00 PKD
ROOT
HETATM    1  N   UNL     1     -13.240  15.821  74.143  1.00  0.00    -0.754 NA 
HETATM    2  C   UNL     1     -12.677  15.592  72.896  1.00  0.00    -0.439 A  
HETATM    3  H1  UNL     1     -13.119  16.694  74.655  1.00  0.00     0.000 HD 
HETATM    4  H2  UNL     1     -12.941  15.063  74.757  1.00  0.00     0.000 HD 
HETATM    5  C   UNL     1     -12.844  14.390  72.191  1.00  0.00    -0.342 A  
HETATM    6  N   UNL     1     -13.518  13.231  72.494  1.00  0.00    -0.576 NA 
HETATM    7  C   UNL     1     -13.278  12.427  71.478  1.00  0.00    -0.190 A  
HETATM    8  N   UNL     1     -12.510  13.035  70.512  1.00  0.00    -0.276 NA 
HETATM    9  N   UNL     1     -11.908  16.560  72.349  1.00  0.00    -0.482 NA 
HETATM   10  C   UNL     1     -12.207  14.290  70.961  1.00  0.00    -0.356 A  
HETATM   11  N   UNL     1     -11.434  15.222  70.378  1.00  0.00    -0.274 NA 
HETATM   12  C   UNL     1     -11.357  16.333  71.140  1.00  0.00    -0.246 A  
ENDROOT
BRANCH   8  13
HETATM   13  C   UNL     1     -12.134  12.391  69.271  1.00  0.00    -0.165 C  
HETATM   14  C   UNL     1     -11.509  10.194  69.772  1.00  0.00    -0.228 C  
HETATM   15  C   UNL     1     -10.214  10.916  69.391  1.00  0.00    -0.122 C  
HETATM   16  O   UNL     1     -10.530  12.243  67.402  1.00  0.00    -0.208 OA 
HETATM   17  O   UNL     1     -12.602  11.030  69.329  1.00  0.00    -0.361 OA 
HETATM   18  C   UNL     1     -10.662  12.274  68.847  1.00  0.00    -0.172 C  
HETATM   19  H   UNL     1      -9.620  12.172  67.140  1.00  0.00     0.000 HD 
HETATM   20  O   UNL     1      -9.504  10.150  68.411  1.00  0.00    -0.139 OA 
HETATM   21  H   UNL     1      -8.700  10.597  68.175  1.00  0.00     0.000 HD 
BRANCH  14  22
HETATM   22  C   UNL     1     -11.563   9.954  71.286  1.00  0.00    -0.379 C  
BRANCH  22  23
HETATM   23  O   UNL     1     -12.522   8.954  71.610  1.00  0.00    -0.311 OA 
HETATM   24  P   UNL     1     -11.915   7.353  71.357  1.00  0.00    -0.341 P  
HETATM   25  O   UNL     1     -11.372   5.922  71.130  1.00  0.00    -0.262 OA 
HETATM   26  O   UNL     1     -11.333   7.478  72.876  1.00  0.00    -0.339 OA 
HETATM   27  O   UNL     1     -13.430   6.856  71.720  1.00  0.00    -0.325 OA 
ENDBRANCH  22  23
ENDBRANCH  14  22
ENDBRANCH   8  13
TORSDOF 3
ENDMDL
MODEL       66
REMARK 921   NORMALIZED FREE ENERGY PREDICTED BY IDOCK:   -5.71 KCAL/MOL
REMARK 922        TOTAL FREE ENERGY PREDICTED BY IDOCK:   -7.18 KCAL/MOL
REMARK 923 INTER-LIGAND FREE ENERGY PREDICTED BY IDOCK:   -6.43 KCAL/MOL
REMARK 924 INTRA-LIGAND FREE ENERGY PREDICTED BY IDOCK:   -0.75 KCAL/MOL
REMARK 927      BINDING AFFINITY PREDICTED BY RF-SCORE:    0.00 PKD
ROOT
HETATM    1  N   UNL     1      -6.685  18.979  67.552  1.00  0.00    -0.202 NA 
HETATM    2  C   UNL     1      -7.991  18.563  67.770  1.00  0.00    -0.250 A  
HETATM    3  H1  UNL     1      -6.268  19.775  68.034  1.00  0.00     0.000 HD 
HETATM    4  H2  UNL     1      -6.579  19.140  66.550  1.00  0.00     0.000 HD 
HETATM    5  C   UNL     1      -8.565  17.468  67.105  1.00  0.00    -0.225 A  
HETATM    6  N   UNL     1      -8.070  16.604  66.157  1.00  0.00    -0.362 NA 
HETATM    7  C   UNL     1      -9.082  15.811  65.866  1.00  0.00    -0.265 A  
HETATM    8  N   UNL     1     -10.197  16.103  66.616  1.00  0.00    -0.279 NA 
HETATM    9  N   UNL     1      -8.754  19.263  68.639  1.00  0.00    -0.362 NA 
HETATM   10  C   UNL     1      -9.888  17.175  67.406  1.00  0.00    -0.264 A  
HETATM   11  N   UNL     1     -10.686  17.840  68.259  1.00  0.00    -0.306 NA 
HETATM   12  C   UNL     1     -10.024  18.861  68.844  1.00  0.00    -0.378 A  
ENDROOT
BRANCH   8  13
HETATM   13  C   UNL     1     -11.434  15.358  66.526  1.00  0.00    -0.015 C  
HETATM   14  C   UNL     1     -11.233  13.476  67.900  1.00  0.00    -0.274 C  
HETATM   15  C   UNL     1     -11.207  12.945  66.465  1.00  0.00    -0.302 C  
HETATM   16  O   UNL     1     -12.940  13.977  65.142  1.00  0.00    -0.744 OA 
HETATM   17  O   UNL     1     -11.723  14.834  67.836  1.00  0.00    -0.342 OA 
HETATM   18  C   UNL     1     -11.570  14.147  65.590  1.00  0.00    -0.339 C  
HETATM   19  H   UNL     1     -13.023  13.229  64.563  1.00  0.00     0.000 HD 
HETATM   20  O   UNL     1     -12.149  11.874  66.329  1.00  0.00    -0.535 OA 
HETATM   21  H   UNL     1     -12.133  11.544  65.438  1.00  0.00     0.000 HD 
BRANCH  14  22
HETATM   22  C   UNL     1      -9.830  13.414  68.519  1.00  0.00    -0.178 C  
BRANCH  22  23
HETATM   23  O   UNL     1      -9.135  12.248  68.092  1.00  0.00    -0.187 OA 
HETATM   24  P   UNL     1      -7.521  12.596  67.575  1.00  0.00    -0.135 P  
HETATM   25  O   UNL     1      -6.077  12.908  67.113  1.00  0.00    -0.304 OA 
HETATM   26  O   UNL     1      -7.123  12.422  69.148  1.00  0.00    -0.082 OA 
HETATM   27  O   UNL     1      -7.456  11.023  67.136  1.00  0.00    -0.105 OA 
ENDBRANCH  22  23
ENDBRANCH  14  22
ENDBRANCH   8  13
TORSDOF 3
ENDMDL
MODEL       67
REMARK 921   NORMALIZED FREE ENERGY PREDICTED BY IDOCK:   -5.71 KCAL/MOL
REMARK 922        TOTAL FREE ENERGY PREDICTED BY IDOCK:   -7.18 KCAL/MOL
REMARK 923 INTER-LIGAND FREE ENERGY PREDICTED BY IDOCK:   -6.44 KCAL/MOL
REMARK 924 INTRA-LIGAND FREE ENERGY PREDICTED BY IDOCK:   -0.74 KCAL/MOL
REMARK 927      BINDING AFFINITY PREDICTED BY RF-SCORE:    0.00 PKD
ROOT
HETATM    1  N   UNL     1      -7.975  10.046  70.550  1.00  0.00    -0.424 NA 
HETATM    2  C   UNL     1      -7.864  10.869  69.439  1.00  0.00    -0.040 A  
HETATM    3  H1  UNL     1      -7.315  10.071  71.327  1.00  0.00     0.000 HD 
HETATM    4  H2  UNL     1      -8.015   9.084  70.215  1.00  0.00     0.000 HD 
HETATM    5  C   UNL     1      -8.772  10.835  68.368  1.00  0.00    -0.142 A  
HETATM    6  N   UNL     1      -9.887  10.067  68.132  1.00  0.00    -0.140 NA 
HETATM    7  C   UNL     1     -10.305  10.440  66.939  1.00  0.00    -0.240 A  
HETATM    8  N   UNL     1      -9.528  11.446  66.414  1.00  0.00    -0.198 NA 
HETATM    9  N   UNL     1      -6.817  11.721  69.370  1.00  0.00    -0.098 NA 
HETATM   10  C   UNL     1      -8.528  11.701  67.311  1.00  0.00    -0.156 A  
HETATM   11  N   UNL     1      -7.504  12.563  67.197  1.00  0.00    -0.118 NA 
HETATM   12  C   UNL     1      -6.708  12.515  68.286  1.00  0.00    -0.079 A  
ENDROOT
BRANCH   8  13
HETATM   13  C   UNL     1      -9.792  12.071  65.135  1.00  0.00    -0.200 C  
HETATM   14  C   UNL     1     -11.611  13.513  65.410  1.00  0.00    -0.316 C  
HETATM   15  C   UNL     1     -12.131  12.349  64.563  1.00  0.00    -0.417 C  
HETATM   16  O   UNL     1     -10.568  11.806  62.808  1.00  0.00    -0.613 OA 
HETATM   17  O   UNL     1     -10.168  13.438  65.387  1.00  0.00    -0.302 OA 
HETATM   18  C   UNL     1     -10.886  11.537  64.198  1.00  0.00    -0.372 C  
HETATM   19  H   UNL     1     -11.244  11.476  62.228  1.00  0.00     0.000 HD 
HETATM   20  O   UNL     1     -12.803  12.856  63.404  1.00  0.00    -0.650 OA 
HETATM   21  H   UNL     1     -13.126  12.134  62.879  1.00  0.00     0.000 HD 
BRANCH  14  22
HETATM   22  C   UNL     1     -12.157  13.420  66.841  1.00  0.00    -0.354 C  
BRANCH  22  23
HETATM   23  O   UNL     1     -12.001  14.656  67.528  1.00  0.00    -0.375 OA 
HETATM   24  P   UNL     1     -11.892  14.448  69.242  1.00  0.00    -0.319 P  
HETATM   25  O   UNL     1     -11.794  14.262  70.775  1.00  0.00    -0.307 OA 
HETATM   26  O   UNL     1     -10.295  14.237  68.980  1.00  0.00    -0.231 OA 
HETATM   27  O   UNL     1     -11.909  16.081  69.316  1.00  0.00    -0.345 OA 
ENDBRANCH  22  23
ENDBRANCH  14  22
ENDBRANCH   8  13
TORSDOF 3
ENDMDL
MODEL       68
REMARK 921   NORMALIZED FREE ENERGY PREDICTED BY IDOCK:   -5.70 KCAL/MOL
REMARK 922        TOTAL FREE ENERGY PREDICTED BY IDOCK:   -7.17 KCAL/MOL
REMARK 923 INTER-LIGAND FREE ENERGY PREDICTED BY IDOCK:   -6.96 KCAL/MOL
REMARK 924 INTRA-LIGAND FREE ENERGY PREDICTED BY IDOCK:   -0.22 KCAL/MOL
REMARK 927      BINDING AFFINITY PREDICTED BY RF-SCORE:    0.00 PKD
ROOT
HETATM    1  N   UNL     1      -8.609  11.362  67.478  1.00  0.00    -0.134 NA 
HETATM    2  C   UNL     1      -9.734  11.170  68.265  1.00  0.00    -0.188 A  
HETATM    3  H1  UNL     1      -8.609  11.947  66.642  1.00  0.00     0.000 HD 
HETATM    4  H2  UNL     1      -8.266  10.441  67.205  1.00  0.00     0.000 HD 
HETATM    5  C   UNL     1      -9.734  10.365  69.416  1.00  0.00    -0.200 A  
HETATM    6  N   UNL     1      -8.749   9.618  70.016  1.00  0.00    -0.218 NA 
HETATM    7  C   UNL     1      -9.346   9.033  71.035  1.00  0.00    -0.271 A  
HETATM    8  N   UNL     1     -10.666   9.404  71.140  1.00  0.00    -0.324 NA 
HETATM    9  N   UNL     1     -10.892  11.761  67.891  1.00  0.00    -0.201 NA 
HETATM   10  C   UNL     1     -10.938  10.246  70.098  1.00  0.00    -0.314 A  
HETATM   11  N   UNL     1     -12.111  10.812  69.766  1.00  0.00    -0.323 NA 
HETATM   12  C   UNL     1     -11.985  11.568  68.655  1.00  0.00    -0.246 A  
ENDROOT
BRANCH   8  13
HETATM   13  C   UNL     1     -11.542   8.941  72.196  1.00  0.00    -0.330 C  
HETATM   14  C   UNL     1     -12.024   6.691  71.783  1.00  0.00    -0.345 C  
HETATM   15  C   UNL     1     -13.324   7.449  71.505  1.00  0.00    -0.372 C  
HETATM   16  O   UNL     1     -13.767   9.050  73.255  1.00  0.00    -1.072 OA 
HETATM   17  O   UNL     1     -11.161   7.589  72.515  1.00  0.00    -0.272 OA 
HETATM   18  C   UNL     1     -13.064   8.875  71.997  1.00  0.00    -0.402 C  
HETATM   19  H   UNL     1     -14.709   9.009  73.132  1.00  0.00     0.000 HD 
HETATM   20  O   UNL     1     -14.407   6.826  72.205  1.00  0.00    -0.629 OA 
HETATM   21  H   UNL     1     -15.214   7.297  72.033  1.00  0.00     0.000 HD 
BRANCH  14  22
HETATM   22  C   UNL     1     -11.377   6.237  70.468  1.00  0.00    -0.361 C  
BRANCH  22  23
HETATM   23  O   UNL     1      -9.972   6.070  70.621  1.00  0.00    -0.176 OA 
HETATM   24  P   UNL     1      -9.555   4.488  71.185  1.00  0.00    -0.197 P  
HETATM   25  O   UNL     1      -9.182   3.073  71.689  1.00  0.00    -0.096 OA 
HETATM   26  O   UNL     1      -9.569   4.069  69.608  1.00  0.00    -0.182 OA 
HETATM   27  O   UNL     1      -8.025   5.057  71.268  1.00  0.00    -0.103 OA 
ENDBRANCH  22  23
ENDBRANCH  14  22
ENDBRANCH   8  13
TORSDOF 3
ENDMDL
MODEL       69
REMARK 921   NORMALIZED FREE ENERGY PREDICTED BY IDOCK:   -5.70 KCAL/MOL
REMARK 922        TOTAL FREE ENERGY PREDICTED BY IDOCK:   -7.17 KCAL/MOL
REMARK 923 INTER-LIGAND FREE ENERGY PREDICTED BY IDOCK:   -6.81 KCAL/MOL
REMARK 924 INTRA-LIGAND FREE ENERGY PREDICTED BY IDOCK:   -0.36 KCAL/MOL
REMARK 927      BINDING AFFINITY PREDICTED BY RF-SCORE:    0.00 PKD
ROOT
HETATM    1  N   UNL     1     -14.322  15.383  71.688  1.00  0.00    -0.520 NA 
HETATM    2  C   UNL     1     -13.178  15.063  70.971  1.00  0.00    -0.425 A  
HETATM    3  H1  UNL     1     -14.641  16.341  71.826  1.00  0.00     0.000 HD 
HETATM    4  H2  UNL     1     -14.235  14.954  72.609  1.00  0.00     0.000 HD 
HETATM    5  C   UNL     1     -12.739  13.743  70.781  1.00  0.00    -0.290 A  
HETATM    6  N   UNL     1     -13.242  12.536  71.204  1.00  0.00    -0.029 NA 
HETATM    7  C   UNL     1     -12.378  11.641  70.768  1.00  0.00    -0.358 A  
HETATM    8  N   UNL     1     -11.360  12.220  70.046  1.00  0.00    -0.037 NA 
HETATM    9  N   UNL     1     -12.436  16.070  70.459  1.00  0.00    -0.236 NA 
HETATM   10  C   UNL     1     -11.566  13.571  70.059  1.00  0.00    -0.164 A  
HETATM   11  N   UNL     1     -10.795  14.537  69.532  1.00  0.00    -0.219 NA 
HETATM   12  C   UNL     1     -11.322  15.758  69.768  1.00  0.00    -0.339 A  
ENDROOT
BRANCH   8  13
HETATM   13  C   UNL     1     -10.299  11.461  69.418  1.00  0.00     0.058 C  
HETATM   14  C   UNL     1     -10.621  11.570  67.105  1.00  0.00    -0.237 C  
HETATM   15  C   UNL     1     -10.953  10.129  67.500  1.00  0.00    -0.255 C  
HETATM   16  O   UNL     1      -9.282   9.251  69.002  1.00  0.00    -0.140 OA 
HETATM   17  O   UNL     1      -9.915  12.160  68.219  1.00  0.00    -0.203 OA 
HETATM   18  C   UNL     1     -10.519  10.010  68.963  1.00  0.00    -0.214 C  
HETATM   19  H   UNL     1      -9.418   8.354  68.721  1.00  0.00     0.000 HD 
HETATM   20  O   UNL     1     -10.244   9.220  66.651  1.00  0.00    -0.256 OA 
HETATM   21  H   UNL     1     -10.450   8.325  66.896  1.00  0.00     0.000 HD 
BRANCH  14  22
HETATM   22  C   UNL     1     -11.905  12.345  66.779  1.00  0.00    -0.315 C  
BRANCH  22  23
HETATM   23  O   UNL     1     -12.214  12.262  65.393  1.00  0.00    -0.546 OA 
HETATM   24  P   UNL     1     -12.332  13.820  64.650  1.00  0.00    -0.305 P  
HETATM   25  O   UNL     1     -12.438  15.214  63.985  1.00  0.00    -0.771 OA 
HETATM   26  O   UNL     1     -10.720  13.692  64.437  1.00  0.00    -0.410 OA 
HETATM   27  O   UNL     1     -12.815  13.008  63.315  1.00  0.00    -0.596 OA 
ENDBRANCH  22  23
ENDBRANCH  14  22
ENDBRANCH   8  13
TORSDOF 3
ENDMDL
MODEL       70
REMARK 921   NORMALIZED FREE ENERGY PREDICTED BY IDOCK:   -5.69 KCAL/MOL
REMARK 922        TOTAL FREE ENERGY PREDICTED BY IDOCK:   -7.16 KCAL/MOL
REMARK 923 INTER-LIGAND FREE ENERGY PREDICTED BY IDOCK:   -6.51 KCAL/MOL
REMARK 924 INTRA-LIGAND FREE ENERGY PREDICTED BY IDOCK:   -0.64 KCAL/MOL
REMARK 927      BINDING AFFINITY PREDICTED BY RF-SCORE:    0.00 PKD
ROOT
HETATM    1  N   UNL     1     -10.967  18.669  65.274  1.00  0.00    -0.360 NA 
HETATM    2  C   UNL     1     -10.392  17.428  65.508  1.00  0.00    -0.060 A  
HETATM    3  H1  UNL     1     -10.546  19.544  65.587  1.00  0.00     0.000 HD 
HETATM    4  H2  UNL     1     -11.918  18.639  65.642  1.00  0.00     0.000 HD 
HETATM    5  C   UNL     1     -10.971  16.224  65.077  1.00  0.00    -0.298 A  
HETATM    6  N   UNL     1     -12.134  15.954  64.396  1.00  0.00    -0.360 NA 
HETATM    7  C   UNL     1     -12.181  14.639  64.321  1.00  0.00    -0.408 A  
HETATM    8  N   UNL     1     -11.076  14.052  64.892  1.00  0.00    -0.356 NA 
HETATM    9  N   UNL     1      -9.237  17.375  66.208  1.00  0.00    -0.417 NA 
HETATM   10  C   UNL     1     -10.296  15.054  65.398  1.00  0.00    -0.383 A  
HETATM   11  N   UNL     1      -9.149  14.950  66.090  1.00  0.00    -0.233 NA 
HETATM   12  C   UNL     1      -8.683  16.168  66.439  1.00  0.00    -0.325 A  
ENDROOT
BRANCH   8  13
HETATM   13  C   UNL     1     -10.855  12.621  64.910  1.00  0.00    -0.298 C  
HETATM   14  C   UNL     1     -11.474  11.832  67.022  1.00  0.00    -0.298 C  
HETATM   15  C   UNL     1      -9.948  11.723  66.971  1.00  0.00    -0.204 C  
HETATM   16  O   UNL     1      -9.232  10.763  64.877  1.00  0.00    -0.197 OA 
HETATM   17  O   UNL     1     -11.927  12.024  65.663  1.00  0.00    -0.479 OA 
HETATM   18  C   UNL     1      -9.578  12.020  65.516  1.00  0.00    -0.159 C  
HETATM   19  H   UNL     1      -8.442  10.391  65.251  1.00  0.00     0.000 HD 
HETATM   20  O   UNL     1      -9.544  10.409  67.373  1.00  0.00    -0.152 OA 
HETATM   21  H   UNL     1      -8.597  10.341  67.342  1.00  0.00     0.000 HD 
BRANCH  14  22
HETATM   22  C   UNL     1     -11.897  12.998  67.926  1.00  0.00    -0.343 C  
BRANCH  22  23
HETATM   23  O   UNL     1     -10.786  13.510  68.651  1.00  0.00    -0.245 OA 
HETATM   24  P   UNL     1     -11.066  15.114  69.238  1.00  0.00    -0.315 P  
HETATM   25  O   UNL     1     -11.315  16.549  69.762  1.00  0.00    -0.239 OA 
HETATM   26  O   UNL     1     -11.742  14.380  70.528  1.00  0.00    -0.286 OA 
HETATM   27  O   UNL     1      -9.507  15.072  69.728  1.00  0.00    -0.098 OA 
ENDBRANCH  22  23
ENDBRANCH  14  22
ENDBRANCH   8  13
TORSDOF 3
ENDMDL
MODEL       71
REMARK 921   NORMALIZED FREE ENERGY PREDICTED BY IDOCK:   -5.63 KCAL/MOL
REMARK 922        TOTAL FREE ENERGY PREDICTED BY IDOCK:   -7.09 KCAL/MOL
REMARK 923 INTER-LIGAND FREE ENERGY PREDICTED BY IDOCK:   -6.43 KCAL/MOL
REMARK 924 INTRA-LIGAND FREE ENERGY PREDICTED BY IDOCK:   -0.66 KCAL/MOL
REMARK 927      BINDING AFFINITY PREDICTED BY RF-SCORE:    0.00 PKD
ROOT
HETATM    1  N   UNL     1     -11.806  12.678  68.200  1.00  0.00    -0.336 NA 
HETATM    2  C   UNL     1     -10.945  11.737  68.746  1.00  0.00    -0.234 A  
HETATM    3  H1  UNL     1     -11.552  13.269  67.409  1.00  0.00     0.000 HD 
HETATM    4  H2  UNL     1     -12.106  13.293  68.956  1.00  0.00     0.000 HD 
HETATM    5  C   UNL     1     -11.294  10.923  69.836  1.00  0.00    -0.305 A  
HETATM    6  N   UNL     1     -12.439  10.839  70.592  1.00  0.00    -0.344 NA 
HETATM    7  C   UNL     1     -12.169   9.934  71.510  1.00  0.00    -0.416 A  
HETATM    8  N   UNL     1     -10.910   9.402  71.353  1.00  0.00    -0.359 NA 
HETATM    9  N   UNL     1      -9.704  11.620  68.225  1.00  0.00    -0.192 NA 
HETATM   10  C   UNL     1     -10.327  10.038  70.293  1.00  0.00    -0.242 A  
HETATM   11  N   UNL     1      -9.083   9.886  69.809  1.00  0.00    -0.225 NA 
HETATM   12  C   UNL     1      -8.867  10.709  68.761  1.00  0.00    -0.161 A  
ENDROOT
BRANCH   8  13
HETATM   13  C   UNL     1     -10.375   8.358  72.201  1.00  0.00    -0.327 C  
HETATM   14  C   UNL     1     -10.852   6.306  71.188  1.00  0.00    -0.266 C  
HETATM   15  C   UNL     1     -11.752   6.376  72.423  1.00  0.00    -0.245 C  
HETATM   16  O   UNL     1     -10.508   7.140  74.343  1.00  0.00    -0.495 OA 
HETATM   17  O   UNL     1      -9.844   7.330  71.343  1.00  0.00    -0.185 OA 
HETATM   18  C   UNL     1     -11.269   7.604  73.197  1.00  0.00    -0.256 C  
HETATM   19  H   UNL     1     -11.061   6.675  74.959  1.00  0.00     0.000 HD 
HETATM   20  O   UNL     1     -11.620   5.171  73.186  1.00  0.00    -0.443 OA 
HETATM   21  H   UNL     1     -12.179   5.214  73.954  1.00  0.00     0.000 HD 
BRANCH  14  22
HETATM   22  C   UNL     1     -11.677   6.518  69.911  1.00  0.00    -0.283 C  
BRANCH  22  23
HETATM   23  O   UNL     1     -11.131   5.782  68.823  1.00  0.00    -0.243 OA 
HETATM   24  P   UNL     1     -10.614   6.807  67.528  1.00  0.00    -0.340 P  
HETATM   25  O   UNL     1     -10.152   7.724  66.370  1.00  0.00    -0.191 OA 
HETATM   26  O   UNL     1      -9.206   6.904  68.346  1.00  0.00    -0.127 OA 
HETATM   27  O   UNL     1     -10.324   5.421  66.713  1.00  0.00    -0.217 OA 
ENDBRANCH  22  23
ENDBRANCH  14  22
ENDBRANCH   8  13
TORSDOF 3
ENDMDL
MODEL       72
REMARK 921   NORMALIZED FREE ENERGY PREDICTED BY IDOCK:   -5.63 KCAL/MOL
REMARK 922        TOTAL FREE ENERGY PREDICTED BY IDOCK:   -7.08 KCAL/MOL
REMARK 923 INTER-LIGAND FREE ENERGY PREDICTED BY IDOCK:   -6.66 KCAL/MOL
REMARK 924 INTRA-LIGAND FREE ENERGY PREDICTED BY IDOCK:   -0.43 KCAL/MOL
REMARK 927      BINDING AFFINITY PREDICTED BY RF-SCORE:    0.00 PKD
ROOT
HETATM    1  N   UNL     1      -6.439  17.453  68.432  1.00  0.00    -0.172 NA 
HETATM    2  C   UNL     1      -6.972  16.218  68.096  1.00  0.00    -0.128 A  
HETATM    3  H1  UNL     1      -5.479  17.576  68.752  1.00  0.00     0.000 HD 
HETATM    4  H2  UNL     1      -7.050  17.868  69.136  1.00  0.00     0.000 HD 
HETATM    5  C   UNL     1      -8.295  16.049  67.656  1.00  0.00    -0.151 A  
HETATM    6  N   UNL     1      -9.322  16.942  67.465  1.00  0.00    -0.230 NA 
HETATM    7  C   UNL     1     -10.346  16.201  67.094  1.00  0.00    -0.291 A  
HETATM    8  N   UNL     1     -10.010  14.870  66.999  1.00  0.00    -0.237 NA 
HETATM    9  N   UNL     1      -6.191  15.122  68.228  1.00  0.00    -0.109 NA 
HETATM   10  C   UNL     1      -8.701  14.752  67.374  1.00  0.00    -0.198 A  
HETATM   11  N   UNL     1      -7.964  13.634  67.489  1.00  0.00    -0.172 NA 
HETATM   12  C   UNL     1      -6.712  13.921  67.907  1.00  0.00    -0.159 A  
ENDROOT
BRANCH   8  13
HETATM   13  C   UNL     1     -10.937  13.844  66.571  1.00  0.00    -0.300 C  
HETATM   14  C   UNL     1     -12.034  13.039  68.472  1.00  0.00    -0.261 C  
HETATM   15  C   UNL     1     -11.106  11.908  68.021  1.00  0.00    -0.240 C  
HETATM   16  O   UNL     1     -11.255  11.583  65.635  1.00  0.00    -0.253 OA 
HETATM   17  O   UNL     1     -12.127  13.971  67.371  1.00  0.00    -0.402 OA 
HETATM   18  C   UNL     1     -10.572  12.354  66.658  1.00  0.00    -0.231 C  
HETATM   19  H   UNL     1     -11.029  10.662  65.689  1.00  0.00     0.000 HD 
HETATM   20  O   UNL     1     -11.842  10.683  67.938  1.00  0.00    -0.738 OA 
HETATM   21  H   UNL     1     -11.266   9.981  67.658  1.00  0.00     0.000 HD 
BRANCH  14  22
HETATM   22  C   UNL     1     -11.482  13.714  69.735  1.00  0.00    -0.187 C  
BRANCH  22  23
HETATM   23  O   UNL     1     -12.354  14.743  70.185  1.00  0.00    -0.316 OA 
HETATM   24  P   UNL     1     -13.083  14.369  71.710  1.00  0.00    -0.410 P  
HETATM   25  O   UNL     1     -13.735  14.034  73.073  1.00  0.00    -0.612 OA 
HETATM   26  O   UNL     1     -11.743  15.033  72.361  1.00  0.00    -0.375 OA 
HETATM   27  O   UNL     1     -13.947  15.739  71.491  1.00  0.00    -0.485 OA 
ENDBRANCH  22  23
ENDBRANCH  14  22
ENDBRANCH   8  13
TORSDOF 3
ENDMDL
MODEL       73
REMARK 921   NORMALIZED FREE ENERGY PREDICTED BY IDOCK:   -5.57 KCAL/MOL
REMARK 922        TOTAL FREE ENERGY PREDICTED BY IDOCK:   -7.02 KCAL/MOL
REMARK 923 INTER-LIGAND FREE ENERGY PREDICTED BY IDOCK:   -6.66 KCAL/MOL
REMARK 924 INTRA-LIGAND FREE ENERGY PREDICTED BY IDOCK:   -0.35 KCAL/MOL
REMARK 927      BINDING AFFINITY PREDICTED BY RF-SCORE:    0.00 PKD
ROOT
HETATM    1  N   UNL     1     -13.622  12.611  72.625  1.00  0.00    -0.661 NA 
HETATM    2  C   UNL     1     -13.097  13.826  72.210  1.00  0.00    -0.405 A  
HETATM    3  H1  UNL     1     -13.954  12.445  73.574  1.00  0.00     0.000 HD 
HETATM    4  H2  UNL     1     -12.930  11.891  72.414  1.00  0.00     0.000 HD 
HETATM    5  C   UNL     1     -12.638  14.055  70.903  1.00  0.00    -0.361 A  
HETATM    6  N   UNL     1     -12.572  13.243  69.796  1.00  0.00    -0.001 NA 
HETATM    7  C   UNL     1     -12.001  13.985  68.869  1.00  0.00    -0.352 A  
HETATM    8  N   UNL     1     -11.731  15.255  69.322  1.00  0.00    -0.320 NA 
HETATM    9  N   UNL     1     -12.994  14.826  73.114  1.00  0.00    -0.504 NA 
HETATM   10  C   UNL     1     -12.118  15.313  70.632  1.00  0.00    -0.354 A  
HETATM   11  N   UNL     1     -11.995  16.336  71.494  1.00  0.00    -0.411 NA 
HETATM   12  C   UNL     1     -12.478  16.004  72.711  1.00  0.00    -0.487 A  
ENDROOT
BRANCH   8  13
HETATM   13  C   UNL     1     -11.143  16.288  68.495  1.00  0.00    -0.368 C  
HETATM   14  C   UNL     1      -8.979  15.602  67.934  1.00  0.00    -0.180 C  
HETATM   15  C   UNL     1      -8.803  16.765  68.914  1.00  0.00    -0.228 C  
HETATM   16  O   UNL     1     -10.272  18.591  68.341  1.00  0.00    -0.371 OA 
HETATM   17  O   UNL     1     -10.352  15.636  67.483  1.00  0.00    -0.265 OA 
HETATM   18  C   UNL     1     -10.207  17.350  69.091  1.00  0.00    -0.273 C  
HETATM   19  H   UNL     1      -9.693  19.248  68.710  1.00  0.00     0.000 HD 
HETATM   20  O   UNL     1      -7.885  17.721  68.370  1.00  0.00    -0.264 OA 
HETATM   21  H   UNL     1      -7.776  18.443  68.978  1.00  0.00     0.000 HD 
BRANCH  14  22
HETATM   22  C   UNL     1      -8.645  14.270  68.619  1.00  0.00    -0.149 C  
BRANCH  22  23
HETATM   23  O   UNL     1      -8.564  13.214  67.669  1.00  0.00    -0.168 OA 
HETATM   24  P   UNL     1      -7.826  11.793  68.325  1.00  0.00    -0.147 P  
HETATM   25  O   UNL     1      -7.166  10.523  68.912  1.00  0.00    -0.073 OA 
HETATM   26  O   UNL     1      -9.329  11.407  68.827  1.00  0.00    -0.179 OA 
HETATM   27  O   UNL     1      -7.919  11.196  66.806  1.00  0.00    -0.144 OA 
ENDBRANCH  22  23
ENDBRANCH  14  22
ENDBRANCH   8  13
TORSDOF 3
ENDMDL
MODEL       74
REMARK 921   NORMALIZED FREE ENERGY PREDICTED BY IDOCK:   -5.57 KCAL/MOL
REMARK 922        TOTAL FREE ENERGY PREDICTED BY IDOCK:   -7.02 KCAL/MOL
REMARK 923 INTER-LIGAND FREE ENERGY PREDICTED BY IDOCK:   -6.35 KCAL/MOL
REMARK 924 INTRA-LIGAND FREE ENERGY PREDICTED BY IDOCK:   -0.66 KCAL/MOL
REMARK 927      BINDING AFFINITY PREDICTED BY RF-SCORE:    0.00 PKD
ROOT
HETATM    1  N   UNL     1      -9.843  20.782  66.405  1.00  0.00    -0.516 NA 
HETATM    2  C   UNL     1      -8.872  19.792  66.413  1.00  0.00    -0.377 A  
HETATM    3  H1  UNL     1      -9.813  21.585  65.778  1.00  0.00     0.000 HD 
HETATM    4  H2  UNL     1      -9.921  21.141  67.357  1.00  0.00     0.000 HD 
HETATM    5  C   UNL     1      -8.913  18.686  67.277  1.00  0.00    -0.274 A  
HETATM    6  N   UNL     1      -9.808  18.313  68.252  1.00  0.00    -0.330 NA 
HETATM    7  C   UNL     1      -9.301  17.212  68.768  1.00  0.00    -0.252 A  
HETATM    8  N   UNL     1      -8.136  16.838  68.140  1.00  0.00    -0.191 NA 
HETATM    9  N   UNL     1      -7.821  19.914  65.571  1.00  0.00    -0.335 NA 
HETATM   10  C   UNL     1      -7.863  17.782  67.190  1.00  0.00    -0.211 A  
HETATM   11  N   UNL     1      -6.800  17.860  66.372  1.00  0.00    -0.217 NA 
HETATM   12  C   UNL     1      -6.875  18.954  65.584  1.00  0.00    -0.257 A  
ENDROOT
BRANCH   8  13
HETATM   13  C   UNL     1      -7.396  15.642  68.482  1.00  0.00    -0.122 C  
HETATM   14  C   UNL     1      -8.203  13.900  67.148  1.00  0.00    -0.109 C  
HETATM   15  C   UNL     1      -8.688  13.593  68.566  1.00  0.00    -0.102 C  
HETATM   16  O   UNL     1      -6.907  13.903  70.163  1.00  0.00    -0.377 OA 
HETATM   17  O   UNL     1      -7.172  14.906  67.265  1.00  0.00    -0.194 OA 
HETATM   18  C   UNL     1      -7.966  14.604  69.460  1.00  0.00     0.063 C  
HETATM   19  H   UNL     1      -7.260  13.261  70.768  1.00  0.00     0.000 HD 
HETATM   20  O   UNL     1      -8.361  12.240  68.907  1.00  0.00    -0.351 OA 
HETATM   21  H   UNL     1      -8.662  12.049  69.788  1.00  0.00     0.000 HD 
BRANCH  14  22
HETATM   22  C   UNL     1      -9.368  14.388  66.277  1.00  0.00    -0.232 C  
BRANCH  22  23
HETATM   23  O   UNL     1     -10.503  13.543  66.422  1.00  0.00    -0.279 OA 
HETATM   24  P   UNL     1     -11.146  13.036  64.898  1.00  0.00    -0.338 P  
HETATM   25  O   UNL     1     -11.722  12.584  63.534  1.00  0.00    -0.459 OA 
HETATM   26  O   UNL     1     -10.061  11.823  64.994  1.00  0.00    -0.249 OA 
HETATM   27  O   UNL     1     -12.347  12.354  65.773  1.00  0.00    -0.644 OA 
ENDBRANCH  22  23
ENDBRANCH  14  22
ENDBRANCH   8  13
TORSDOF 3
ENDMDL
MODEL       75
REMARK 921   NORMALIZED FREE ENERGY PREDICTED BY IDOCK:   -5.54 KCAL/MOL
REMARK 922        TOTAL FREE ENERGY PREDICTED BY IDOCK:   -6.98 KCAL/MOL
REMARK 923 INTER-LIGAND FREE ENERGY PREDICTED BY IDOCK:   -6.52 KCAL/MOL
REMARK 924 INTRA-LIGAND FREE ENERGY PREDICTED BY IDOCK:   -0.46 KCAL/MOL
REMARK 927      BINDING AFFINITY PREDICTED BY RF-SCORE:    0.00 PKD
ROOT
HETATM    1  N   UNL     1      -9.982   8.562  71.775  1.00  0.00    -0.246 NA 
HETATM    2  C   UNL     1     -10.863   9.398  71.105  1.00  0.00    -0.357 A  
HETATM    3  H1  UNL     1     -10.268   7.955  72.543  1.00  0.00     0.000 HD 
HETATM    4  H2  UNL     1      -9.211   9.138  72.113  1.00  0.00     0.000 HD 
HETATM    5  C   UNL     1     -10.469  10.233  70.047  1.00  0.00    -0.241 A  
HETATM    6  N   UNL     1      -9.250  10.450  69.451  1.00  0.00    -0.190 NA 
HETATM    7  C   UNL     1      -9.479  11.383  68.549  1.00  0.00    -0.183 A  
HETATM    8  N   UNL     1     -10.804  11.748  68.512  1.00  0.00    -0.212 NA 
HETATM    9  N   UNL     1     -12.153   9.431  71.508  1.00  0.00    -0.354 NA 
HETATM   10  C   UNL     1     -11.452  11.033  69.480  1.00  0.00    -0.299 A  
HETATM   11  N   UNL     1     -12.744  11.101  69.845  1.00  0.00    -0.101 NA 
HETATM   12  C   UNL     1     -13.006  10.249  70.858  1.00  0.00    -0.371 A  
ENDROOT
BRANCH   8  13
HETATM   13  C   UNL     1     -11.336  12.723  67.584  1.00  0.00    -0.310 C  
HETATM   14  C   UNL     1     -11.078  11.864  65.425  1.00  0.00    -0.306 C  
HETATM   15  C   UNL     1     -10.078  13.017  65.532  1.00  0.00    -0.259 C  
HETATM   16  O   UNL     1     -11.111  14.949  66.543  1.00  0.00    -0.334 OA 
HETATM   17  O   UNL     1     -12.000  12.002  66.529  1.00  0.00    -0.616 OA 
HETATM   18  C   UNL     1     -10.416  13.713  66.853  1.00  0.00    -0.272 C  
HETATM   19  H   UNL     1     -10.541  15.561  66.091  1.00  0.00     0.000 HD 
HETATM   20  O   UNL     1     -10.227  13.892  64.408  1.00  0.00    -0.654 OA 
HETATM   21  H   UNL     1      -9.606  14.608  64.475  1.00  0.00     0.000 HD 
BRANCH  14  22
HETATM   22  C   UNL     1     -10.347  10.515  65.470  1.00  0.00    -0.217 C  
BRANCH  22  23
HETATM   23  O   UNL     1      -8.999  10.651  65.036  1.00  0.00    -0.188 OA 
HETATM   24  P   UNL     1      -8.651   9.673  63.651  1.00  0.00    -0.223 P  
HETATM   25  O   UNL     1      -8.341   8.799  62.412  1.00  0.00    -0.179 OA 
HETATM   26  O   UNL     1      -9.201  10.942  62.784  1.00  0.00    -0.275 OA 
HETATM   27  O   UNL     1      -7.105  10.168  63.845  1.00  0.00    -0.132 OA 
ENDBRANCH  22  23
ENDBRANCH  14  22
ENDBRANCH   8  13
TORSDOF 3
ENDMDL
MODEL       76
REMARK 921   NORMALIZED FREE ENERGY PREDICTED BY IDOCK:   -5.54 KCAL/MOL
REMARK 922        TOTAL FREE ENERGY PREDICTED BY IDOCK:   -6.98 KCAL/MOL
REMARK 923 INTER-LIGAND FREE ENERGY PREDICTED BY IDOCK:   -6.81 KCAL/MOL
REMARK 924 INTRA-LIGAND FREE ENERGY PREDICTED BY IDOCK:   -0.17 KCAL/MOL
REMARK 927      BINDING AFFINITY PREDICTED BY RF-SCORE:    0.00 PKD
ROOT
HETATM    1  N   UNL     1     -12.354   9.886  71.901  1.00  0.00    -0.359 NA 
HETATM    2  C   UNL     1     -11.288   9.871  71.014  1.00  0.00    -0.386 A  
HETATM    3  H1  UNL     1     -12.322   9.434  72.815  1.00  0.00     0.000 HD 
HETATM    4  H2  UNL     1     -13.167   9.518  71.407  1.00  0.00     0.000 HD 
HETATM    5  C   UNL     1     -11.331  10.493  69.756  1.00  0.00    -0.300 A  
HETATM    6  N   UNL     1     -12.320  11.198  69.111  1.00  0.00    -0.424 NA 
HETATM    7  C   UNL     1     -11.808  11.493  67.933  1.00  0.00    -0.184 A  
HETATM    8  N   UNL     1     -10.515  11.042  67.807  1.00  0.00    -0.189 NA 
HETATM    9  N   UNL     1     -10.166   9.203  71.365  1.00  0.00    -0.327 NA 
HETATM   10  C   UNL     1     -10.198  10.382  68.962  1.00  0.00    -0.217 A  
HETATM   11  N   UNL     1      -9.063   9.729  69.266  1.00  0.00    -0.172 NA 
HETATM   12  C   UNL     1      -9.134   9.185  70.499  1.00  0.00    -0.241 A  
ENDROOT
BRANCH   8  13
HETATM   13  C   UNL     1      -9.703  11.268  66.630  1.00  0.00    -0.196 C  
HETATM   14  C   UNL     1      -9.663  13.571  66.227  1.00  0.00    -0.277 C  
HETATM   15  C   UNL     1     -10.514  12.971  65.106  1.00  0.00    -0.320 C  
HETATM   16  O   UNL     1      -9.455  11.008  64.189  1.00  0.00    -0.225 OA 
HETATM   17  O   UNL     1      -8.950  12.477  66.846  1.00  0.00    -0.204 OA 
HETATM   18  C   UNL     1     -10.343  11.456  65.246  1.00  0.00    -0.282 C  
HETATM   19  H   UNL     1      -9.850  11.124  63.333  1.00  0.00     0.000 HD 
HETATM   20  O   UNL     1     -10.053  13.452  63.838  1.00  0.00    -0.734 OA 
HETATM   21  H   UNL     1     -10.582  13.079  63.142  1.00  0.00     0.000 HD 
BRANCH  14  22
HETATM   22  C   UNL     1     -10.552  14.307  67.240  1.00  0.00    -0.278 C  
BRANCH  22  23
HETATM   23  O   UNL     1      -9.811  15.296  67.945  1.00  0.00    -0.215 OA 
HETATM   24  P   UNL     1      -8.886  16.305  66.885  1.00  0.00    -0.263 P  
HETATM   25  O   UNL     1      -8.059  17.207  65.939  1.00  0.00    -0.516 OA 
HETATM   26  O   UNL     1     -10.242  17.205  66.777  1.00  0.00    -0.295 OA 
HETATM   27  O   UNL     1      -8.271  16.961  68.251  1.00  0.00    -0.205 OA 
ENDBRANCH  22  23
ENDBRANCH  14  22
ENDBRANCH   8  13
TORSDOF 3
ENDMDL
MODEL       77
REMARK 921   NORMALIZED FREE ENERGY PREDICTED BY IDOCK:   -5.51 KCAL/MOL
REMARK 922        TOTAL FREE ENERGY PREDICTED BY IDOCK:   -6.94 KCAL/MOL
REMARK 923 INTER-LIGAND FREE ENERGY PREDICTED BY IDOCK:   -6.69 KCAL/MOL
REMARK 924 INTRA-LIGAND FREE ENERGY PREDICTED BY IDOCK:   -0.26 KCAL/MOL
REMARK 927      BINDING AFFINITY PREDICTED BY RF-SCORE:    0.00 PKD
ROOT
HETATM    1  N   UNL     1     -12.910  11.980  62.986  1.00  0.00    -0.740 NA 
HETATM    2  C   UNL     1     -12.254  12.263  64.175  1.00  0.00    -0.446 A  
HETATM    3  H1  UNL     1     -13.797  12.411  62.726  1.00  0.00     0.000 HD 
HETATM    4  H2  UNL     1     -13.036  10.969  62.940  1.00  0.00     0.000 HD 
HETATM    5  C   UNL     1     -11.033  11.670  64.534  1.00  0.00    -0.314 A  
HETATM    6  N   UNL     1     -10.237  10.746  63.900  1.00  0.00    -0.343 NA 
HETATM    7  C   UNL     1      -9.244  10.527  64.739  1.00  0.00    -0.227 A  
HETATM    8  N   UNL     1      -9.346  11.302  65.870  1.00  0.00    -0.214 NA 
HETATM    9  N   UNL     1     -12.832  13.125  65.041  1.00  0.00    -0.732 NA 
HETATM   10  C   UNL     1     -10.498  12.030  65.764  1.00  0.00    -0.254 A  
HETATM   11  N   UNL     1     -11.034  12.880  66.657  1.00  0.00    -0.271 NA 
HETATM   12  C   UNL     1     -12.195  13.393  66.199  1.00  0.00    -0.415 A  
ENDROOT
BRANCH   8  13
HETATM   13  C   UNL     1      -8.365  11.290  66.935  1.00  0.00    -0.155 C  
HETATM   14  C   UNL     1      -8.617   9.285  68.110  1.00  0.00    -0.125 C  
HETATM   15  C   UNL     1      -9.121  10.382  69.051  1.00  0.00    -0.187 C  
HETATM   16  O   UNL     1      -7.599  12.253  69.073  1.00  0.00    -0.301 OA 
HETATM   17  O   UNL     1      -7.874   9.942  67.059  1.00  0.00    -0.101 OA 
HETATM   18  C   UNL     1      -8.740  11.697  68.368  1.00  0.00    -0.158 C  
HETATM   19  H   UNL     1      -7.831  12.505  69.960  1.00  0.00     0.000 HD 
HETATM   20  O   UNL     1      -8.501  10.240  70.335  1.00  0.00    -0.349 OA 
HETATM   21  H   UNL     1      -8.815  10.921  70.919  1.00  0.00     0.000 HD 
BRANCH  14  22
HETATM   22  C   UNL     1      -9.795   8.478  67.547  1.00  0.00    -0.177 C  
BRANCH  22  23
HETATM   23  O   UNL     1     -10.653   8.032  68.591  1.00  0.00    -0.191 OA 
HETATM   24  P   UNL     1     -10.461   6.345  68.925  1.00  0.00    -0.281 P  
HETATM   25  O   UNL     1     -10.290   4.836  69.223  1.00  0.00    -0.154 OA 
HETATM   26  O   UNL     1      -9.263   6.817  69.927  1.00  0.00    -0.147 OA 
HETATM   27  O   UNL     1     -11.720   6.533  69.951  1.00  0.00    -0.406 OA 
ENDBRANCH  22  23
ENDBRANCH  14  22
ENDBRANCH   8  13
TORSDOF 3
ENDMDL
MODEL       78
REMARK 921   NORMALIZED FREE ENERGY PREDICTED BY IDOCK:   -5.50 KCAL/MOL
REMARK 922        TOTAL FREE ENERGY PREDICTED BY IDOCK:   -6.93 KCAL/MOL
REMARK 923 INTER-LIGAND FREE ENERGY PREDICTED BY IDOCK:   -6.35 KCAL/MOL
REMARK 924 INTRA-LIGAND FREE ENERGY PREDICTED BY IDOCK:   -0.58 KCAL/MOL
REMARK 927      BINDING AFFINITY PREDICTED BY RF-SCORE:    0.00 PKD
ROOT
HETATM    1  N   UNL     1     -11.211   7.409  73.111  1.00  0.00    -0.577 NA 
HETATM    2  C   UNL     1     -11.812   8.379  72.322  1.00  0.00    -0.389 A  
HETATM    3  H1  UNL     1     -11.719   6.870  73.813  1.00  0.00     0.000 HD 
HETATM    4  H2  UNL     1     -10.416   7.845  73.578  1.00  0.00     0.000 HD 
HETATM    5  C   UNL     1     -11.114   9.120  71.357  1.00  0.00    -0.345 A  
HETATM    6  N   UNL     1      -9.796   9.113  70.967  1.00  0.00    -0.278 NA 
HETATM    7  C   UNL     1      -9.710  10.062  70.056  1.00  0.00    -0.175 A  
HETATM    8  N   UNL     1     -10.927  10.654  69.814  1.00  0.00    -0.273 NA 
HETATM    9  N   UNL     1     -13.124   8.643  72.514  1.00  0.00    -0.340 NA 
HETATM   10  C   UNL     1     -11.837  10.073  70.653  1.00  0.00    -0.325 A  
HETATM   11  N   UNL     1     -13.139  10.372  70.807  1.00  0.00    -0.361 NA 
HETATM   12  C   UNL     1     -13.705   9.590  71.751  1.00  0.00    -0.309 A  
ENDROOT
BRANCH   8  13
HETATM   13  C   UNL     1     -11.124  11.696  68.830  1.00  0.00    -0.230 C  
HETATM   14  C   UNL     1     -10.783  10.753  66.718  1.00  0.00    -0.231 C  
HETATM   15  C   UNL     1      -9.586  11.676  66.956  1.00  0.00    -0.184 C  
HETATM   16  O   UNL     1     -10.311  13.803  67.834  1.00  0.00    -0.236 OA 
HETATM   17  O   UNL     1     -11.787  11.105  67.696  1.00  0.00    -0.612 OA 
HETATM   18  C   UNL     1      -9.933  12.457  68.226  1.00  0.00    -0.224 C  
HETATM   19  H   UNL     1      -9.574  14.273  67.461  1.00  0.00     0.000 HD 
HETATM   20  O   UNL     1      -9.407  12.537  65.825  1.00  0.00    -0.434 OA 
HETATM   21  H   UNL     1      -8.664  13.110  65.972  1.00  0.00     0.000 HD 
BRANCH  14  22
HETATM   22  C   UNL     1     -10.361   9.283  66.850  1.00  0.00    -0.246 C  
BRANCH  22  23
HETATM   23  O   UNL     1      -8.946   9.152  66.786  1.00  0.00    -0.124 OA 
HETATM   24  P   UNL     1      -8.445   7.992  65.603  1.00  0.00    -0.115 P  
HETATM   25  O   UNL     1      -7.997   6.955  64.545  1.00  0.00    -0.122 OA 
HETATM   26  O   UNL     1      -8.512   9.237  64.550  1.00  0.00    -0.161 OA 
HETATM   27  O   UNL     1      -6.935   8.245  66.177  1.00  0.00    -0.060 OA 
ENDBRANCH  22  23
ENDBRANCH  14  22
ENDBRANCH   8  13
TORSDOF 3
ENDMDL
MODEL       79
REMARK 921   NORMALIZED FREE ENERGY PREDICTED BY IDOCK:   -5.47 KCAL/MOL
REMARK 922        TOTAL FREE ENERGY PREDICTED BY IDOCK:   -6.90 KCAL/MOL
REMARK 923 INTER-LIGAND FREE ENERGY PREDICTED BY IDOCK:   -6.49 KCAL/MOL
REMARK 924 INTRA-LIGAND FREE ENERGY PREDICTED BY IDOCK:   -0.41 KCAL/MOL
REMARK 927      BINDING AFFINITY PREDICTED BY RF-SCORE:    0.00 PKD
ROOT
HETATM    1  N   UNL     1     -14.405   7.226  72.011  1.00  0.00    -0.631 NA 
HETATM    2  C   UNL     1     -13.458   8.182  71.676  1.00  0.00    -0.332 A  
HETATM    3  H1  UNL     1     -15.254   7.443  72.533  1.00  0.00     0.000 HD 
HETATM    4  H2  UNL     1     -13.922   6.480  72.513  1.00  0.00     0.000 HD 
HETATM    5  C   UNL     1     -12.289   7.882  70.958  1.00  0.00    -0.162 A  
HETATM    6  N   UNL     1     -11.797   6.702  70.453  1.00  0.00    -0.392 NA 
HETATM    7  C   UNL     1     -10.634   7.024  69.923  1.00  0.00    -0.229 A  
HETATM    8  N   UNL     1     -10.374   8.370  70.032  1.00  0.00    -0.206 NA 
HETATM    9  N   UNL     1     -13.655   9.455  72.085  1.00  0.00    -0.450 NA 
HETATM   10  C   UNL     1     -11.418   8.934  70.709  1.00  0.00    -0.275 A  
HETATM   11  N   UNL     1     -11.570  10.213  71.095  1.00  0.00    -0.364 NA 
HETATM   12  C   UNL     1     -12.731  10.382  71.763  1.00  0.00    -0.421 A  
ENDROOT
BRANCH   8  13
HETATM   13  C   UNL     1      -9.184   8.997  69.496  1.00  0.00    -0.152 C  
HETATM   14  C   UNL     1      -9.845  10.392  67.740  1.00  0.00    -0.168 C  
HETATM   15  C   UNL     1      -9.109   9.221  67.084  1.00  0.00    -0.130 C  
HETATM   16  O   UNL     1      -7.063   8.731  68.264  1.00  0.00    -0.075 OA 
HETATM   17  O   UNL     1      -9.525  10.352  69.149  1.00  0.00    -0.193 OA 
HETATM   18  C   UNL     1      -8.486   8.443  68.245  1.00  0.00    -0.135 C  
HETATM   19  H   UNL     1      -6.632   8.388  67.490  1.00  0.00     0.000 HD 
HETATM   20  O   UNL     1      -8.120   9.720  66.176  1.00  0.00    -0.108 OA 
HETATM   21  H   UNL     1      -7.664   8.994  65.768  1.00  0.00     0.000 HD 
BRANCH  14  22
HETATM   22  C   UNL     1     -11.357  10.274  67.503  1.00  0.00     0.050 C  
BRANCH  22  23
HETATM   23  O   UNL     1     -11.998  11.534  67.667  1.00  0.00    -0.630 OA 
HETATM   24  P   UNL     1     -11.316  12.756  66.649  1.00  0.00    -0.353 P  
HETATM   25  O   UNL     1     -10.706  13.849  65.739  1.00  0.00    -0.279 OA 
HETATM   26  O   UNL     1     -12.366  12.216  65.523  1.00  0.00    -0.548 OA 
HETATM   27  O   UNL     1     -12.313  13.788  67.432  1.00  0.00    -0.312 OA 
ENDBRANCH  22  23
ENDBRANCH  14  22
ENDBRANCH   8  13
TORSDOF 3
ENDMDL
MODEL       80
REMARK 921   NORMALIZED FREE ENERGY PREDICTED BY IDOCK:   -5.44 KCAL/MOL
REMARK 922        TOTAL FREE ENERGY PREDICTED BY IDOCK:   -6.86 KCAL/MOL
REMARK 923 INTER-LIGAND FREE ENERGY PREDICTED BY IDOCK:   -6.64 KCAL/MOL
REMARK 924 INTRA-LIGAND FREE ENERGY PREDICTED BY IDOCK:   -0.22 KCAL/MOL
REMARK 927      BINDING AFFINITY PREDICTED BY RF-SCORE:    0.00 PKD
ROOT
HETATM    1  N   UNL     1     -13.424  14.004  72.867  1.00  0.00    -0.663 NA 
HETATM    2  C   UNL     1     -12.906  14.154  71.590  1.00  0.00    -0.349 A  
HETATM    3  H1  UNL     1     -13.620  14.793  73.484  1.00  0.00     0.000 HD 
HETATM    4  H2  UNL     1     -12.809  13.367  73.374  1.00  0.00     0.000 HD 
HETATM    5  C   UNL     1     -12.636  13.069  70.741  1.00  0.00    -0.241 A  
HETATM    6  N   UNL     1     -12.777  11.712  70.910  1.00  0.00    -0.300 NA 
HETATM    7  C   UNL     1     -12.312  11.185  69.795  1.00  0.00    -0.246 A  
HETATM    8  N   UNL     1     -11.915  12.149  68.898  1.00  0.00    -0.282 NA 
HETATM    9  N   UNL     1     -12.620  15.401  71.153  1.00  0.00    -0.387 NA 
HETATM   10  C   UNL     1     -12.100  13.364  69.495  1.00  0.00    -0.278 A  
HETATM   11  N   UNL     1     -11.798  14.584  69.018  1.00  0.00    -0.314 NA 
HETATM   12  C   UNL     1     -12.111  15.544  69.913  1.00  0.00    -0.355 A  
ENDROOT
BRANCH   8  13
HETATM   13  C   UNL     1     -11.405  11.845  67.578  1.00  0.00    -0.314 C  
HETATM   14  C   UNL     1      -9.501  10.514  67.839  1.00  0.00    -0.147 C  
HETATM   15  C   UNL     1      -8.992  11.872  67.351  1.00  0.00    -0.173 C  
HETATM   16  O   UNL     1     -10.335  12.676  65.515  1.00  0.00    -0.276 OA 
HETATM   17  O   UNL     1     -10.926  10.487  67.598  1.00  0.00    -0.279 OA 
HETATM   18  C   UNL     1     -10.250  12.652  66.964  1.00  0.00    -0.226 C  
HETATM   19  H   UNL     1      -9.620  13.175  65.136  1.00  0.00     0.000 HD 
HETATM   20  O   UNL     1      -8.110  11.685  66.238  1.00  0.00    -0.350 OA 
HETATM   21  H   UNL     1      -7.793  12.528  65.934  1.00  0.00     0.000 HD 
BRANCH  14  22
HETATM   22  C   UNL     1      -9.180  10.326  69.329  1.00  0.00    -0.202 C  
BRANCH  22  23
HETATM   23  O   UNL     1      -9.391   8.977  69.729  1.00  0.00    -0.159 OA 
HETATM   24  P   UNL     1      -8.974   8.710  71.387  1.00  0.00    -0.241 P  
HETATM   25  O   UNL     1      -8.599   8.470  72.870  1.00  0.00    -0.345 OA 
HETATM   26  O   UNL     1     -10.500   9.186  71.709  1.00  0.00    -0.352 OA 
HETATM   27  O   UNL     1      -9.275   7.133  71.078  1.00  0.00    -0.157 OA 
ENDBRANCH  22  23
ENDBRANCH  14  22
ENDBRANCH   8  13
TORSDOF 3
ENDMDL
MODEL       81
REMARK 921   NORMALIZED FREE ENERGY PREDICTED BY IDOCK:   -5.44 KCAL/MOL
REMARK 922        TOTAL FREE ENERGY PREDICTED BY IDOCK:   -6.86 KCAL/MOL
REMARK 923 INTER-LIGAND FREE ENERGY PREDICTED BY IDOCK:   -6.21 KCAL/MOL
REMARK 924 INTRA-LIGAND FREE ENERGY PREDICTED BY IDOCK:   -0.65 KCAL/MOL
REMARK 927      BINDING AFFINITY PREDICTED BY RF-SCORE:    0.00 PKD
ROOT
HETATM    1  N   UNL     1      -7.514   8.925  70.709  1.00  0.00    -0.086 NA 
HETATM    2  C   UNL     1      -7.437  10.137  70.039  1.00  0.00    -0.162 A  
HETATM    3  H1  UNL     1      -6.893   8.676  71.479  1.00  0.00     0.000 HD 
HETATM    4  H2  UNL     1      -7.446   8.185  70.011  1.00  0.00     0.000 HD 
HETATM    5  C   UNL     1      -8.292  10.480  68.979  1.00  0.00    -0.154 A  
HETATM    6  N   UNL     1      -9.316   9.800  68.366  1.00  0.00    -0.133 NA 
HETATM    7  C   UNL     1      -9.718  10.599  67.399  1.00  0.00    -0.167 A  
HETATM    8  N   UNL     1      -9.021  11.785  67.389  1.00  0.00    -0.168 NA 
HETATM    9  N   UNL     1      -6.475  11.015  70.402  1.00  0.00    -0.292 NA 
HETATM   10  C   UNL     1      -8.089  11.719  68.386  1.00  0.00    -0.150 A  
HETATM   11  N   UNL     1      -7.149  12.623  68.711  1.00  0.00    -0.093 NA 
HETATM   12  C   UNL     1      -6.398  12.189  69.746  1.00  0.00    -0.102 A  
ENDROOT
BRANCH   8  13
HETATM   13  C   UNL     1      -9.290  12.859  66.456  1.00  0.00    -0.222 C  
HETATM   14  C   UNL     1     -11.070  14.111  67.308  1.00  0.00    -0.305 C  
HETATM   15  C   UNL     1     -11.631  13.373  66.091  1.00  0.00    -0.346 C  
HETATM   16  O   UNL     1     -10.109  13.526  64.226  1.00  0.00    -0.705 OA 
HETATM   17  O   UNL     1      -9.630  14.028  67.224  1.00  0.00    -0.226 OA 
HETATM   18  C   UNL     1     -10.411  12.745  65.412  1.00  0.00    -0.286 C  
HETATM   19  H   UNL     1     -10.802  13.455  63.580  1.00  0.00     0.000 HD 
HETATM   20  O   UNL     1     -12.309  14.298  65.234  1.00  0.00    -0.418 OA 
HETATM   21  H   UNL     1     -12.657  13.840  64.478  1.00  0.00     0.000 HD 
BRANCH  14  22
HETATM   22  C   UNL     1     -11.595  13.481  68.606  1.00  0.00    -0.330 C  
BRANCH  22  23
HETATM   23  O   UNL     1     -11.215  14.254  69.738  1.00  0.00    -0.243 OA 
HETATM   24  P   UNL     1     -12.561  15.063  70.465  1.00  0.00    -0.348 P  
HETATM   25  O   UNL     1     -13.765  15.787  71.115  1.00  0.00    -0.560 OA 
HETATM   26  O   UNL     1     -12.765  13.681  71.307  1.00  0.00    -0.342 OA 
HETATM   27  O   UNL     1     -11.451  15.772  71.433  1.00  0.00    -0.377 OA 
ENDBRANCH  22  23
ENDBRANCH  14  22
ENDBRANCH   8  13
TORSDOF 3
ENDMDL
MODEL       82
REMARK 921   NORMALIZED FREE ENERGY PREDICTED BY IDOCK:   -5.40 KCAL/MOL
REMARK 922        TOTAL FREE ENERGY PREDICTED BY IDOCK:   -6.82 KCAL/MOL
REMARK 923 INTER-LIGAND FREE ENERGY PREDICTED BY IDOCK:   -5.96 KCAL/MOL
REMARK 924 INTRA-LIGAND FREE ENERGY PREDICTED BY IDOCK:   -0.86 KCAL/MOL
REMARK 927      BINDING AFFINITY PREDICTED BY RF-SCORE:    0.00 PKD
ROOT
HETATM    1  N   UNL     1     -12.765  14.278  66.437  1.00  0.00    -0.455 NA 
HETATM    2  C   UNL     1     -12.184  13.360  65.574  1.00  0.00    -0.455 A  
HETATM    3  H1  UNL     1     -13.661  14.726  66.250  1.00  0.00     0.000 HD 
HETATM    4  H2  UNL     1     -12.082  15.018  66.600  1.00  0.00     0.000 HD 
HETATM    5  C   UNL     1     -10.950  12.743  65.832  1.00  0.00    -0.274 A  
HETATM    6  N   UNL     1     -10.062  12.861  66.874  1.00  0.00    -0.237 NA 
HETATM    7  C   UNL     1      -9.053  12.079  66.546  1.00  0.00    -0.202 A  
HETATM    8  N   UNL     1      -9.273  11.431  65.353  1.00  0.00    -0.190 NA 
HETATM    9  N   UNL     1     -12.822  13.069  64.419  1.00  0.00    -0.701 NA 
HETATM   10  C   UNL     1     -10.478  11.858  64.871  1.00  0.00    -0.287 A  
HETATM   11  N   UNL     1     -11.074  11.538  63.710  1.00  0.00    -0.399 NA 
HETATM   12  C   UNL     1     -12.254  12.181  63.579  1.00  0.00    -0.567 A  
ENDROOT
BRANCH   8  13
HETATM   13  C   UNL     1      -8.343  10.480  64.781  1.00  0.00    -0.125 C  
HETATM   14  C   UNL     1      -8.762   8.398  65.758  1.00  0.00    -0.169 C  
HETATM   15  C   UNL     1      -7.416   8.856  66.324  1.00  0.00    -0.091 C  
HETATM   16  O   UNL     1      -6.004   9.722  64.569  1.00  0.00    -0.080 OA 
HETATM   17  O   UNL     1      -9.043   9.233  64.613  1.00  0.00    -0.210 OA 
HETATM   18  C   UNL     1      -7.045  10.098  65.509  1.00  0.00    -0.138 C  
HETATM   19  H   UNL     1      -5.202   9.485  65.020  1.00  0.00     0.000 HD 
HETATM   20  O   UNL     1      -6.450   7.809  66.181  1.00  0.00    -0.045 OA 
HETATM   21  H   UNL     1      -5.614   8.093  66.532  1.00  0.00     0.000 HD 
BRANCH  14  22
HETATM   22  C   UNL     1      -9.860   8.519  66.824  1.00  0.00    -0.257 C  
BRANCH  22  23
HETATM   23  O   UNL     1      -9.307   8.866  68.088  1.00  0.00    -0.142 OA 
HETATM   24  P   UNL     1     -10.493   9.512  69.171  1.00  0.00    -0.208 P  
HETATM   25  O   UNL     1     -11.553  10.090  70.139  1.00  0.00    -0.258 OA 
HETATM   26  O   UNL     1     -10.780   7.957  69.571  1.00  0.00    -0.236 OA 
HETATM   27  O   UNL     1      -9.237   9.791  70.180  1.00  0.00    -0.234 OA 
ENDBRANCH  22  23
ENDBRANCH  14  22
ENDBRANCH   8  13
TORSDOF 3
ENDMDL
MODEL       83
REMARK 921   NORMALIZED FREE ENERGY PREDICTED BY IDOCK:   -5.40 KCAL/MOL
REMARK 922        TOTAL FREE ENERGY PREDICTED BY IDOCK:   -6.82 KCAL/MOL
REMARK 923 INTER-LIGAND FREE ENERGY PREDICTED BY IDOCK:   -6.17 KCAL/MOL
REMARK 924 INTRA-LIGAND FREE ENERGY PREDICTED BY IDOCK:   -0.65 KCAL/MOL
REMARK 927      BINDING AFFINITY PREDICTED BY RF-SCORE:    0.00 PKD
ROOT
HETATM    1  N   UNL     1     -13.483  14.216  65.465  1.00  0.00    -0.616 NA 
HETATM    2  C   UNL     1     -12.496  13.253  65.314  1.00  0.00    -0.489 A  
HETATM    3  H1  UNL     1     -14.167  14.429  64.740  1.00  0.00     0.000 HD 
HETATM    4  H2  UNL     1     -13.021  15.090  65.715  1.00  0.00     0.000 HD 
HETATM    5  C   UNL     1     -11.554  12.960  66.313  1.00  0.00    -0.372 A  
HETATM    6  N   UNL     1     -11.352  13.481  67.568  1.00  0.00    -0.294 NA 
HETATM    7  C   UNL     1     -10.287  12.853  68.024  1.00  0.00    -0.227 A  
HETATM    8  N   UNL     1      -9.818  11.919  67.130  1.00  0.00    -0.193 NA 
HETATM    9  N   UNL     1     -12.419  12.589  64.139  1.00  0.00    -0.595 NA 
HETATM   10  C   UNL     1     -10.610  11.986  66.017  1.00  0.00    -0.268 A  
HETATM   11  N   UNL     1     -10.493  11.300  64.867  1.00  0.00    -0.302 NA 
HETATM   12  C   UNL     1     -11.456  11.658  63.991  1.00  0.00    -0.316 A  
ENDROOT
BRANCH   8  13
HETATM   13  C   UNL     1      -8.685  11.059  67.397  1.00  0.00    -0.132 C  
HETATM   14  C   UNL     1      -9.471   9.186  68.553  1.00  0.00    -0.146 C  
HETATM   15  C   UNL     1      -8.665   9.992  69.574  1.00  0.00    -0.192 C  
HETATM   16  O   UNL     1      -6.571  10.719  68.623  1.00  0.00    -0.054 OA 
HETATM   17  O   UNL     1      -9.127   9.697  67.246  1.00  0.00    -0.133 OA 
HETATM   18  C   UNL     1      -7.969  11.083  68.756  1.00  0.00    -0.144 C  
HETATM   19  H   UNL     1      -6.128  10.734  69.463  1.00  0.00     0.000 HD 
HETATM   20  O   UNL     1      -7.728   9.135  70.236  1.00  0.00    -0.083 OA 
HETATM   21  H   UNL     1      -7.228   9.635  70.870  1.00  0.00     0.000 HD 
BRANCH  14  22
HETATM   22  C   UNL     1     -10.975   9.320  68.832  1.00  0.00    -0.017 C  
BRANCH  22  23
HETATM   23  O   UNL     1     -11.233  10.395  69.728  1.00  0.00    -0.253 OA 
HETATM   24  P   UNL     1     -12.501  10.027  70.847  1.00  0.00    -0.316 P  
HETATM   25  O   UNL     1     -13.635   9.699  71.848  1.00  0.00    -0.391 OA 
HETATM   26  O   UNL     1     -11.320   9.370  71.762  1.00  0.00    -0.379 OA 
HETATM   27  O   UNL     1     -12.347  11.579  71.337  1.00  0.00    -0.260 OA 
ENDBRANCH  22  23
ENDBRANCH  14  22
ENDBRANCH   8  13
TORSDOF 3
ENDMDL
MODEL       84
REMARK 921   NORMALIZED FREE ENERGY PREDICTED BY IDOCK:   -5.36 KCAL/MOL
REMARK 922        TOTAL FREE ENERGY PREDICTED BY IDOCK:   -6.77 KCAL/MOL
REMARK 923 INTER-LIGAND FREE ENERGY PREDICTED BY IDOCK:   -6.18 KCAL/MOL
REMARK 924 INTRA-LIGAND FREE ENERGY PREDICTED BY IDOCK:   -0.59 KCAL/MOL
REMARK 927      BINDING AFFINITY PREDICTED BY RF-SCORE:    0.00 PKD
ROOT
HETATM    1  N   UNL     1     -11.623  15.411  64.695  1.00  0.00    -0.512 NA 
HETATM    2  C   UNL     1     -11.519  14.041  64.502  1.00  0.00    -0.370 A  
HETATM    3  H1  UNL     1     -12.280  15.996  64.181  1.00  0.00     0.000 HD 
HETATM    4  H2  UNL     1     -10.693  15.809  64.564  1.00  0.00     0.000 HD 
HETATM    5  C   UNL     1     -10.614  13.235  65.210  1.00  0.00    -0.315 A  
HETATM    6  N   UNL     1      -9.677  13.530  66.171  1.00  0.00    -0.277 NA 
HETATM    7  C   UNL     1      -9.087  12.379  66.428  1.00  0.00    -0.149 A  
HETATM    8  N   UNL     1      -9.633  11.348  65.701  1.00  0.00    -0.226 NA 
HETATM    9  N   UNL     1     -12.305  13.461  63.567  1.00  0.00    -0.749 NA 
HETATM   10  C   UNL     1     -10.604  11.882  64.900  1.00  0.00    -0.287 A  
HETATM   11  N   UNL     1     -11.363  11.260  63.982  1.00  0.00    -0.201 NA 
HETATM   12  C   UNL     1     -12.198  12.131  63.376  1.00  0.00    -0.530 A  
ENDROOT
BRANCH   8  13
HETATM   13  C   UNL     1      -9.200   9.972  65.822  1.00  0.00    -0.176 C  
HETATM   14  C   UNL     1     -10.130   9.105  67.785  1.00  0.00    -0.203 C  
HETATM   15  C   UNL     1      -8.631   9.242  68.063  1.00  0.00    -0.121 C  
HETATM   16  O   UNL     1      -7.339   8.399  66.209  1.00  0.00    -0.083 OA 
HETATM   17  O   UNL     1     -10.304   9.214  66.354  1.00  0.00    -0.258 OA 
HETATM   18  C   UNL     1      -8.006   9.587  66.710  1.00  0.00    -0.109 C  
HETATM   19  H   UNL     1      -6.601   8.161  66.758  1.00  0.00     0.000 HD 
HETATM   20  O   UNL     1      -8.124   8.013  68.595  1.00  0.00    -0.121 OA 
HETATM   21  H   UNL     1      -7.194   8.098  68.768  1.00  0.00     0.000 HD 
BRANCH  14  22
HETATM   22  C   UNL     1     -10.915  10.193  68.531  1.00  0.00    -0.232 C  
BRANCH  22  23
HETATM   23  O   UNL     1     -11.341   9.730  69.807  1.00  0.00    -0.228 OA 
HETATM   24  P   UNL     1     -12.221  10.934  70.684  1.00  0.00    -0.403 P  
HETATM   25  O   UNL     1     -13.007  12.011  71.469  1.00  0.00    -0.397 OA 
HETATM   26  O   UNL     1     -13.528  10.364  69.892  1.00  0.00     0.139 OA 
HETATM   27  O   UNL     1     -12.205   9.865  71.921  1.00  0.00    -0.372 OA 
ENDBRANCH  22  23
ENDBRANCH  14  22
ENDBRANCH   8  13
TORSDOF 3
ENDMDL
MODEL       85
REMARK 921   NORMALIZED FREE ENERGY PREDICTED BY IDOCK:   -5.36 KCAL/MOL
REMARK 922        TOTAL FREE ENERGY PREDICTED BY IDOCK:   -6.76 KCAL/MOL
REMARK 923 INTER-LIGAND FREE ENERGY PREDICTED BY IDOCK:   -6.52 KCAL/MOL
REMARK 924 INTRA-LIGAND FREE ENERGY PREDICTED BY IDOCK:   -0.25 KCAL/MOL
REMARK 927      BINDING AFFINITY PREDICTED BY RF-SCORE:    0.00 PKD
ROOT
HETATM    1  N   UNL     1     -12.534   8.122  72.224  1.00  0.00    -0.468 NA 
HETATM    2  C   UNL     1     -11.795   7.731  71.118  1.00  0.00    -0.291 A  
HETATM    3  H1  UNL     1     -13.175   7.497  72.714  1.00  0.00     0.000 HD 
HETATM    4  H2  UNL     1     -13.063   8.954  71.960  1.00  0.00     0.000 HD 
HETATM    5  C   UNL     1     -10.914   8.591  70.444  1.00  0.00    -0.238 A  
HETATM    6  N   UNL     1     -10.577   9.907  70.648  1.00  0.00    -0.300 NA 
HETATM    7  C   UNL     1      -9.741  10.195  69.670  1.00  0.00    -0.221 A  
HETATM    8  N   UNL     1      -9.496   9.106  68.867  1.00  0.00    -0.150 NA 
HETATM    9  N   UNL     1     -11.954   6.472  70.649  1.00  0.00    -0.355 NA 
HETATM   10  C   UNL     1     -10.254   8.071  69.338  1.00  0.00    -0.210 A  
HETATM   11  N   UNL     1     -10.378   6.831  68.836  1.00  0.00    -0.182 NA 
HETATM   12  C   UNL     1     -11.239   6.096  69.570  1.00  0.00    -0.411 A  
ENDROOT
BRANCH   8  13
HETATM   13  C   UNL     1      -8.582   9.135  67.744  1.00  0.00    -0.121 C  
HETATM   14  C   UNL     1      -9.450  10.621  66.161  1.00  0.00    -0.179 C  
HETATM   15  C   UNL     1      -9.613   9.226  65.552  1.00  0.00    -0.220 C  
HETATM   16  O   UNL     1      -7.596   7.933  65.828  1.00  0.00    -0.078 OA 
HETATM   17  O   UNL     1      -8.525  10.492  67.264  1.00  0.00    -0.122 OA 
HETATM   18  C   UNL     1      -8.839   8.293  66.485  1.00  0.00    -0.150 C  
HETATM   19  H   UNL     1      -7.755   7.412  65.050  1.00  0.00     0.000 HD 
HETATM   20  O   UNL     1      -9.087   9.216  64.220  1.00  0.00    -0.425 OA 
HETATM   21  H   UNL     1      -9.189   8.350  63.842  1.00  0.00     0.000 HD 
BRANCH  14  22
HETATM   22  C   UNL     1     -10.807  11.166  66.625  1.00  0.00    -0.253 C  
BRANCH  22  23
HETATM   23  O   UNL     1     -11.721  11.251  65.538  1.00  0.00     0.018 OA 
HETATM   24  P   UNL     1     -12.339  12.852  65.322  1.00  0.00    -0.401 P  
HETATM   25  O   UNL     1     -12.893  14.285  65.128  1.00  0.00    -0.659 OA 
HETATM   26  O   UNL     1     -11.014  13.095  64.402  1.00  0.00    -0.350 OA 
HETATM   27  O   UNL     1     -13.305  12.191  64.180  1.00  0.00    -0.750 OA 
ENDBRANCH  22  23
ENDBRANCH  14  22
ENDBRANCH   8  13
TORSDOF 3
ENDMDL
MODEL       86
REMARK 921   NORMALIZED FREE ENERGY PREDICTED BY IDOCK:   -5.34 KCAL/MOL
REMARK 922        TOTAL FREE ENERGY PREDICTED BY IDOCK:   -6.75 KCAL/MOL
REMARK 923 INTER-LIGAND FREE ENERGY PREDICTED BY IDOCK:   -6.09 KCAL/MOL
REMARK 924 INTRA-LIGAND FREE ENERGY PREDICTED BY IDOCK:   -0.66 KCAL/MOL
REMARK 927      BINDING AFFINITY PREDICTED BY RF-SCORE:    0.00 PKD
ROOT
HETATM    1  N   UNL     1      -9.669  15.732  66.542  1.00  0.00    -0.249 NA 
HETATM    2  C   UNL     1     -10.384  14.555  66.375  1.00  0.00    -0.293 A  
HETATM    3  H1  UNL     1     -10.084  16.656  66.421  1.00  0.00     0.000 HD 
HETATM    4  H2  UNL     1      -8.852  15.682  65.933  1.00  0.00     0.000 HD 
HETATM    5  C   UNL     1      -9.813  13.283  66.540  1.00  0.00    -0.281 A  
HETATM    6  N   UNL     1      -8.539  12.882  66.864  1.00  0.00    -0.170 NA 
HETATM    7  C   UNL     1      -8.582  11.565  66.821  1.00  0.00    -0.170 A  
HETATM    8  N   UNL     1      -9.841  11.101  66.522  1.00  0.00    -0.203 NA 
HETATM    9  N   UNL     1     -11.682  14.637  66.005  1.00  0.00    -0.341 NA 
HETATM   10  C   UNL     1     -10.642  12.191  66.322  1.00  0.00    -0.250 A  
HETATM   11  N   UNL     1     -11.934  12.221  65.954  1.00  0.00    -0.597 NA 
HETATM   12  C   UNL     1     -12.374  13.492  65.837  1.00  0.00    -0.456 A  
ENDROOT
BRANCH   8  13
HETATM   13  C   UNL     1     -10.176   9.694  66.454  1.00  0.00    -0.217 C  
HETATM   14  C   UNL     1     -10.444   8.920  68.643  1.00  0.00    -0.193 C  
HETATM   15  C   UNL     1      -9.146   8.285  68.137  1.00  0.00    -0.134 C  
HETATM   16  O   UNL     1      -9.442   7.402  65.912  1.00  0.00    -0.401 OA 
HETATM   17  O   UNL     1     -11.144   9.426  67.485  1.00  0.00    -0.137 OA 
HETATM   18  C   UNL     1      -9.104   8.610  66.642  1.00  0.00    -0.165 C  
HETATM   19  H   UNL     1      -8.778   6.731  66.028  1.00  0.00     0.000 HD 
HETATM   20  O   UNL     1      -9.170   6.874  68.382  1.00  0.00    -0.127 OA 
HETATM   21  H   UNL     1      -8.365   6.480  68.068  1.00  0.00     0.000 HD 
BRANCH  14  22
HETATM   22  C   UNL     1     -10.136  10.039  69.648  1.00  0.00    -0.236 C  
BRANCH  22  23
HETATM   23  O   UNL     1     -11.005   9.966  70.773  1.00  0.00    -0.307 OA 
HETATM   24  P   UNL     1     -11.545   8.352  71.084  1.00  0.00    -0.272 P  
HETATM   25  O   UNL     1     -12.029   6.909  71.363  1.00  0.00    -0.309 OA 
HETATM   26  O   UNL     1     -10.177   8.207  71.961  1.00  0.00    -0.210 OA 
HETATM   27  O   UNL     1     -12.495   9.026  72.232  1.00  0.00    -0.375 OA 
ENDBRANCH  22  23
ENDBRANCH  14  22
ENDBRANCH   8  13
TORSDOF 3
ENDMDL
MODEL       87
REMARK 921   NORMALIZED FREE ENERGY PREDICTED BY IDOCK:   -5.33 KCAL/MOL
REMARK 922        TOTAL FREE ENERGY PREDICTED BY IDOCK:   -6.73 KCAL/MOL
REMARK 923 INTER-LIGAND FREE ENERGY PREDICTED BY IDOCK:   -6.49 KCAL/MOL
REMARK 924 INTRA-LIGAND FREE ENERGY PREDICTED BY IDOCK:   -0.24 KCAL/MOL
REMARK 927      BINDING AFFINITY PREDICTED BY RF-SCORE:    0.00 PKD
ROOT
HETATM    1  N   UNL     1     -13.395  15.276  70.906  1.00  0.00    -0.645 NA 
HETATM    2  C   UNL     1     -12.853  14.008  70.758  1.00  0.00    -0.285 A  
HETATM    3  H1  UNL     1     -14.180  15.475  71.525  1.00  0.00     0.000 HD 
HETATM    4  H2  UNL     1     -13.648  15.611  69.976  1.00  0.00     0.000 HD 
HETATM    5  C   UNL     1     -11.772  13.733  69.905  1.00  0.00    -0.284 A  
HETATM    6  N   UNL     1     -11.036  14.534  69.066  1.00  0.00    -0.249 NA 
HETATM    7  C   UNL     1     -10.186  13.715  68.479  1.00  0.00    -0.234 A  
HETATM    8  N   UNL     1     -10.319  12.424  68.936  1.00  0.00    -0.116 NA 
HETATM    9  N   UNL     1     -13.410  12.984  71.443  1.00  0.00    -0.192 NA 
HETATM   10  C   UNL     1     -11.344  12.414  69.840  1.00  0.00     0.006 A  
HETATM   11  N   UNL     1     -11.865  11.365  70.499  1.00  0.00    -0.340 NA 
HETATM   12  C   UNL     1     -12.886  11.752  71.293  1.00  0.00    -0.308 A  
ENDROOT
BRANCH   8  13
HETATM   13  C   UNL     1      -9.481  11.332  68.489  1.00  0.00    -0.191 C  
HETATM   14  C   UNL     1     -10.248  10.664  66.383  1.00  0.00    -0.234 C  
HETATM   15  C   UNL     1     -10.627   9.530  67.339  1.00  0.00    -0.271 C  
HETATM   16  O   UNL     1      -8.778   8.986  68.791  1.00  0.00    -0.133 OA 
HETATM   17  O   UNL     1      -9.281  11.489  67.071  1.00  0.00    -0.170 OA 
HETATM   18  C   UNL     1      -9.922   9.869  68.655  1.00  0.00    -0.164 C  
HETATM   19  H   UNL     1      -9.051   8.081  68.894  1.00  0.00     0.000 HD 
HETATM   20  O   UNL     1     -10.190   8.277  66.801  1.00  0.00    -0.279 OA 
HETATM   21  H   UNL     1     -10.425   7.573  67.394  1.00  0.00     0.000 HD 
BRANCH  14  22
HETATM   22  C   UNL     1     -11.493  11.469  65.987  1.00  0.00    -0.020 C  
BRANCH  22  23
HETATM   23  O   UNL     1     -11.159  12.826  65.719  1.00  0.00    -0.275 OA 
HETATM   24  P   UNL     1     -11.956  13.433  64.308  1.00  0.00    -0.433 P  
HETATM   25  O   UNL     1     -12.669  13.977  63.047  1.00  0.00    -0.586 OA 
HETATM   26  O   UNL     1     -13.183  13.795  65.321  1.00  0.00    -0.755 OA 
HETATM   27  O   UNL     1     -11.056  14.779  64.532  1.00  0.00    -0.336 OA 
ENDBRANCH  22  23
ENDBRANCH  14  22
ENDBRANCH   8  13
TORSDOF 3
ENDMDL
MODEL       88
REMARK 921   NORMALIZED FREE ENERGY PREDICTED BY IDOCK:   -5.31 KCAL/MOL
REMARK 922        TOTAL FREE ENERGY PREDICTED BY IDOCK:   -6.71 KCAL/MOL
REMARK 923 INTER-LIGAND FREE ENERGY PREDICTED BY IDOCK:   -6.01 KCAL/MOL
REMARK 924 INTRA-LIGAND FREE ENERGY PREDICTED BY IDOCK:   -0.70 KCAL/MOL
REMARK 927      BINDING AFFINITY PREDICTED BY RF-SCORE:    0.00 PKD
ROOT
HETATM    1  N   UNL     1     -12.804  12.246  71.681  1.00  0.00    -0.325 NA 
HETATM    2  C   UNL     1     -12.296  12.410  70.401  1.00  0.00    -0.227 A  
HETATM    3  H1  UNL     1     -13.047  11.335  72.070  1.00  0.00     0.000 HD 
HETATM    4  H2  UNL     1     -13.629  12.841  71.761  1.00  0.00     0.000 HD 
HETATM    5  C   UNL     1     -11.962  13.664  69.865  1.00  0.00    -0.348 A  
HETATM    6  N   UNL     1     -12.042  14.936  70.381  1.00  0.00    -0.307 NA 
HETATM    7  C   UNL     1     -11.639  15.721  69.402  1.00  0.00    -0.365 A  
HETATM    8  N   UNL     1     -11.266  15.004  68.289  1.00  0.00    -0.285 NA 
HETATM    9  N   UNL     1     -12.144  11.315  69.623  1.00  0.00    -0.326 NA 
HETATM   10  C   UNL     1     -11.483  13.682  68.562  1.00  0.00    -0.312 A  
HETATM   11  N   UNL     1     -11.315  12.624  67.752  1.00  0.00    -0.277 NA 
HETATM   12  C   UNL     1     -11.656  11.477  68.377  1.00  0.00    -0.308 A  
ENDROOT
BRANCH   8  13
HETATM   13  C   UNL     1     -10.744  15.617  67.086  1.00  0.00    -0.314 C  
HETATM   14  C   UNL     1      -8.416  15.414  67.136  1.00  0.00    -0.214 C  
HETATM   15  C   UNL     1      -8.706  16.900  67.357  1.00  0.00    -0.203 C  
HETATM   16  O   UNL     1     -10.368  17.686  65.796  1.00  0.00    -0.558 OA 
HETATM   17  O   UNL     1      -9.633  14.818  66.637  1.00  0.00    -0.246 OA 
HETATM   18  C   UNL     1     -10.205  17.055  67.093  1.00  0.00    -0.306 C  
HETATM   19  H   UNL     1     -10.035  18.576  65.800  1.00  0.00     0.000 HD 
HETATM   20  O   UNL     1      -7.915  17.686  66.458  1.00  0.00    -0.231 OA 
HETATM   21  H   UNL     1      -8.095  18.609  66.596  1.00  0.00     0.000 HD 
BRANCH  14  22
HETATM   22  C   UNL     1      -7.964  14.756  68.447  1.00  0.00    -0.138 C  
BRANCH  22  23
HETATM   23  O   UNL     1      -8.071  13.339  68.370  1.00  0.00    -0.145 OA 
HETATM   24  P   UNL     1      -6.762  12.627  67.490  1.00  0.00    -0.115 P  
HETATM   25  O   UNL     1      -5.591  11.990  66.704  1.00  0.00    -0.298 OA 
HETATM   26  O   UNL     1      -5.979  12.625  68.921  1.00  0.00    -0.067 OA 
HETATM   27  O   UNL     1      -7.577  11.220  67.661  1.00  0.00    -0.099 OA 
ENDBRANCH  22  23
ENDBRANCH  14  22
ENDBRANCH   8  13
TORSDOF 3
ENDMDL
MODEL       89
REMARK 921   NORMALIZED FREE ENERGY PREDICTED BY IDOCK:   -5.30 KCAL/MOL
REMARK 922        TOTAL FREE ENERGY PREDICTED BY IDOCK:   -6.70 KCAL/MOL
REMARK 923 INTER-LIGAND FREE ENERGY PREDICTED BY IDOCK:   -6.01 KCAL/MOL
REMARK 924 INTRA-LIGAND FREE ENERGY PREDICTED BY IDOCK:   -0.69 KCAL/MOL
REMARK 927      BINDING AFFINITY PREDICTED BY RF-SCORE:    0.00 PKD
ROOT
HETATM    1  N   UNL     1      -7.889   9.274  66.484  1.00  0.00    -0.100 NA 
HETATM    2  C   UNL     1      -8.114   9.366  67.850  1.00  0.00    -0.103 A  
HETATM    3  H1  UNL     1      -6.971   9.077  66.085  1.00  0.00     0.000 HD 
HETATM    4  H2  UNL     1      -8.227  10.137  66.059  1.00  0.00     0.000 HD 
HETATM    5  C   UNL     1      -9.377   9.638  68.400  1.00  0.00    -0.133 A  
HETATM    6  N   UNL     1     -10.601   9.874  67.821  1.00  0.00    -0.243 NA 
HETATM    7  C   UNL     1     -11.409  10.121  68.833  1.00  0.00    -0.120 A  
HETATM    8  N   UNL     1     -10.763  10.015  70.043  1.00  0.00    -0.278 NA 
HETATM    9  N   UNL     1      -7.064   9.218  68.688  1.00  0.00    -0.069 NA 
HETATM   10  C   UNL     1      -9.454   9.722  69.783  1.00  0.00    -0.228 A  
HETATM   11  N   UNL     1      -8.441   9.584  70.655  1.00  0.00    -0.235 NA 
HETATM   12  C   UNL     1      -7.284   9.315  70.014  1.00  0.00    -0.078 A  
ENDROOT
BRANCH   8  13
HETATM   13  C   UNL     1     -11.427  10.195  71.317  1.00  0.00    -0.249 C  
HETATM   14  C   UNL     1     -12.129   8.091  72.056  1.00  0.00    -0.331 C  
HETATM   15  C   UNL     1     -13.406   8.842  71.672  1.00  0.00    -0.359 C  
HETATM   16  O   UNL     1     -13.370  11.089  72.547  1.00  0.00    -0.493 OA 
HETATM   17  O   UNL     1     -11.076   9.075  72.152  1.00  0.00    -0.350 OA 
HETATM   18  C   UNL     1     -12.958  10.282  71.413  1.00  0.00    -0.440 C  
HETATM   19  H   UNL     1     -14.316  11.143  72.606  1.00  0.00     0.000 HD 
HETATM   20  O   UNL     1     -14.357   8.756  72.740  1.00  0.00    -0.920 OA 
HETATM   21  H   UNL     1     -15.150   9.222  72.502  1.00  0.00     0.000 HD 
BRANCH  14  22
HETATM   22  C   UNL     1     -11.802   7.019  71.007  1.00  0.00    -0.351 C  
BRANCH  22  23
HETATM   23  O   UNL     1     -10.406   6.750  70.971  1.00  0.00    -0.204 OA 
HETATM   24  P   UNL     1     -10.058   5.058  71.078  1.00  0.00    -0.192 P  
HETATM   25  O   UNL     1      -9.746   3.546  71.174  1.00  0.00    -0.173 OA 
HETATM   26  O   UNL     1     -10.238   5.055  69.457  1.00  0.00    -0.234 OA 
HETATM   27  O   UNL     1      -8.489   5.513  71.144  1.00  0.00    -0.122 OA 
ENDBRANCH  22  23
ENDBRANCH  14  22
ENDBRANCH   8  13
TORSDOF 3
ENDMDL
MODEL       90
REMARK 921   NORMALIZED FREE ENERGY PREDICTED BY IDOCK:   -5.29 KCAL/MOL
REMARK 922        TOTAL FREE ENERGY PREDICTED BY IDOCK:   -6.69 KCAL/MOL
REMARK 923 INTER-LIGAND FREE ENERGY PREDICTED BY IDOCK:   -6.38 KCAL/MOL
REMARK 924 INTRA-LIGAND FREE ENERGY PREDICTED BY IDOCK:   -0.31 KCAL/MOL
REMARK 927      BINDING AFFINITY PREDICTED BY RF-SCORE:    0.00 PKD
ROOT
HETATM    1  N   UNL     1     -12.979  14.004  70.981  1.00  0.00    -0.326 NA 
HETATM    2  C   UNL     1     -11.931  13.948  70.075  1.00  0.00    -0.336 A  
HETATM    3  H1  UNL     1     -13.150  14.808  71.584  1.00  0.00     0.000 HD 
HETATM    4  H2  UNL     1     -12.909  13.182  71.581  1.00  0.00     0.000 HD 
HETATM    5  C   UNL     1     -11.695  12.841  69.245  1.00  0.00    -0.319 A  
HETATM    6  N   UNL     1     -12.345  11.637  69.111  1.00  0.00    -0.243 NA 
HETATM    7  C   UNL     1     -11.641  10.974  68.215  1.00  0.00    -0.284 A  
HETATM    8  N   UNL     1     -10.587  11.717  67.737  1.00  0.00    -0.195 NA 
HETATM    9  N   UNL     1     -11.078  14.995  70.011  1.00  0.00    -0.263 NA 
HETATM   10  C   UNL     1     -10.596  12.912  68.400  1.00  0.00    -0.253 A  
HETATM   11  N   UNL     1      -9.723  13.929  68.300  1.00  0.00    -0.219 NA 
HETATM   12  C   UNL     1     -10.056  14.936  69.134  1.00  0.00    -0.226 A  
ENDROOT
BRANCH   8  13
HETATM   13  C   UNL     1      -9.679  11.244  66.714  1.00  0.00    -0.193 C  
HETATM   14  C   UNL     1     -10.390  12.128  64.669  1.00  0.00    -0.297 C  
HETATM   15  C   UNL     1     -10.701  10.631  64.603  1.00  0.00     0.039 C  
HETATM   16  O   UNL     1      -8.831   9.334  65.401  1.00  0.00    -0.168 OA 
HETATM   17  O   UNL     1      -9.481  12.319  65.777  1.00  0.00    -0.217 OA 
HETATM   18  C   UNL     1     -10.027  10.030  65.838  1.00  0.00    -0.269 C  
HETATM   19  H   UNL     1      -9.046   8.584  64.860  1.00  0.00     0.000 HD 
HETATM   20  O   UNL     1     -10.183  10.083  63.385  1.00  0.00    -0.385 OA 
HETATM   21  H   UNL     1     -10.377   9.154  63.343  1.00  0.00     0.000 HD 
BRANCH  14  22
HETATM   22  C   UNL     1     -11.681  12.936  64.855  1.00  0.00    -0.348 C  
BRANCH  22  23
HETATM   23  O   UNL     1     -11.595  14.194  64.196  1.00  0.00    -0.332 OA 
HETATM   24  P   UNL     1     -11.263  15.491  65.292  1.00  0.00    -0.166 P  
HETATM   25  O   UNL     1     -10.966  16.651  66.272  1.00  0.00    -0.076 OA 
HETATM   26  O   UNL     1      -9.694  15.108  65.058  1.00  0.00    -0.163 OA 
HETATM   27  O   UNL     1     -11.467  16.470  63.999  1.00  0.00    -1.137 OA 
ENDBRANCH  22  23
ENDBRANCH  14  22
ENDBRANCH   8  13
TORSDOF 3
ENDMDL
MODEL       91
REMARK 921   NORMALIZED FREE ENERGY PREDICTED BY IDOCK:   -5.28 KCAL/MOL
REMARK 922        TOTAL FREE ENERGY PREDICTED BY IDOCK:   -6.68 KCAL/MOL
REMARK 923 INTER-LIGAND FREE ENERGY PREDICTED BY IDOCK:   -5.87 KCAL/MOL
REMARK 924 INTRA-LIGAND FREE ENERGY PREDICTED BY IDOCK:   -0.81 KCAL/MOL
REMARK 927      BINDING AFFINITY PREDICTED BY RF-SCORE:    0.00 PKD
ROOT
HETATM    1  N   UNL     1     -13.486  15.558  70.859  1.00  0.00    -0.782 NA 
HETATM    2  C   UNL     1     -13.013  14.271  70.654  1.00  0.00    -0.257 A  
HETATM    3  H1  UNL     1     -13.935  15.854  71.726  1.00  0.00     0.000 HD 
HETATM    4  H2  UNL     1     -14.127  15.774  70.095  1.00  0.00     0.000 HD 
HETATM    5  C   UNL     1     -12.396  13.864  69.461  1.00  0.00    -0.227 A  
HETATM    6  N   UNL     1     -12.124  14.532  68.291  1.00  0.00    -0.255 NA 
HETATM    7  C   UNL     1     -11.580  13.625  67.505  1.00  0.00    -0.350 A  
HETATM    8  N   UNL     1     -11.454  12.409  68.134  1.00  0.00    -0.294 NA 
HETATM    9  N   UNL     1     -13.182  13.358  71.637  1.00  0.00    -0.377 NA 
HETATM   10  C   UNL     1     -11.988  12.539  69.385  1.00  0.00    -0.256 A  
HETATM   11  N   UNL     1     -12.134  11.597  70.333  1.00  0.00    -0.374 NA 
HETATM   12  C   UNL     1     -12.727  12.106  71.433  1.00  0.00    -0.263 A  
ENDROOT
BRANCH   8  13
HETATM   13  C   UNL     1     -10.850  11.250  67.512  1.00  0.00    -0.245 C  
HETATM   14  C   UNL     1      -8.532  11.437  67.760  1.00  0.00    -0.128 C  
HETATM   15  C   UNL     1      -8.808  11.666  66.272  1.00  0.00    -0.164 C  
HETATM   16  O   UNL     1     -10.358  10.021  65.429  1.00  0.00    -0.245 OA 
HETATM   17  O   UNL     1      -9.728  10.855  68.325  1.00  0.00    -0.154 OA 
HETATM   18  C   UNL     1     -10.286  11.315  66.084  1.00  0.00    -0.245 C  
HETATM   19  H   UNL     1     -10.010  10.061  64.546  1.00  0.00     0.000 HD 
HETATM   20  O   UNL     1      -7.950  10.830  65.487  1.00  0.00    -0.255 OA 
HETATM   21  H   UNL     1      -8.121  10.972  64.563  1.00  0.00     0.000 HD 
BRANCH  14  22
HETATM   22  C   UNL     1      -8.173  12.761  68.448  1.00  0.00    -0.128 C  
BRANCH  22  23
HETATM   23  O   UNL     1      -8.228  13.845  67.529  1.00  0.00    -0.163 OA 
HETATM   24  P   UNL     1      -8.336  15.378  68.325  1.00  0.00    -0.163 P  
HETATM   25  O   UNL     1      -8.433  16.749  69.036  1.00  0.00    -0.231 OA 
HETATM   26  O   UNL     1      -6.706  15.320  68.366  1.00  0.00    -0.104 OA 
HETATM   27  O   UNL     1      -8.515  16.003  66.825  1.00  0.00    -0.207 OA 
ENDBRANCH  22  23
ENDBRANCH  14  22
ENDBRANCH   8  13
TORSDOF 3
ENDMDL
MODEL       92
REMARK 921   NORMALIZED FREE ENERGY PREDICTED BY IDOCK:   -5.22 KCAL/MOL
REMARK 922        TOTAL FREE ENERGY PREDICTED BY IDOCK:   -6.60 KCAL/MOL
REMARK 923 INTER-LIGAND FREE ENERGY PREDICTED BY IDOCK:   -6.19 KCAL/MOL
REMARK 924 INTRA-LIGAND FREE ENERGY PREDICTED BY IDOCK:   -0.41 KCAL/MOL
REMARK 927      BINDING AFFINITY PREDICTED BY RF-SCORE:    0.00 PKD
ROOT
HETATM    1  N   UNL     1     -12.021  15.972  70.667  1.00  0.00    -0.469 NA 
HETATM    2  C   UNL     1     -11.666  15.478  69.421  1.00  0.00    -0.367 A  
HETATM    3  H1  UNL     1     -11.976  16.962  70.906  1.00  0.00     0.000 HD 
HETATM    4  H2  UNL     1     -11.476  15.464  71.364  1.00  0.00     0.000 HD 
HETATM    5  C   UNL     1     -11.729  14.115  69.092  1.00  0.00    -0.327 A  
HETATM    6  N   UNL     1     -12.102  13.009  69.818  1.00  0.00    -0.290 NA 
HETATM    7  C   UNL     1     -11.905  11.991  69.005  1.00  0.00    -0.315 A  
HETATM    8  N   UNL     1     -11.459  12.399  67.769  1.00  0.00    -0.302 NA 
HETATM    9  N   UNL     1     -11.209  16.346  68.490  1.00  0.00    -0.363 NA 
HETATM   10  C   UNL     1     -11.323  13.759  67.813  1.00  0.00    -0.303 A  
HETATM   11  N   UNL     1     -10.863  14.582  66.856  1.00  0.00    -0.299 NA 
HETATM   12  C   UNL     1     -10.859  15.863  67.282  1.00  0.00    -0.279 A  
ENDROOT
BRANCH   8  13
HETATM   13  C   UNL     1     -11.204  11.488  66.674  1.00  0.00    -0.271 C  
HETATM   14  C   UNL     1      -9.105  10.521  67.028  1.00  0.00    -0.143 C  
HETATM   15  C   UNL     1      -8.930  11.463  65.834  1.00  0.00    -0.177 C  
HETATM   16  O   UNL     1     -10.744  11.199  64.267  1.00  0.00    -0.358 OA 
HETATM   17  O   UNL     1     -10.526  10.337  67.214  1.00  0.00    -0.221 OA 
HETATM   18  C   UNL     1     -10.347  11.909  65.470  1.00  0.00    -0.264 C  
HETATM   19  H   UNL     1     -10.215  11.460  63.522  1.00  0.00     0.000 HD 
HETATM   20  O   UNL     1      -8.289  10.766  64.759  1.00  0.00    -0.325 OA 
HETATM   21  H   UNL     1      -8.180  11.351  64.018  1.00  0.00     0.000 HD 
BRANCH  14  22
HETATM   22  C   UNL     1      -8.446  11.114  68.280  1.00  0.00    -0.145 C  
BRANCH  22  23
HETATM   23  O   UNL     1      -9.026  10.579  69.464  1.00  0.00    -0.145 OA 
HETATM   24  P   UNL     1      -8.239   9.128  69.984  1.00  0.00    -0.182 P  
HETATM   25  O   UNL     1      -7.536   7.830  70.449  1.00  0.00    -0.083 OA 
HETATM   26  O   UNL     1      -7.217  10.124  70.774  1.00  0.00    -0.320 OA 
HETATM   27  O   UNL     1      -9.416   9.045  71.116  1.00  0.00    -0.241 OA 
ENDBRANCH  22  23
ENDBRANCH  14  22
ENDBRANCH   8  13
TORSDOF 3
ENDMDL
MODEL       93
REMARK 921   NORMALIZED FREE ENERGY PREDICTED BY IDOCK:   -5.21 KCAL/MOL
REMARK 922        TOTAL FREE ENERGY PREDICTED BY IDOCK:   -6.60 KCAL/MOL
REMARK 923 INTER-LIGAND FREE ENERGY PREDICTED BY IDOCK:   -7.21 KCAL/MOL
REMARK 924 INTRA-LIGAND FREE ENERGY PREDICTED BY IDOCK:    0.62 KCAL/MOL
REMARK 927      BINDING AFFINITY PREDICTED BY RF-SCORE:    0.00 PKD
ROOT
HETATM    1  N   UNL     1     -11.797  15.451  72.675  1.00  0.00    -0.442 NA 
HETATM    2  C   UNL     1     -11.845  14.746  71.481  1.00  0.00    -0.331 A  
HETATM    3  H1  UNL     1     -12.232  15.117  73.535  1.00  0.00     0.000 HD 
HETATM    4  H2  UNL     1     -12.160  16.386  72.492  1.00  0.00     0.000 HD 
HETATM    5  C   UNL     1     -11.246  15.205  70.297  1.00  0.00    -0.277 A  
HETATM    6  N   UNL     1     -10.537  16.346  70.008  1.00  0.00    -0.256 NA 
HETATM    7  C   UNL     1     -10.272  16.258  68.720  1.00  0.00    -0.249 A  
HETATM    8  N   UNL     1     -10.747  15.088  68.176  1.00  0.00    -0.250 NA 
HETATM    9  N   UNL     1     -12.526  13.578  71.449  1.00  0.00    -0.305 NA 
HETATM   10  C   UNL     1     -11.390  14.406  69.171  1.00  0.00    -0.277 A  
HETATM   11  N   UNL     1     -12.056  13.242  69.090  1.00  0.00    -0.284 NA 
HETATM   12  C   UNL     1     -12.577  12.898  70.287  1.00  0.00    -0.013 A  
ENDROOT
BRANCH   8  13
HETATM   13  C   UNL     1     -10.555  14.719  66.789  1.00  0.00    -0.302 C  
HETATM   14  C   UNL     1      -9.957  16.651  65.616  1.00  0.00    -0.167 C  
HETATM   15  C   UNL     1     -11.376  16.309  65.155  1.00  0.00     0.018 C  
HETATM   16  O   UNL     1     -11.574  13.953  64.676  1.00  0.00    -0.354 OA 
HETATM   17  O   UNL     1      -9.440  15.480  66.287  1.00  0.00    -0.271 OA 
HETATM   18  C   UNL     1     -11.665  14.928  65.748  1.00  0.00    -0.179 C  
HETATM   19  H   UNL     1     -12.260  14.083  64.033  1.00  0.00     0.000 HD 
HETATM   20  O   UNL     1     -11.431  16.304  63.723  1.00  0.00    -1.475 OA 
HETATM   21  H   UNL     1     -12.312  16.093  63.437  1.00  0.00     0.000 HD 
BRANCH  14  22
HETATM   22  C   UNL     1      -9.976  17.870  66.548  1.00  0.00    -0.357 C  
BRANCH  22  23
HETATM   23  O   UNL     1      -9.077  18.874  66.091  1.00  0.00    -0.434 OA 
HETATM   24  P   UNL     1      -8.062  19.474  67.358  1.00  0.00    -0.299 P  
HETATM   25  O   UNL     1      -7.155  20.011  68.491  1.00  0.00    -0.308 OA 
HETATM   26  O   UNL     1      -7.079  18.230  66.977  1.00  0.00    -0.191 OA 
HETATM   27  O   UNL     1      -7.528  20.550  66.250  1.00  0.00    -0.209 OA 
ENDBRANCH  22  23
ENDBRANCH  14  22
ENDBRANCH   8  13
TORSDOF 3
ENDMDL
MODEL       94
REMARK 921   NORMALIZED FREE ENERGY PREDICTED BY IDOCK:   -5.19 KCAL/MOL
REMARK 922        TOTAL FREE ENERGY PREDICTED BY IDOCK:   -6.57 KCAL/MOL
REMARK 923 INTER-LIGAND FREE ENERGY PREDICTED BY IDOCK:   -6.09 KCAL/MOL
REMARK 924 INTRA-LIGAND FREE ENERGY PREDICTED BY IDOCK:   -0.47 KCAL/MOL
REMARK 927      BINDING AFFINITY PREDICTED BY RF-SCORE:    0.00 PKD
ROOT
HETATM    1  N   UNL     1      -6.233   9.788  66.020  1.00  0.00    -0.068 NA 
HETATM    2  C   UNL     1      -7.560   9.590  66.371  1.00  0.00    -0.097 A  
HETATM    3  H1  UNL     1      -5.718   9.151  65.413  1.00  0.00     0.000 HD 
HETATM    4  H2  UNL     1      -5.699   9.884  66.884  1.00  0.00     0.000 HD 
HETATM    5  C   UNL     1      -8.269  10.467  67.208  1.00  0.00    -0.121 A  
HETATM    6  N   UNL     1      -7.900  11.624  67.851  1.00  0.00    -0.121 NA 
HETATM    7  C   UNL     1      -8.967  11.982  68.536  1.00  0.00    -0.098 A  
HETATM    8  N   UNL     1     -10.022  11.123  68.330  1.00  0.00    -0.180 NA 
HETATM    9  N   UNL     1      -8.190   8.486  65.912  1.00  0.00    -0.118 NA 
HETATM   10  C   UNL     1      -9.586  10.134  67.493  1.00  0.00    -0.156 A  
HETATM   11  N   UNL     1     -10.254   9.051  67.062  1.00  0.00    -0.249 NA 
HETATM   12  C   UNL     1      -9.478   8.292  66.260  1.00  0.00    -0.203 A  
ENDROOT
BRANCH   8  13
HETATM   13  C   UNL     1     -11.327  11.307  68.929  1.00  0.00    -0.275 C  
HETATM   14  C   UNL     1     -12.317  13.168  67.919  1.00  0.00     0.145 C  
HETATM   15  C   UNL     1     -11.979  13.604  69.346  1.00  0.00    -0.342 C  
HETATM   16  O   UNL     1     -12.634  11.910  70.933  1.00  0.00    -0.339 OA 
HETATM   17  O   UNL     1     -12.229  11.726  67.888  1.00  0.00    -0.538 OA 
HETATM   18  C   UNL     1     -11.548  12.322  70.061  1.00  0.00    -0.157 C  
HETATM   19  H   UNL     1     -12.770  12.538  71.634  1.00  0.00     0.000 HD 
HETATM   20  O   UNL     1     -13.129  14.202  69.955  1.00  0.00    -0.319 OA 
HETATM   21  H   UNL     1     -12.919  14.473  70.841  1.00  0.00     0.000 HD 
BRANCH  14  22
HETATM   22  C   UNL     1     -11.349  13.812  66.917  1.00  0.00    -0.328 C  
BRANCH  22  23
HETATM   23  O   UNL     1     -11.839  13.696  65.587  1.00  0.00    -0.335 OA 
HETATM   24  P   UNL     1     -11.711  15.181  64.707  1.00  0.00    -0.175 P  
HETATM   25  O   UNL     1     -11.597  16.508  63.920  1.00  0.00    -1.175 OA 
HETATM   26  O   UNL     1     -10.204  14.677  64.339  1.00  0.00    -0.074 OA 
HETATM   27  O   UNL     1     -12.521  14.401  63.520  1.00  0.00    -0.770 OA 
ENDBRANCH  22  23
ENDBRANCH  14  22
ENDBRANCH   8  13
TORSDOF 3
ENDMDL
MODEL       95
REMARK 921   NORMALIZED FREE ENERGY PREDICTED BY IDOCK:   -5.13 KCAL/MOL
REMARK 922        TOTAL FREE ENERGY PREDICTED BY IDOCK:   -6.50 KCAL/MOL
REMARK 923 INTER-LIGAND FREE ENERGY PREDICTED BY IDOCK:   -5.87 KCAL/MOL
REMARK 924 INTRA-LIGAND FREE ENERGY PREDICTED BY IDOCK:   -0.63 KCAL/MOL
REMARK 927      BINDING AFFINITY PREDICTED BY RF-SCORE:    0.00 PKD
ROOT
HETATM    1  N   UNL     1     -13.504   8.695  72.959  1.00  0.00    -0.866 NA 
HETATM    2  C   UNL     1     -12.268   8.839  72.346  1.00  0.00    -0.326 A  
HETATM    3  H1  UNL     1     -13.657   8.089  73.765  1.00  0.00     0.000 HD 
HETATM    4  H2  UNL     1     -14.172   8.419  72.239  1.00  0.00     0.000 HD 
HETATM    5  C   UNL     1     -12.058   9.673  71.237  1.00  0.00    -0.371 A  
HETATM    6  N   UNL     1     -12.907  10.479  70.517  1.00  0.00    -0.322 NA 
HETATM    7  C   UNL     1     -12.160  10.979  69.554  1.00  0.00    -0.329 A  
HETATM    8  N   UNL     1     -10.853  10.558  69.647  1.00  0.00    -0.257 NA 
HETATM    9  N   UNL     1     -11.226   8.120  72.820  1.00  0.00    -0.384 NA 
HETATM   10  C   UNL     1     -10.773   9.706  70.712  1.00  0.00    -0.331 A  
HETATM   11  N   UNL     1      -9.708   9.011  71.146  1.00  0.00    -0.277 NA 
HETATM   12  C   UNL     1     -10.028   8.257  72.219  1.00  0.00    -0.296 A  
ENDROOT
BRANCH   8  13
HETATM   13  C   UNL     1      -9.812  10.991  68.739  1.00  0.00    -0.198 C  
HETATM   14  C   UNL     1      -9.719   9.454  66.979  1.00  0.00    -0.178 C  
HETATM   15  C   UNL     1      -8.442   9.228  67.793  1.00  0.00    -0.116 C  
HETATM   16  O   UNL     1      -7.400  11.331  68.345  1.00  0.00    -0.084 OA 
HETATM   17  O   UNL     1     -10.265  10.725  67.398  1.00  0.00    -0.189 OA 
HETATM   18  C   UNL     1      -8.402  10.383  68.796  1.00  0.00    -0.134 C  
HETATM   19  H   UNL     1      -6.528  10.955  68.381  1.00  0.00     0.000 HD 
HETATM   20  O   UNL     1      -7.306   9.230  66.921  1.00  0.00    -0.089 OA 
HETATM   21  H   UNL     1      -6.514   9.089  67.426  1.00  0.00     0.000 HD 
BRANCH  14  22
HETATM   22  C   UNL     1     -10.714   8.309  67.215  1.00  0.00    -0.171 C  
BRANCH  22  23
HETATM   23  O   UNL     1     -10.075   7.196  67.829  1.00  0.00    -0.154 OA 
HETATM   24  P   UNL     1     -10.305   5.731  66.937  1.00  0.00    -0.294 P  
HETATM   25  O   UNL     1     -10.510   4.421  66.139  1.00  0.00    -0.229 OA 
HETATM   26  O   UNL     1      -8.987   6.196  66.095  1.00  0.00    -0.152 OA 
HETATM   27  O   UNL     1      -9.546   4.999  68.186  1.00  0.00    -0.127 OA 
ENDBRANCH  22  23
ENDBRANCH  14  22
ENDBRANCH   8  13
TORSDOF 3
ENDMDL
MODEL       96
REMARK 921   NORMALIZED FREE ENERGY PREDICTED BY IDOCK:   -5.11 KCAL/MOL
REMARK 922        TOTAL FREE ENERGY PREDICTED BY IDOCK:   -6.48 KCAL/MOL
REMARK 923 INTER-LIGAND FREE ENERGY PREDICTED BY IDOCK:   -5.77 KCAL/MOL
REMARK 924 INTRA-LIGAND FREE ENERGY PREDICTED BY IDOCK:   -0.71 KCAL/MOL
REMARK 927      BINDING AFFINITY PREDICTED BY RF-SCORE:    0.00 PKD
ROOT
HETATM    1  N   UNL     1     -10.214   7.833  66.389  1.00  0.00    -0.487 NA 
HETATM    2  C   UNL     1      -9.536   8.913  66.933  1.00  0.00    -0.177 A  
HETATM    3  H1  UNL     1     -10.030   6.867  66.660  1.00  0.00     0.000 HD 
HETATM    4  H2  UNL     1     -10.115   7.889  65.375  1.00  0.00     0.000 HD 
HETATM    5  C   UNL     1      -9.789  10.243  66.559  1.00  0.00    -0.212 A  
HETATM    6  N   UNL     1     -10.663  10.793  65.652  1.00  0.00    -0.133 NA 
HETATM    7  C   UNL     1     -10.418  12.087  65.692  1.00  0.00    -0.256 A  
HETATM    8  N   UNL     1      -9.448  12.397  66.617  1.00  0.00    -0.227 NA 
HETATM    9  N   UNL     1      -8.565   8.673  67.843  1.00  0.00    -0.136 NA 
HETATM   10  C   UNL     1      -9.021  11.224  67.171  1.00  0.00    -0.155 A  
HETATM   11  N   UNL     1      -8.047  11.034  68.078  1.00  0.00    -0.116 NA 
HETATM   12  C   UNL     1      -7.903   9.724  68.366  1.00  0.00    -0.081 A  
ENDROOT
BRANCH   8  13
HETATM   13  C   UNL     1      -9.017  13.752  66.893  1.00  0.00    -0.221 C  
HETATM   14  C   UNL     1     -10.403  14.611  68.568  1.00  0.00    -0.238 C  
HETATM   15  C   UNL     1     -10.788  15.359  67.289  1.00  0.00    -0.316 C  
HETATM   16  O   UNL     1      -8.817  16.079  66.097  1.00  0.00    -0.320 OA 
HETATM   17  O   UNL     1      -9.136  13.965  68.312  1.00  0.00    -0.184 OA 
HETATM   18  C   UNL     1      -9.726  14.959  66.261  1.00  0.00    -0.296 C  
HETATM   19  H   UNL     1      -9.256  16.825  65.706  1.00  0.00     0.000 HD 
HETATM   20  O   UNL     1     -10.793  16.770  67.537  1.00  0.00    -0.307 OA 
HETATM   21  H   UNL     1     -11.032  17.234  66.743  1.00  0.00     0.000 HD 
BRANCH  14  22
HETATM   22  C   UNL     1     -11.489  13.592  68.939  1.00  0.00    -0.303 C  
BRANCH  22  23
HETATM   23  O   UNL     1     -10.912  12.366  69.369  1.00  0.00    -0.144 OA 
HETATM   24  P   UNL     1     -12.071  11.318  70.113  1.00  0.00    -0.353 P  
HETATM   25  O   UNL     1     -13.107  10.380  70.779  1.00  0.00    -0.385 OA 
HETATM   26  O   UNL     1     -12.375  10.798  68.597  1.00  0.00    -0.430 OA 
HETATM   27  O   UNL     1     -10.795  10.350  70.447  1.00  0.00    -0.289 OA 
ENDBRANCH  22  23
ENDBRANCH  14  22
ENDBRANCH   8  13
TORSDOF 3
ENDMDL
MODEL       97
REMARK 921   NORMALIZED FREE ENERGY PREDICTED BY IDOCK:   -5.05 KCAL/MOL
REMARK 922        TOTAL FREE ENERGY PREDICTED BY IDOCK:   -6.41 KCAL/MOL
REMARK 923 INTER-LIGAND FREE ENERGY PREDICTED BY IDOCK:   -5.97 KCAL/MOL
REMARK 924 INTRA-LIGAND FREE ENERGY PREDICTED BY IDOCK:   -0.45 KCAL/MOL
REMARK 927      BINDING AFFINITY PREDICTED BY RF-SCORE:    0.00 PKD
ROOT
HETATM    1  N   UNL     1      -8.925   7.211  69.888  1.00  0.00    -0.142 NA 
HETATM    2  C   UNL     1      -9.378   7.950  68.805  1.00  0.00    -0.146 A  
HETATM    3  H1  UNL     1      -9.164   6.230  70.030  1.00  0.00     0.000 HD 
HETATM    4  H2  UNL     1      -9.191   7.715  70.734  1.00  0.00     0.000 HD 
HETATM    5  C   UNL     1      -9.050   9.301  68.609  1.00  0.00    -0.132 A  
HETATM    6  N   UNL     1      -8.291  10.179  69.345  1.00  0.00    -0.156 NA 
HETATM    7  C   UNL     1      -8.384  11.325  68.700  1.00  0.00    -0.146 A  
HETATM    8  N   UNL     1      -9.140  11.211  67.557  1.00  0.00    -0.145 NA 
HETATM    9  N   UNL     1     -10.197   7.349  67.913  1.00  0.00    -0.184 NA 
HETATM   10  C   UNL     1      -9.590   9.922  67.491  1.00  0.00    -0.157 A  
HETATM   11  N   UNL     1     -10.407   9.368  66.579  1.00  0.00    -0.232 NA 
HETATM   12  C   UNL     1     -10.641   8.070  66.864  1.00  0.00    -0.254 A  
ENDROOT
BRANCH   8  13
HETATM   13  C   UNL     1      -9.367  12.308  66.640  1.00  0.00    -0.228 C  
HETATM   14  C   UNL     1     -11.213  13.513  67.419  1.00  0.00    -0.295 C  
HETATM   15  C   UNL     1     -11.689  12.804  66.149  1.00  0.00    -0.403 C  
HETATM   16  O   UNL     1     -10.060  13.030  64.385  1.00  0.00    -0.565 OA 
HETATM   17  O   UNL     1      -9.770  13.450  67.420  1.00  0.00    -0.213 OA 
HETATM   18  C   UNL     1     -10.422  12.211  65.528  1.00  0.00    -0.265 C  
HETATM   19  H   UNL     1     -10.712  12.970  63.697  1.00  0.00     0.000 HD 
HETATM   20  O   UNL     1     -12.328  13.746  65.280  1.00  0.00    -0.411 OA 
HETATM   21  H   UNL     1     -12.623  13.305  64.491  1.00  0.00     0.000 HD 
BRANCH  14  22
HETATM   22  C   UNL     1     -11.807  12.839  68.664  1.00  0.00    -0.304 C  
BRANCH  22  23
HETATM   23  O   UNL     1     -11.381  13.496  69.852  1.00  0.00    -0.165 OA 
HETATM   24  P   UNL     1     -12.538  14.653  70.415  1.00  0.00    -0.275 P  
HETATM   25  O   UNL     1     -13.573  15.687  70.918  1.00  0.00    -0.568 OA 
HETATM   26  O   UNL     1     -13.219  13.392  71.195  1.00  0.00    -0.224 OA 
HETATM   27  O   UNL     1     -11.413  15.048  71.533  1.00  0.00    -0.355 OA 
ENDBRANCH  22  23
ENDBRANCH  14  22
ENDBRANCH   8  13
TORSDOF 3
ENDMDL
MODEL       98
REMARK 921   NORMALIZED FREE ENERGY PREDICTED BY IDOCK:   -5.05 KCAL/MOL
REMARK 922        TOTAL FREE ENERGY PREDICTED BY IDOCK:   -6.41 KCAL/MOL
REMARK 923 INTER-LIGAND FREE ENERGY PREDICTED BY IDOCK:   -5.74 KCAL/MOL
REMARK 924 INTRA-LIGAND FREE ENERGY PREDICTED BY IDOCK:   -0.67 KCAL/MOL
REMARK 927      BINDING AFFINITY PREDICTED BY RF-SCORE:    0.00 PKD
ROOT
HETATM    1  N   UNL     1     -14.116   8.722  73.066  1.00  0.00    -1.105 NA 
HETATM    2  C   UNL     1     -13.212   9.370  72.237  1.00  0.00    -0.446 A  
HETATM    3  H1  UNL     1     -15.075   9.043  73.200  1.00  0.00     0.000 HD 
HETATM    4  H2  UNL     1     -13.687   8.649  73.989  1.00  0.00     0.000 HD 
HETATM    5  C   UNL     1     -11.892   8.928  72.052  1.00  0.00    -0.368 A  
HETATM    6  N   UNL     1     -11.194   7.868  72.580  1.00  0.00    -0.348 NA 
HETATM    7  C   UNL     1      -9.979   7.987  72.085  1.00  0.00    -0.225 A  
HETATM    8  N   UNL     1      -9.875   9.058  71.229  1.00  0.00    -0.288 NA 
HETATM    9  N   UNL     1     -13.611  10.495  71.602  1.00  0.00    -0.162 NA 
HETATM   10  C   UNL     1     -11.090   9.685  71.209  1.00  0.00    -0.355 A  
HETATM   11  N   UNL     1     -11.439  10.807  70.558  1.00  0.00    -0.313 NA 
HETATM   12  C   UNL     1     -12.728  11.126  70.802  1.00  0.00    -0.297 A  
ENDROOT
BRANCH   8  13
HETATM   13  C   UNL     1      -8.660   9.393  70.516  1.00  0.00    -0.223 C  
HETATM   14  C   UNL     1      -8.866   8.569  68.338  1.00  0.00    -0.139 C  
HETATM   15  C   UNL     1      -7.818   7.684  69.016  1.00  0.00    -0.119 C  
HETATM   16  O   UNL     1      -6.235   9.027  70.245  1.00  0.00    -0.039 OA 
HETATM   17  O   UNL     1      -9.029   9.740  69.168  1.00  0.00    -0.142 OA 
HETATM   18  C   UNL     1      -7.525   8.370  70.353  1.00  0.00    -0.067 C  
HETATM   19  H   UNL     1      -5.533   8.395  70.144  1.00  0.00     0.000 HD 
HETATM   20  O   UNL     1      -6.652   7.594  68.189  1.00  0.00    -0.051 OA 
HETATM   21  H   UNL     1      -6.001   7.045  68.610  1.00  0.00     0.000 HD 
BRANCH  14  22
HETATM   22  C   UNL     1     -10.188   7.805  68.177  1.00  0.00    -0.202 C  
BRANCH  22  23
HETATM   23  O   UNL     1      -9.994   6.407  68.354  1.00  0.00    -0.133 OA 
HETATM   24  P   UNL     1     -10.384   5.503  66.932  1.00  0.00    -0.283 P  
HETATM   25  O   UNL     1     -10.733   4.693  65.659  1.00  0.00    -0.295 OA 
HETATM   26  O   UNL     1      -8.843   5.796  66.485  1.00  0.00    -0.120 OA 
HETATM   27  O   UNL     1     -10.119   4.178  67.853  1.00  0.00    -0.019 OA 
ENDBRANCH  22  23
ENDBRANCH  14  22
ENDBRANCH   8  13
TORSDOF 3
ENDMDL
MODEL       99
REMARK 921   NORMALIZED FREE ENERGY PREDICTED BY IDOCK:   -5.05 KCAL/MOL
REMARK 922        TOTAL FREE ENERGY PREDICTED BY IDOCK:   -6.41 KCAL/MOL
REMARK 923 INTER-LIGAND FREE ENERGY PREDICTED BY IDOCK:   -5.73 KCAL/MOL
REMARK 924 INTRA-LIGAND FREE ENERGY PREDICTED BY IDOCK:   -0.67 KCAL/MOL
REMARK 927      BINDING AFFINITY PREDICTED BY RF-SCORE:    0.00 PKD
ROOT
HETATM    1  N   UNL     1     -13.168   6.487  72.017  1.00  0.00    -0.421 NA 
HETATM    2  C   UNL     1     -12.120   7.315  71.644  1.00  0.00    -0.325 A  
HETATM    3  H1  UNL     1     -13.582   6.499  72.949  1.00  0.00     0.000 HD 
HETATM    4  H2  UNL     1     -12.882   5.526  71.824  1.00  0.00     0.000 HD 
HETATM    5  C   UNL     1     -11.551   7.297  70.361  1.00  0.00    -0.219 A  
HETATM    6  N   UNL     1     -11.821   6.542  69.245  1.00  0.00     0.046 NA 
HETATM    7  C   UNL     1     -10.929   6.928  68.355  1.00  0.00    -0.132 A  
HETATM    8  N   UNL     1     -10.120   7.929  68.839  1.00  0.00    -0.192 NA 
HETATM    9  N   UNL     1     -11.605   8.157  72.567  1.00  0.00    -0.399 NA 
HETATM   10  C   UNL     1     -10.494   8.168  70.132  1.00  0.00    -0.225 A  
HETATM   11  N   UNL     1      -9.947   9.021  71.015  1.00  0.00    -0.253 NA 
HETATM   12  C   UNL     1     -10.583   8.958  72.204  1.00  0.00    -0.253 A  
ENDROOT
BRANCH   8  13
HETATM   13  C   UNL     1      -9.083   8.565  68.053  1.00  0.00    -0.140 C  
HETATM   14  C   UNL     1     -10.023  10.440  67.020  1.00  0.00    -0.206 C  
HETATM   15  C   UNL     1      -9.778   9.429  65.898  1.00  0.00    -0.285 C  
HETATM   16  O   UNL     1      -7.583   8.447  66.097  1.00  0.00    -0.086 OA 
HETATM   17  O   UNL     1      -9.264   9.989  68.165  1.00  0.00    -0.127 OA 
HETATM   18  C   UNL     1      -8.958   8.310  66.543  1.00  0.00    -0.156 C  
HETATM   19  H   UNL     1      -7.506   8.289  65.164  1.00  0.00     0.000 HD 
HETATM   20  O   UNL     1      -9.074  10.062  64.822  1.00  0.00    -0.187 OA 
HETATM   21  H   UNL     1      -8.923   9.434  64.125  1.00  0.00     0.000 HD 
BRANCH  14  22
HETATM   22  C   UNL     1     -11.521  10.533  67.340  1.00  0.00     0.162 C  
BRANCH  22  23
HETATM   23  O   UNL     1     -11.936  11.889  67.446  1.00  0.00    -0.603 OA 
HETATM   24  P   UNL     1     -11.294  12.875  66.177  1.00  0.00    -0.352 P  
HETATM   25  O   UNL     1     -10.719  13.757  65.042  1.00  0.00    -0.335 OA 
HETATM   26  O   UNL     1     -12.603  12.400  65.327  1.00  0.00    -0.636 OA 
HETATM   27  O   UNL     1     -11.971  14.129  66.978  1.00  0.00    -0.408 OA 
ENDBRANCH  22  23
ENDBRANCH  14  22
ENDBRANCH   8  13
TORSDOF 3
ENDMDL
MODEL      100
REMARK 921   NORMALIZED FREE ENERGY PREDICTED BY IDOCK:   -5.05 KCAL/MOL
REMARK 922        TOTAL FREE ENERGY PREDICTED BY IDOCK:   -6.40 KCAL/MOL
REMARK 923 INTER-LIGAND FREE ENERGY PREDICTED BY IDOCK:   -6.02 KCAL/MOL
REMARK 924 INTRA-LIGAND FREE ENERGY PREDICTED BY IDOCK:   -0.38 KCAL/MOL
REMARK 927      BINDING AFFINITY PREDICTED BY RF-SCORE:    0.00 PKD
ROOT
HETATM    1  N   UNL     1     -11.389   6.433  70.492  1.00  0.00    -0.352 NA 
HETATM    2  C   UNL     1     -10.944   6.912  69.269  1.00  0.00    -0.221 A  
HETATM    3  H1  UNL     1     -11.899   5.555  70.592  1.00  0.00     0.000 HD 
HETATM    4  H2  UNL     1     -11.956   7.165  70.919  1.00  0.00     0.000 HD 
HETATM    5  C   UNL     1     -10.242   8.120  69.131  1.00  0.00    -0.214 A  
HETATM    6  N   UNL     1      -9.851   9.067  70.047  1.00  0.00    -0.176 NA 
HETATM    7  C   UNL     1      -9.274  10.010  69.330  1.00  0.00    -0.216 A  
HETATM    8  N   UNL     1      -9.241   9.691  67.993  1.00  0.00    -0.126 NA 
HETATM    9  N   UNL     1     -11.225   6.199  68.156  1.00  0.00    -0.229 NA 
HETATM   10  C   UNL     1      -9.874   8.489  67.844  1.00  0.00    -0.170 A  
HETATM   11  N   UNL     1     -10.130   7.815  66.710  1.00  0.00    -0.270 NA 
HETATM   12  C   UNL     1     -10.797   6.670  66.968  1.00  0.00    -0.397 A  
ENDROOT
BRANCH   8  13
HETATM   13  C   UNL     1      -8.626  10.533  66.988  1.00  0.00    -0.127 C  
HETATM   14  C   UNL     1     -10.033  12.368  66.640  1.00  0.00    -0.225 C  
HETATM   15  C   UNL     1     -10.140  11.519  65.372  1.00  0.00    -0.260 C  
HETATM   16  O   UNL     1      -7.956  10.813  64.630  1.00  0.00    -0.356 OA 
HETATM   17  O   UNL     1      -8.869  11.903  67.360  1.00  0.00    -0.160 OA 
HETATM   18  C   UNL     1      -9.050  10.454  65.514  1.00  0.00    -0.177 C  
HETATM   19  H   UNL     1      -8.218  10.764  63.718  1.00  0.00     0.000 HD 
HETATM   20  O   UNL     1      -9.941  12.345  64.219  1.00  0.00    -0.482 OA 
HETATM   21  H   UNL     1     -10.008  11.818  63.431  1.00  0.00     0.000 HD 
BRANCH  14  22
HETATM   22  C   UNL     1     -11.307  12.233  67.485  1.00  0.00    -0.325 C  
BRANCH  22  23
HETATM   23  O   UNL     1     -11.737  13.501  67.965  1.00  0.00    -0.318 OA 
HETATM   24  P   UNL     1     -11.177  14.805  66.973  1.00  0.00    -0.336 P  
HETATM   25  O   UNL     1     -10.676  15.970  66.087  1.00  0.00    -0.305 OA 
HETATM   26  O   UNL     1     -12.521  14.532  66.090  1.00  0.00    -0.315 OA 
HETATM   27  O   UNL     1     -11.831  15.783  68.108  1.00  0.00    -0.263 OA 
ENDBRANCH  22  23
ENDBRANCH  14  22
ENDBRANCH   8  13
TORSDOF 3
ENDMDL
MODEL      101
REMARK 921   NORMALIZED FREE ENERGY PREDICTED BY IDOCK:   -5.04 KCAL/MOL
REMARK 922        TOTAL FREE ENERGY PREDICTED BY IDOCK:   -6.39 KCAL/MOL
REMARK 923 INTER-LIGAND FREE ENERGY PREDICTED BY IDOCK:   -6.10 KCAL/MOL
REMARK 924 INTRA-LIGAND FREE ENERGY PREDICTED BY IDOCK:   -0.29 KCAL/MOL
REMARK 927      BINDING AFFINITY PREDICTED BY RF-SCORE:    0.00 PKD
ROOT
HETATM    1  N   UNL     1     -11.620   7.269  70.438  1.00  0.00    -0.447 NA 
HETATM    2  C   UNL     1     -11.029   7.522  69.210  1.00  0.00    -0.038 A  
HETATM    3  H1  UNL     1     -12.051   6.375  70.674  1.00  0.00     0.000 HD 
HETATM    4  H2  UNL     1     -12.319   7.995  70.596  1.00  0.00     0.000 HD 
HETATM    5  C   UNL     1     -10.436   8.752  68.885  1.00  0.00    -0.197 A  
HETATM    6  N   UNL     1     -10.296   9.921  69.594  1.00  0.00    -0.224 NA 
HETATM    7  C   UNL     1      -9.703  10.751  68.759  1.00  0.00    -0.192 A  
HETATM    8  N   UNL     1      -9.420  10.152  67.554  1.00  0.00    -0.151 NA 
HETATM    9  N   UNL     1     -11.051   6.549  68.271  1.00  0.00    -0.280 NA 
HETATM   10  C   UNL     1      -9.899   8.873  67.611  1.00  0.00    -0.182 A  
HETATM   11  N   UNL     1      -9.897   7.937  66.646  1.00  0.00    -0.241 NA 
HETATM   12  C   UNL     1     -10.481   6.799  67.076  1.00  0.00    -0.299 A  
ENDROOT
BRANCH   8  13
HETATM   13  C   UNL     1      -8.733  10.826  66.472  1.00  0.00    -0.151 C  
HETATM   14  C   UNL     1      -9.999  12.702  65.886  1.00  0.00    -0.264 C  
HETATM   15  C   UNL     1     -10.152  11.721  64.722  1.00  0.00    -0.263 C  
HETATM   16  O   UNL     1      -8.016  10.782  64.111  1.00  0.00    -0.358 OA 
HETATM   17  O   UNL     1      -8.881  12.243  66.679  1.00  0.00    -0.204 OA 
HETATM   18  C   UNL     1      -9.144  10.606  65.008  1.00  0.00    -0.202 C  
HETATM   19  H   UNL     1      -8.270  10.645  63.206  1.00  0.00     0.000 HD 
HETATM   20  O   UNL     1      -9.879  12.391  63.486  1.00  0.00    -0.614 OA 
HETATM   21  H   UNL     1      -9.975  11.782  62.763  1.00  0.00     0.000 HD 
BRANCH  14  22
HETATM   22  C   UNL     1     -11.290  12.757  66.714  1.00  0.00    -0.313 C  
BRANCH  22  23
HETATM   23  O   UNL     1     -11.510  14.065  67.229  1.00  0.00    -0.314 OA 
HETATM   24  P   UNL     1     -11.794  14.060  68.937  1.00  0.00    -0.341 P  
HETATM   25  O   UNL     1     -12.049  14.057  70.463  1.00  0.00    -0.316 OA 
HETATM   26  O   UNL     1     -10.170  14.134  69.072  1.00  0.00    -0.211 OA 
HETATM   27  O   UNL     1     -12.093  15.658  68.764  1.00  0.00    -0.301 OA 
ENDBRANCH  22  23
ENDBRANCH  14  22
ENDBRANCH   8  13
TORSDOF 3
ENDMDL
MODEL      102
REMARK 921   NORMALIZED FREE ENERGY PREDICTED BY IDOCK:   -5.04 KCAL/MOL
REMARK 922        TOTAL FREE ENERGY PREDICTED BY IDOCK:   -6.39 KCAL/MOL
REMARK 923 INTER-LIGAND FREE ENERGY PREDICTED BY IDOCK:   -6.08 KCAL/MOL
REMARK 924 INTRA-LIGAND FREE ENERGY PREDICTED BY IDOCK:   -0.31 KCAL/MOL
REMARK 927      BINDING AFFINITY PREDICTED BY RF-SCORE:    0.00 PKD
ROOT
HETATM    1  N   UNL     1      -7.672   7.415  65.433  1.00  0.00    -0.103 NA 
HETATM    2  C   UNL     1      -8.673   8.310  65.778  1.00  0.00    -0.166 A  
HETATM    3  H1  UNL     1      -7.405   6.626  66.021  1.00  0.00     0.000 HD 
HETATM    4  H2  UNL     1      -6.827   7.956  65.248  1.00  0.00     0.000 HD 
HETATM    5  C   UNL     1      -9.040   9.397  64.968  1.00  0.00    -0.215 A  
HETATM    6  N   UNL     1      -8.568   9.841  63.756  1.00  0.00    -0.183 NA 
HETATM    7  C   UNL     1      -9.258  10.937  63.509  1.00  0.00    -0.245 A  
HETATM    8  N   UNL     1     -10.183  11.194  64.494  1.00  0.00    -0.299 NA 
HETATM    9  N   UNL     1      -9.302   8.147  66.963  1.00  0.00    -0.146 NA 
HETATM   10  C   UNL     1     -10.046  10.225  65.447  1.00  0.00    -0.284 A  
HETATM   11  N   UNL     1     -10.699  10.104  66.616  1.00  0.00    -0.138 NA 
HETATM   12  C   UNL     1     -10.271   9.022  67.300  1.00  0.00    -0.256 A  
ENDROOT
BRANCH   8  13
HETATM   13  C   UNL     1     -11.101  12.313  64.451  1.00  0.00    -0.330 C  
HETATM   14  C   UNL     1     -10.305  13.944  65.923  1.00  0.00    -0.311 C  
HETATM   15  C   UNL     1     -11.565  13.376  66.579  1.00  0.00    -0.357 C  
HETATM   16  O   UNL     1     -13.351  13.183  64.970  1.00  0.00    -0.634 OA 
HETATM   17  O   UNL     1     -10.322  13.520  64.542  1.00  0.00    -0.423 OA 
HETATM   18  C   UNL     1     -12.200  12.483  65.511  1.00  0.00    -0.377 C  
HETATM   19  H   UNL     1     -14.031  13.288  65.625  1.00  0.00     0.000 HD 
HETATM   20  O   UNL     1     -12.431  14.447  66.972  1.00  0.00    -0.579 OA 
HETATM   21  H   UNL     1     -13.213  14.094  67.380  1.00  0.00     0.000 HD 
BRANCH  14  22
HETATM   22  C   UNL     1      -9.049  13.442  66.650  1.00  0.00    -0.169 C  
BRANCH  22  23
HETATM   23  O   UNL     1      -8.645  14.358  67.661  1.00  0.00    -0.164 OA 
HETATM   24  P   UNL     1      -7.224  13.831  68.496  1.00  0.00    -0.122 P  
HETATM   25  O   UNL     1      -5.953  13.360  69.244  1.00  0.00    -0.082 OA 
HETATM   26  O   UNL     1      -6.405  14.580  67.300  1.00  0.00    -0.301 OA 
HETATM   27  O   UNL     1      -7.467  15.125  69.466  1.00  0.00    -0.196 OA 
ENDBRANCH  22  23
ENDBRANCH  14  22
ENDBRANCH   8  13
TORSDOF 3
ENDMDL
MODEL      103
REMARK 921   NORMALIZED FREE ENERGY PREDICTED BY IDOCK:   -5.03 KCAL/MOL
REMARK 922        TOTAL FREE ENERGY PREDICTED BY IDOCK:   -6.38 KCAL/MOL
REMARK 923 INTER-LIGAND FREE ENERGY PREDICTED BY IDOCK:   -5.95 KCAL/MOL
REMARK 924 INTRA-LIGAND FREE ENERGY PREDICTED BY IDOCK:   -0.42 KCAL/MOL
REMARK 927      BINDING AFFINITY PREDICTED BY RF-SCORE:    0.00 PKD
ROOT
HETATM    1  N   UNL     1     -13.248  12.372  64.417  1.00  0.00    -0.778 NA 
HETATM    2  C   UNL     1     -12.141  12.705  65.185  1.00  0.00    -0.455 A  
HETATM    3  H1  UNL     1     -14.097  12.936  64.394  1.00  0.00     0.000 HD 
HETATM    4  H2  UNL     1     -13.520  11.422  64.668  1.00  0.00     0.000 HD 
HETATM    5  C   UNL     1     -10.972  11.928  65.217  1.00  0.00    -0.302 A  
HETATM    6  N   UNL     1     -10.628  10.756  64.588  1.00  0.00    -0.283 NA 
HETATM    7  C   UNL     1      -9.424  10.471  65.042  1.00  0.00    -0.244 A  
HETATM    8  N   UNL     1      -8.961  11.434  65.908  1.00  0.00    -0.201 NA 
HETATM    9  N   UNL     1     -12.203  13.810  65.960  1.00  0.00    -0.438 NA 
HETATM   10  C   UNL     1      -9.949  12.369  66.046  1.00  0.00    -0.255 A  
HETATM   11  N   UNL     1      -9.964  13.458  66.834  1.00  0.00    -0.246 NA 
HETATM   12  C   UNL     1     -11.129  14.128  66.710  1.00  0.00    -0.310 A  
ENDROOT
BRANCH   8  13
HETATM   13  C   UNL     1      -7.650  11.391  66.520  1.00  0.00    -0.080 C  
HETATM   14  C   UNL     1      -7.861  10.302  68.578  1.00  0.00    -0.097 C  
HETATM   15  C   UNL     1      -7.593  11.771  68.913  1.00  0.00    -0.063 C  
HETATM   16  O   UNL     1      -5.794  12.639  67.561  1.00  0.00    -0.128 OA 
HETATM   17  O   UNL     1      -7.522  10.120  67.185  1.00  0.00    -0.090 OA 
HETATM   18  C   UNL     1      -7.229  12.423  67.577  1.00  0.00    -0.145 C  
HETATM   19  H   UNL     1      -5.533  13.277  68.214  1.00  0.00     0.000 HD 
HETATM   20  O   UNL     1      -6.527  11.863  69.866  1.00  0.00    -0.259 OA 
HETATM   21  H   UNL     1      -6.360  12.775  70.074  1.00  0.00     0.000 HD 
BRANCH  14  22
HETATM   22  C   UNL     1      -9.331   9.951  68.849  1.00  0.00    -0.170 C  
BRANCH  22  23
HETATM   23  O   UNL     1      -9.504   9.475  70.179  1.00  0.00    -0.214 OA 
HETATM   24  P   UNL     1     -11.157   9.530  70.687  1.00  0.00    -0.350 P  
HETATM   25  O   UNL     1     -12.636   9.579  71.142  1.00  0.00    -0.312 OA 
HETATM   26  O   UNL     1     -11.277   8.055  70.000  1.00  0.00    -0.208 OA 
HETATM   27  O   UNL     1     -10.592   9.068  72.150  1.00  0.00    -0.324 OA 
ENDBRANCH  22  23
ENDBRANCH  14  22
ENDBRANCH   8  13
TORSDOF 3
ENDMDL
MODEL      104
REMARK 921   NORMALIZED FREE ENERGY PREDICTED BY IDOCK:   -5.02 KCAL/MOL
REMARK 922        TOTAL FREE ENERGY PREDICTED BY IDOCK:   -6.38 KCAL/MOL
REMARK 923 INTER-LIGAND FREE ENERGY PREDICTED BY IDOCK:   -5.80 KCAL/MOL
REMARK 924 INTRA-LIGAND FREE ENERGY PREDICTED BY IDOCK:   -0.58 KCAL/MOL
REMARK 927      BINDING AFFINITY PREDICTED BY RF-SCORE:    0.00 PKD
ROOT
HETATM    1  N   UNL     1      -8.837   6.997  64.880  1.00  0.00    -0.289 NA 
HETATM    2  C   UNL     1      -8.429   8.229  65.370  1.00  0.00    -0.172 A  
HETATM    3  H1  UNL     1      -8.386   6.536  64.091  1.00  0.00     0.000 HD 
HETATM    4  H2  UNL     1      -9.832   7.069  64.664  1.00  0.00     0.000 HD 
HETATM    5  C   UNL     1      -9.050   8.864  66.457  1.00  0.00    -0.166 A  
HETATM    6  N   UNL     1     -10.117   8.504  67.246  1.00  0.00    -0.226 NA 
HETATM    7  C   UNL     1     -10.280   9.518  68.071  1.00  0.00    -0.201 A  
HETATM    8  N   UNL     1      -9.338  10.500  67.873  1.00  0.00    -0.142 NA 
HETATM    9  N   UNL     1      -7.405   8.860  64.753  1.00  0.00    -0.095 NA 
HETATM   10  C   UNL     1      -8.550  10.105  66.828  1.00  0.00    -0.126 A  
HETATM   11  N   UNL     1      -7.537  10.771  66.247  1.00  0.00    -0.140 NA 
HETATM   12  C   UNL     1      -7.013  10.060  65.227  1.00  0.00    -0.132 A  
ENDROOT
BRANCH   8  13
HETATM   13  C   UNL     1      -9.262  11.705  68.672  1.00  0.00    -0.108 C  
HETATM   14  C   UNL     1     -11.004  13.113  68.000  1.00  0.00    -0.247 C  
HETATM   15  C   UNL     1      -9.719  13.776  67.498  1.00  0.00    -0.230 C  
HETATM   16  O   UNL     1      -8.027  13.770  69.217  1.00  0.00    -0.335 OA 
HETATM   17  O   UNL     1     -10.611  12.115  68.969  1.00  0.00    -0.181 OA 
HETATM   18  C   UNL     1      -8.583  12.975  68.137  1.00  0.00    -0.188 C  
HETATM   19  H   UNL     1      -7.607  14.555  68.886  1.00  0.00     0.000 HD 
HETATM   20  O   UNL     1      -9.698  15.152  67.894  1.00  0.00    -0.207 OA 
HETATM   21  H   UNL     1      -8.901  15.564  67.581  1.00  0.00     0.000 HD 
BRANCH  14  22
HETATM   22  C   UNL     1     -11.777  12.488  66.831  1.00  0.00    -0.377 C  
BRANCH  22  23
HETATM   23  O   UNL     1     -11.032  12.575  65.623  1.00  0.00    -0.274 OA 
HETATM   24  P   UNL     1     -12.003  12.256  64.226  1.00  0.00    -0.405 P  
HETATM   25  O   UNL     1     -12.871  11.971  62.977  1.00  0.00    -0.537 OA 
HETATM   26  O   UNL     1     -12.361  13.847  64.278  1.00  0.00    -0.586 OA 
HETATM   27  O   UNL     1     -10.604  12.353  63.386  1.00  0.00    -0.436 OA 
ENDBRANCH  22  23
ENDBRANCH  14  22
ENDBRANCH   8  13
TORSDOF 3
ENDMDL
MODEL      105
REMARK 921   NORMALIZED FREE ENERGY PREDICTED BY IDOCK:   -5.02 KCAL/MOL
REMARK 922        TOTAL FREE ENERGY PREDICTED BY IDOCK:   -6.37 KCAL/MOL
REMARK 923 INTER-LIGAND FREE ENERGY PREDICTED BY IDOCK:   -5.67 KCAL/MOL
REMARK 924 INTRA-LIGAND FREE ENERGY PREDICTED BY IDOCK:   -0.70 KCAL/MOL
REMARK 927      BINDING AFFINITY PREDICTED BY RF-SCORE:    0.00 PKD
ROOT
HETATM    1  N   UNL     1      -7.256  18.784  65.221  1.00  0.00    -0.432 NA 
HETATM    2  C   UNL     1      -7.580  18.126  66.398  1.00  0.00    -0.256 A  
HETATM    3  H1  UNL     1      -6.492  19.457  65.153  1.00  0.00     0.000 HD 
HETATM    4  H2  UNL     1      -8.101  19.248  64.888  1.00  0.00     0.000 HD 
HETATM    5  C   UNL     1      -8.631  17.200  66.492  1.00  0.00    -0.271 A  
HETATM    6  N   UNL     1      -9.540  16.742  65.567  1.00  0.00    -0.474 NA 
HETATM    7  C   UNL     1     -10.322  15.924  66.242  1.00  0.00    -0.314 A  
HETATM    8  N   UNL     1      -9.930  15.805  67.555  1.00  0.00    -0.234 NA 
HETATM    9  N   UNL     1      -6.870  18.411  67.512  1.00  0.00    -0.201 NA 
HETATM   10  C   UNL     1      -8.857  16.631  67.738  1.00  0.00    -0.206 A  
HETATM   11  N   UNL     1      -8.180  16.882  68.871  1.00  0.00    -0.246 NA 
HETATM   12  C   UNL     1      -7.190  17.774  68.656  1.00  0.00    -0.260 A  
ENDROOT
BRANCH   8  13
HETATM   13  C   UNL     1     -10.591  14.937  68.507  1.00  0.00    -0.245 C  
HETATM   14  C   UNL     1      -9.885  12.749  68.082  1.00  0.00    -0.226 C  
HETATM   15  C   UNL     1     -11.348  12.805  67.636  1.00  0.00    -0.310 C  
HETATM   16  O   UNL     1     -12.701  13.926  69.290  1.00  0.00    -0.306 OA 
HETATM   17  O   UNL     1      -9.648  13.920  68.895  1.00  0.00    -0.115 OA 
HETATM   18  C   UNL     1     -11.861  14.160  68.129  1.00  0.00    -0.352 C  
HETATM   19  H   UNL     1     -13.486  13.445  69.056  1.00  0.00     0.000 HD 
HETATM   20  O   UNL     1     -12.072  11.712  68.214  1.00  0.00    -0.552 OA 
HETATM   21  H   UNL     1     -12.980  11.746  67.937  1.00  0.00     0.000 HD 
BRANCH  14  22
HETATM   22  C   UNL     1      -8.955  12.714  66.862  1.00  0.00    -0.213 C  
BRANCH  22  23
HETATM   23  O   UNL     1      -7.701  13.316  67.160  1.00  0.00    -0.120 OA 
HETATM   24  P   UNL     1      -6.645  12.247  68.019  1.00  0.00    -0.104 P  
HETATM   25  O   UNL     1      -5.701  11.292  68.788  1.00  0.00    -0.043 OA 
HETATM   26  O   UNL     1      -6.194  11.721  66.542  1.00  0.00    -0.094 OA 
HETATM   27  O   UNL     1      -5.641  13.533  68.132  1.00  0.00    -0.093 OA 
ENDBRANCH  22  23
ENDBRANCH  14  22
ENDBRANCH   8  13
TORSDOF 3
ENDMDL
MODEL      106
REMARK 921   NORMALIZED FREE ENERGY PREDICTED BY IDOCK:   -4.99 KCAL/MOL
REMARK 922        TOTAL FREE ENERGY PREDICTED BY IDOCK:   -6.34 KCAL/MOL
REMARK 923 INTER-LIGAND FREE ENERGY PREDICTED BY IDOCK:   -5.94 KCAL/MOL
REMARK 924 INTRA-LIGAND FREE ENERGY PREDICTED BY IDOCK:   -0.40 KCAL/MOL
REMARK 927      BINDING AFFINITY PREDICTED BY RF-SCORE:    0.00 PKD
ROOT
HETATM    1  N   UNL     1     -13.424  14.324  65.566  1.00  0.00    -0.568 NA 
HETATM    2  C   UNL     1     -12.537  13.355  65.121  1.00  0.00    -0.440 A  
HETATM    3  H1  UNL     1     -13.839  15.022  64.949  1.00  0.00     0.000 HD 
HETATM    4  H2  UNL     1     -12.971  14.824  66.331  1.00  0.00     0.000 HD 
HETATM    5  C   UNL     1     -11.965  12.394  65.970  1.00  0.00    -0.350 A  
HETATM    6  N   UNL     1     -12.090  12.168  67.320  1.00  0.00    -0.525 NA 
HETATM    7  C   UNL     1     -11.274  11.163  67.568  1.00  0.00    -0.301 A  
HETATM    8  N   UNL     1     -10.659  10.706  66.426  1.00  0.00    -0.210 NA 
HETATM    9  N   UNL     1     -12.185  13.355  63.816  1.00  0.00    -0.659 NA 
HETATM   10  C   UNL     1     -11.077  11.496  65.392  1.00  0.00    -0.186 A  
HETATM   11  N   UNL     1     -10.696  11.456  64.104  1.00  0.00    -0.352 NA 
HETATM   12  C   UNL     1     -11.318  12.416  63.386  1.00  0.00    -0.433 A  
ENDROOT
BRANCH   8  13
HETATM   13  C   UNL     1      -9.746   9.583  66.409  1.00  0.00    -0.232 C  
HETATM   14  C   UNL     1      -7.614  10.392  66.925  1.00  0.00    -0.107 C  
HETATM   15  C   UNL     1      -7.565  10.015  65.443  1.00  0.00    -0.138 C  
HETATM   16  O   UNL     1      -8.586   7.861  65.077  1.00  0.00    -0.329 OA 
HETATM   17  O   UNL     1      -8.799   9.776  67.477  1.00  0.00    -0.125 OA 
HETATM   18  C   UNL     1      -8.880   9.279  65.177  1.00  0.00    -0.198 C  
HETATM   19  H   UNL     1      -8.050   7.672  64.315  1.00  0.00     0.000 HD 
HETATM   20  O   UNL     1      -6.423   9.188  65.192  1.00  0.00    -0.067 OA 
HETATM   21  H   UNL     1      -6.392   8.954  64.271  1.00  0.00     0.000 HD 
BRANCH  14  22
HETATM   22  C   UNL     1      -7.645  11.918  67.090  1.00  0.00    -0.154 C  
BRANCH  22  23
HETATM   23  O   UNL     1      -6.981  12.316  68.283  1.00  0.00    -0.069 OA 
HETATM   24  P   UNL     1      -6.404  13.946  68.202  1.00  0.00    -0.158 P  
HETATM   25  O   UNL     1      -5.887  15.403  68.130  1.00  0.00    -0.112 OA 
HETATM   26  O   UNL     1      -7.891  14.356  68.733  1.00  0.00    -0.135 OA 
HETATM   27  O   UNL     1      -5.710  13.638  69.650  1.00  0.00    -0.091 OA 
ENDBRANCH  22  23
ENDBRANCH  14  22
ENDBRANCH   8  13
TORSDOF 3
ENDMDL
MODEL      107
REMARK 921   NORMALIZED FREE ENERGY PREDICTED BY IDOCK:   -4.99 KCAL/MOL
REMARK 922        TOTAL FREE ENERGY PREDICTED BY IDOCK:   -6.33 KCAL/MOL
REMARK 923 INTER-LIGAND FREE ENERGY PREDICTED BY IDOCK:   -5.92 KCAL/MOL
REMARK 924 INTRA-LIGAND FREE ENERGY PREDICTED BY IDOCK:   -0.41 KCAL/MOL
REMARK 927      BINDING AFFINITY PREDICTED BY RF-SCORE:    0.00 PKD
ROOT
HETATM    1  N   UNL     1     -10.781   8.254  71.244  1.00  0.00    -0.221 NA 
HETATM    2  C   UNL     1     -11.301   9.423  70.710  1.00  0.00    -0.300 A  
HETATM    3  H1  UNL     1     -10.988   7.936  72.191  1.00  0.00     0.000 HD 
HETATM    4  H2  UNL     1      -9.766   8.301  71.154  1.00  0.00     0.000 HD 
HETATM    5  C   UNL     1     -11.015   9.861  69.407  1.00  0.00    -0.230 A  
HETATM    6  N   UNL     1     -10.229   9.334  68.411  1.00  0.00    -0.195 NA 
HETATM    7  C   UNL     1     -10.301  10.209  67.428  1.00  0.00    -0.238 A  
HETATM    8  N   UNL     1     -11.134  11.259  67.735  1.00  0.00    -0.249 NA 
HETATM    9  N   UNL     1     -12.095  10.191  71.489  1.00  0.00    -0.376 NA 
HETATM   10  C   UNL     1     -11.589  11.061  69.009  1.00  0.00    -0.323 A  
HETATM   11  N   UNL     1     -12.381  11.858  69.746  1.00  0.00    -0.135 NA 
HETATM   12  C   UNL     1     -12.594  11.330  70.970  1.00  0.00    -0.394 A  
ENDROOT
BRANCH   8  13
HETATM   13  C   UNL     1     -11.426  12.340  66.816  1.00  0.00    -0.361 C  
HETATM   14  C   UNL     1      -9.661  13.869  66.934  1.00  0.00    -0.269 C  
HETATM   15  C   UNL     1     -10.855  14.564  67.593  1.00  0.00    -0.273 C  
HETATM   16  O   UNL     1     -12.847  14.279  66.264  1.00  0.00    -0.487 OA 
HETATM   17  O   UNL     1     -10.184  12.737  66.204  1.00  0.00    -0.263 OA 
HETATM   18  C   UNL     1     -12.052  13.655  67.305  1.00  0.00    -0.345 C  
HETATM   19  H   UNL     1     -13.235  15.093  66.566  1.00  0.00     0.000 HD 
HETATM   20  O   UNL     1     -11.022  15.871  67.032  1.00  0.00    -0.291 OA 
HETATM   21  H   UNL     1     -11.763  16.303  67.442  1.00  0.00     0.000 HD 
BRANCH  14  22
HETATM   22  C   UNL     1      -8.643  13.430  67.996  1.00  0.00    -0.174 C  
BRANCH  22  23
HETATM   23  O   UNL     1      -7.380  14.046  67.776  1.00  0.00    -0.133 OA 
HETATM   24  P   UNL     1      -7.260  15.595  68.538  1.00  0.00    -0.135 P  
HETATM   25  O   UNL     1      -7.153  16.980  69.220  1.00  0.00    -0.237 OA 
HETATM   26  O   UNL     1      -6.776  14.761  69.854  1.00  0.00    -0.164 OA 
HETATM   27  O   UNL     1      -5.814  15.715  67.785  1.00  0.00    -0.131 OA 
ENDBRANCH  22  23
ENDBRANCH  14  22
ENDBRANCH   8  13
TORSDOF 3
ENDMDL
MODEL      108
REMARK 921   NORMALIZED FREE ENERGY PREDICTED BY IDOCK:   -4.98 KCAL/MOL
REMARK 922        TOTAL FREE ENERGY PREDICTED BY IDOCK:   -6.33 KCAL/MOL
REMARK 923 INTER-LIGAND FREE ENERGY PREDICTED BY IDOCK:   -5.60 KCAL/MOL
REMARK 924 INTRA-LIGAND FREE ENERGY PREDICTED BY IDOCK:   -0.72 KCAL/MOL
REMARK 927      BINDING AFFINITY PREDICTED BY RF-SCORE:    0.00 PKD
ROOT
HETATM    1  N   UNL     1      -7.630   7.951  69.200  1.00  0.00    -0.096 NA 
HETATM    2  C   UNL     1      -8.463   8.337  68.161  1.00  0.00    -0.132 A  
HETATM    3  H1  UNL     1      -7.702   7.045  69.663  1.00  0.00     0.000 HD 
HETATM    4  H2  UNL     1      -7.690   8.669  69.923  1.00  0.00     0.000 HD 
HETATM    5  C   UNL     1      -8.363   9.583  67.523  1.00  0.00    -0.125 A  
HETATM    6  N   UNL     1      -7.526  10.655  67.723  1.00  0.00    -0.090 NA 
HETATM    7  C   UNL     1      -7.935  11.566  66.863  1.00  0.00    -0.164 A  
HETATM    8  N   UNL     1      -8.977  11.110  66.089  1.00  0.00    -0.191 NA 
HETATM    9  N   UNL     1      -9.435   7.485  67.764  1.00  0.00    -0.140 NA 
HETATM   10  C   UNL     1      -9.277   9.845  66.510  1.00  0.00    -0.155 A  
HETATM   11  N   UNL     1     -10.258   9.033  66.082  1.00  0.00    -0.196 NA 
HETATM   12  C   UNL     1     -10.248   7.864  66.758  1.00  0.00    -0.287 A  
ENDROOT
BRANCH   8  13
HETATM   13  C   UNL     1      -9.588  11.893  65.036  1.00  0.00    -0.091 C  
HETATM   14  C   UNL     1     -10.911  13.535  66.048  1.00  0.00    -0.278 C  
HETATM   15  C   UNL     1     -11.892  12.547  65.414  1.00  0.00    -0.428 C  
HETATM   16  O   UNL     1     -11.203  11.980  63.173  1.00  0.00    -0.671 OA 
HETATM   17  O   UNL     1      -9.612  13.266  65.473  1.00  0.00    -0.105 OA 
HETATM   18  C   UNL     1     -11.024  11.614  64.566  1.00  0.00    -0.314 C  
HETATM   19  H   UNL     1     -12.091  11.807  62.882  1.00  0.00     0.000 HD 
HETATM   20  O   UNL     1     -12.852  13.258  64.624  1.00  0.00    -0.679 OA 
HETATM   21  H   UNL     1     -13.461  12.645  64.230  1.00  0.00     0.000 HD 
BRANCH  14  22
HETATM   22  C   UNL     1     -10.895  13.370  67.574  1.00  0.00    -0.263 C  
BRANCH  22  23
HETATM   23  O   UNL     1     -11.927  12.490  68.002  1.00  0.00    -0.342 OA 
HETATM   24  P   UNL     1     -11.358  11.304  69.127  1.00  0.00    -0.343 P  
HETATM   25  O   UNL     1     -10.848  10.244  70.132  1.00  0.00    -0.281 OA 
HETATM   26  O   UNL     1     -11.661  12.433  70.265  1.00  0.00    -0.262 OA 
HETATM   27  O   UNL     1     -12.858  10.663  69.019  1.00  0.00     0.033 OA 
ENDBRANCH  22  23
ENDBRANCH  14  22
ENDBRANCH   8  13
TORSDOF 3
ENDMDL
MODEL      109
REMARK 921   NORMALIZED FREE ENERGY PREDICTED BY IDOCK:   -4.98 KCAL/MOL
REMARK 922        TOTAL FREE ENERGY PREDICTED BY IDOCK:   -6.32 KCAL/MOL
REMARK 923 INTER-LIGAND FREE ENERGY PREDICTED BY IDOCK:   -5.73 KCAL/MOL
REMARK 924 INTRA-LIGAND FREE ENERGY PREDICTED BY IDOCK:   -0.59 KCAL/MOL
REMARK 927      BINDING AFFINITY PREDICTED BY RF-SCORE:    0.00 PKD
ROOT
HETATM    1  N   UNL     1     -13.156  12.810  64.747  1.00  0.00    -0.836 NA 
HETATM    2  C   UNL     1     -11.915  12.194  64.780  1.00  0.00    -0.307 A  
HETATM    3  H1  UNL     1     -13.693  12.934  63.889  1.00  0.00     0.000 HD 
HETATM    4  H2  UNL     1     -13.052  13.730  65.177  1.00  0.00     0.000 HD 
HETATM    5  C   UNL     1     -11.176  12.023  65.961  1.00  0.00    -0.335 A  
HETATM    6  N   UNL     1     -11.428  12.383  67.264  1.00  0.00    -0.332 NA 
HETATM    7  C   UNL     1     -10.352  12.012  67.928  1.00  0.00    -0.197 A  
HETATM    8  N   UNL     1      -9.433  11.393  67.114  1.00  0.00    -0.174 NA 
HETATM    9  N   UNL     1     -11.378  11.764  63.616  1.00  0.00    -0.432 NA 
HETATM   10  C   UNL     1      -9.938  11.407  65.844  1.00  0.00    -0.234 A  
HETATM   11  N   UNL     1      -9.363  10.964  64.712  1.00  0.00    -0.218 NA 
HETATM   12  C   UNL     1     -10.168  11.170  63.649  1.00  0.00    -0.387 A  
ENDROOT
BRANCH   8  13
HETATM   13  C   UNL     1      -8.180  10.850  67.596  1.00  0.00    -0.116 C  
HETATM   14  C   UNL     1      -8.669   8.938  68.849  1.00  0.00    -0.136 C  
HETATM   15  C   UNL     1      -8.210   9.990  69.862  1.00  0.00    -0.159 C  
HETATM   16  O   UNL     1      -6.227  11.118  69.079  1.00  0.00    -0.042 OA 
HETATM   17  O   UNL     1      -8.279   9.414  67.542  1.00  0.00    -0.116 OA 
HETATM   18  C   UNL     1      -7.676  11.148  69.016  1.00  0.00    -0.114 C  
HETATM   19  H   UNL     1      -5.915  11.303  69.957  1.00  0.00     0.000 HD 
HETATM   20  O   UNL     1      -7.200   9.433  70.712  1.00  0.00    -0.114 OA 
HETATM   21  H   UNL     1      -6.915  10.086  71.341  1.00  0.00     0.000 HD 
BRANCH  14  22
HETATM   22  C   UNL     1     -10.188   8.733  68.942  1.00  0.00    -0.207 C  
BRANCH  22  23
HETATM   23  O   UNL     1     -10.637   7.805  67.962  1.00  0.00    -0.201 OA 
HETATM   24  P   UNL     1     -10.164   6.181  68.325  1.00  0.00    -0.223 P  
HETATM   25  O   UNL     1      -9.740   4.729  68.650  1.00  0.00    -0.150 OA 
HETATM   26  O   UNL     1     -11.535   6.121  69.207  1.00  0.00    -0.404 OA 
HETATM   27  O   UNL     1     -10.799   5.802  66.867  1.00  0.00    -0.295 OA 
ENDBRANCH  22  23
ENDBRANCH  14  22
ENDBRANCH   8  13
TORSDOF 3
ENDMDL
MODEL      110
REMARK 921   NORMALIZED FREE ENERGY PREDICTED BY IDOCK:   -4.96 KCAL/MOL
REMARK 922        TOTAL FREE ENERGY PREDICTED BY IDOCK:   -6.30 KCAL/MOL
REMARK 923 INTER-LIGAND FREE ENERGY PREDICTED BY IDOCK:   -5.81 KCAL/MOL
REMARK 924 INTRA-LIGAND FREE ENERGY PREDICTED BY IDOCK:   -0.50 KCAL/MOL
REMARK 927      BINDING AFFINITY PREDICTED BY RF-SCORE:    0.00 PKD
ROOT
HETATM    1  N   UNL     1      -6.979   6.131  69.879  1.00  0.00    -0.068 NA 
HETATM    2  C   UNL     1      -8.340   6.345  69.720  1.00  0.00    -0.127 A  
HETATM    3  H1  UNL     1      -6.402   5.673  69.173  1.00  0.00     0.000 HD 
HETATM    4  H2  UNL     1      -6.849   5.625  70.755  1.00  0.00     0.000 HD 
HETATM    5  C   UNL     1      -9.133   6.977  70.691  1.00  0.00    -0.158 A  
HETATM    6  N   UNL     1      -8.835   7.491  71.930  1.00  0.00    -0.114 NA 
HETATM    7  C   UNL     1      -9.991   7.908  72.407  1.00  0.00    -0.229 A  
HETATM    8  N   UNL     1     -11.015   7.719  71.509  1.00  0.00    -0.231 NA 
HETATM    9  N   UNL     1      -8.935   5.898  68.591  1.00  0.00    -0.117 NA 
HETATM   10  C   UNL     1     -10.486   7.106  70.408  1.00  0.00    -0.218 A  
HETATM   11  N   UNL     1     -11.122   6.679  69.304  1.00  0.00    -0.292 NA 
HETATM   12  C   UNL     1     -10.259   6.102  68.441  1.00  0.00    -0.175 A  
ENDROOT
BRANCH   8  13
HETATM   13  C   UNL     1     -12.381   8.127  71.762  1.00  0.00    -0.321 C  
HETATM   14  C   UNL     1     -12.762  10.109  70.581  1.00  0.00    -0.255 C  
HETATM   15  C   UNL     1     -12.730  10.508  72.058  1.00  0.00    -0.227 C  
HETATM   16  O   UNL     1     -14.036   8.974  73.384  1.00  0.00    -1.231 OA 
HETATM   17  O   UNL     1     -12.907   8.672  70.537  1.00  0.00     0.329 OA 
HETATM   18  C   UNL     1     -12.713   9.185  72.826  1.00  0.00    -0.005 C  
HETATM   19  H   UNL     1     -14.241   9.628  74.043  1.00  0.00     0.000 HD 
HETATM   20  O   UNL     1     -13.883  11.299  72.370  1.00  0.00    -0.348 OA 
HETATM   21  H   UNL     1     -13.863  11.547  73.287  1.00  0.00     0.000 HD 
BRANCH  14  22
HETATM   22  C   UNL     1     -11.478  10.566  69.874  1.00  0.00    -0.310 C  
BRANCH  22  23
HETATM   23  O   UNL     1     -11.758  11.031  68.559  1.00  0.00    -0.372 OA 
HETATM   24  P   UNL     1     -11.467  12.728  68.385  1.00  0.00    -0.357 P  
HETATM   25  O   UNL     1     -11.207  14.245  68.229  1.00  0.00    -0.255 OA 
HETATM   26  O   UNL     1      -9.930  12.293  68.050  1.00  0.00    -0.190 OA 
HETATM   27  O   UNL     1     -12.097  12.555  66.886  1.00  0.00    -0.537 OA 
ENDBRANCH  22  23
ENDBRANCH  14  22
ENDBRANCH   8  13
TORSDOF 3
ENDMDL
MODEL      111
REMARK 921   NORMALIZED FREE ENERGY PREDICTED BY IDOCK:   -4.96 KCAL/MOL
REMARK 922        TOTAL FREE ENERGY PREDICTED BY IDOCK:   -6.30 KCAL/MOL
REMARK 923 INTER-LIGAND FREE ENERGY PREDICTED BY IDOCK:   -5.53 KCAL/MOL
REMARK 924 INTRA-LIGAND FREE ENERGY PREDICTED BY IDOCK:   -0.77 KCAL/MOL
REMARK 927      BINDING AFFINITY PREDICTED BY RF-SCORE:    0.00 PKD
ROOT
HETATM    1  N   UNL     1     -11.538   7.821  72.870  1.00  0.00    -0.603 NA 
HETATM    2  C   UNL     1     -11.187   7.805  71.528  1.00  0.00    -0.244 A  
HETATM    3  H1  UNL     1     -11.481   6.998  73.469  1.00  0.00     0.000 HD 
HETATM    4  H2  UNL     1     -12.492   8.178  72.931  1.00  0.00     0.000 HD 
HETATM    5  C   UNL     1     -11.266   8.938  70.703  1.00  0.00    -0.266 A  
HETATM    6  N   UNL     1     -11.673  10.228  70.948  1.00  0.00    -0.360 NA 
HETATM    7  C   UNL     1     -11.581  10.836  69.782  1.00  0.00    -0.317 A  
HETATM    8  N   UNL     1     -11.093  10.001  68.804  1.00  0.00    -0.206 NA 
HETATM    9  N   UNL     1     -10.779   6.637  70.983  1.00  0.00    -0.230 NA 
HETATM   10  C   UNL     1     -10.901   8.773  69.374  1.00  0.00    -0.110 A  
HETATM   11  N   UNL     1     -10.490   7.636  68.787  1.00  0.00    -0.207 NA 
HETATM   12  C   UNL     1     -10.443   6.622  69.678  1.00  0.00    -0.213 A  
ENDROOT
BRANCH   8  13
HETATM   13  C   UNL     1     -10.853  10.426  67.441  1.00  0.00    -0.286 C  
HETATM   14  C   UNL     1      -8.674  11.267  67.333  1.00  0.00    -0.139 C  
HETATM   15  C   UNL     1      -9.594  12.482  67.187  1.00  0.00    -0.208 C  
HETATM   16  O   UNL     1     -11.378  12.019  65.632  1.00  0.00    -0.333 OA 
HETATM   17  O   UNL     1      -9.489  10.094  67.116  1.00  0.00    -0.154 OA 
HETATM   18  C   UNL     1     -10.999  11.898  67.028  1.00  0.00    -0.278 C  
HETATM   19  H   UNL     1     -11.470  12.929  65.377  1.00  0.00     0.000 HD 
HETATM   20  O   UNL     1      -9.198  13.255  66.048  1.00  0.00    -0.471 OA 
HETATM   21  H   UNL     1      -9.769  14.009  65.958  1.00  0.00     0.000 HD 
BRANCH  14  22
HETATM   22  C   UNL     1      -8.024  11.251  68.723  1.00  0.00    -0.137 C  
BRANCH  22  23
HETATM   23  O   UNL     1      -7.350  10.020  68.956  1.00  0.00    -0.074 OA 
HETATM   24  P   UNL     1      -6.598   9.966  70.514  1.00  0.00    -0.069 P  
HETATM   25  O   UNL     1      -5.926   9.917  71.907  1.00  0.00    -0.295 OA 
HETATM   26  O   UNL     1      -8.045   9.429  71.044  1.00  0.00    -0.300 OA 
HETATM   27  O   UNL     1      -5.976   8.535  70.026  1.00  0.00    -0.028 OA 
ENDBRANCH  22  23
ENDBRANCH  14  22
ENDBRANCH   8  13
TORSDOF 3
ENDMDL
MODEL      112
REMARK 921   NORMALIZED FREE ENERGY PREDICTED BY IDOCK:   -4.95 KCAL/MOL
REMARK 922        TOTAL FREE ENERGY PREDICTED BY IDOCK:   -6.29 KCAL/MOL
REMARK 923 INTER-LIGAND FREE ENERGY PREDICTED BY IDOCK:   -5.82 KCAL/MOL
REMARK 924 INTRA-LIGAND FREE ENERGY PREDICTED BY IDOCK:   -0.47 KCAL/MOL
REMARK 927      BINDING AFFINITY PREDICTED BY RF-SCORE:    0.00 PKD
ROOT
HETATM    1  N   UNL     1      -7.319   7.871  64.671  1.00  0.00    -0.079 NA 
HETATM    2  C   UNL     1      -7.603   9.153  65.118  1.00  0.00    -0.098 A  
HETATM    3  H1  UNL     1      -6.581   7.293  65.073  1.00  0.00     0.000 HD 
HETATM    4  H2  UNL     1      -7.148   7.928  63.667  1.00  0.00     0.000 HD 
HETATM    5  C   UNL     1      -8.618   9.949  64.564  1.00  0.00    -0.186 A  
HETATM    6  N   UNL     1      -9.507   9.724  63.540  1.00  0.00    -0.106 NA 
HETATM    7  C   UNL     1     -10.185  10.849  63.432  1.00  0.00    -0.295 A  
HETATM    8  N   UNL     1      -9.796  11.776  64.371  1.00  0.00    -0.231 NA 
HETATM    9  N   UNL     1      -6.847   9.671  66.112  1.00  0.00    -0.089 NA 
HETATM   10  C   UNL     1      -8.779  11.221  65.096  1.00  0.00     0.093 A  
HETATM   11  N   UNL     1      -8.054  11.779  66.081  1.00  0.00     0.108 NA 
HETATM   12  C   UNL     1      -7.120  10.919  66.540  1.00  0.00    -0.139 A  
ENDROOT
BRANCH   8  13
HETATM   13  C   UNL     1     -10.408  13.081  64.502  1.00  0.00    -0.364 C  
HETATM   14  C   UNL     1     -11.701  13.068  66.450  1.00  0.00    -0.390 C  
HETATM   15  C   UNL     1     -12.700  13.094  65.291  1.00  0.00    -0.394 C  
HETATM   16  O   UNL     1     -12.039  14.715  63.632  1.00  0.00    -0.880 OA 
HETATM   17  O   UNL     1     -10.412  13.422  65.902  1.00  0.00    -0.277 OA 
HETATM   18  C   UNL     1     -11.851  13.335  64.041  1.00  0.00    -0.455 C  
HETATM   19  H   UNL     1     -12.931  14.872  63.346  1.00  0.00     0.000 HD 
HETATM   20  O   UNL     1     -13.658  14.138  65.502  1.00  0.00    -0.685 OA 
HETATM   21  H   UNL     1     -14.279  14.154  64.783  1.00  0.00     0.000 HD 
BRANCH  14  22
HETATM   22  C   UNL     1     -11.673  11.678  67.102  1.00  0.00    -0.133 C  
BRANCH  22  23
HETATM   23  O   UNL     1     -11.726  11.779  68.520  1.00  0.00    -0.295 OA 
HETATM   24  P   UNL     1     -11.245  10.313  69.302  1.00  0.00    -0.174 P  
HETATM   25  O   UNL     1     -10.815   9.001  70.002  1.00  0.00    -0.229 OA 
HETATM   26  O   UNL     1      -9.729  10.903  69.182  1.00  0.00    -0.193 OA 
HETATM   27  O   UNL     1     -11.683  11.057  70.690  1.00  0.00    -0.329 OA 
ENDBRANCH  22  23
ENDBRANCH  14  22
ENDBRANCH   8  13
TORSDOF 3
ENDMDL
MODEL      113
REMARK 921   NORMALIZED FREE ENERGY PREDICTED BY IDOCK:   -4.95 KCAL/MOL
REMARK 922        TOTAL FREE ENERGY PREDICTED BY IDOCK:   -6.29 KCAL/MOL
REMARK 923 INTER-LIGAND FREE ENERGY PREDICTED BY IDOCK:   -5.69 KCAL/MOL
REMARK 924 INTRA-LIGAND FREE ENERGY PREDICTED BY IDOCK:   -0.60 KCAL/MOL
REMARK 927      BINDING AFFINITY PREDICTED BY RF-SCORE:    0.00 PKD
ROOT
HETATM    1  N   UNL     1     -12.297  14.863  68.600  1.00  0.00    -0.592 NA 
HETATM    2  C   UNL     1     -11.124  14.324  68.093  1.00  0.00    -0.258 A  
HETATM    3  H1  UNL     1     -12.311  15.604  69.300  1.00  0.00     0.000 HD 
HETATM    4  H2  UNL     1     -12.856  14.091  68.962  1.00  0.00     0.000 HD 
HETATM    5  C   UNL     1     -11.105  13.304  67.128  1.00  0.00    -0.286 A  
HETATM    6  N   UNL     1     -12.113  12.620  66.494  1.00  0.00    -0.552 NA 
HETATM    7  C   UNL     1     -11.494  11.741  65.732  1.00  0.00    -0.194 A  
HETATM    8  N   UNL     1     -10.126  11.858  65.820  1.00  0.00    -0.233 NA 
HETATM    9  N   UNL     1      -9.945  14.782  68.572  1.00  0.00    -0.221 NA 
HETATM   10  C   UNL     1      -9.858  12.845  66.725  1.00  0.00    -0.241 A  
HETATM   11  N   UNL     1      -8.662  13.267  67.171  1.00  0.00    -0.214 NA 
HETATM   12  C   UNL     1      -8.806  14.253  68.082  1.00  0.00    -0.183 A  
ENDROOT
BRANCH   8  13
HETATM   13  C   UNL     1      -9.207  11.042  65.055  1.00  0.00    -0.197 C  
HETATM   14  C   UNL     1      -9.330   8.860  65.886  1.00  0.00    -0.236 C  
HETATM   15  C   UNL     1      -7.962   9.391  66.320  1.00  0.00    -0.111 C  
HETATM   16  O   UNL     1      -6.863  10.514  64.490  1.00  0.00    -0.324 OA 
HETATM   17  O   UNL     1      -9.823   9.754  64.863  1.00  0.00    -0.284 OA 
HETATM   18  C   UNL     1      -7.799  10.721  65.580  1.00  0.00    -0.076 C  
HETATM   19  H   UNL     1      -5.993  10.316  64.815  1.00  0.00     0.000 HD 
HETATM   20  O   UNL     1      -6.943   8.448  65.967  1.00  0.00    -0.064 OA 
HETATM   21  H   UNL     1      -6.094   8.777  66.236  1.00  0.00     0.000 HD 
BRANCH  14  22
HETATM   22  C   UNL     1     -10.286   8.798  67.086  1.00  0.00    -0.293 C  
BRANCH  22  23
HETATM   23  O   UNL     1      -9.580   8.969  68.309  1.00  0.00    -0.142 OA 
HETATM   24  P   UNL     1     -10.468   9.915  69.455  1.00  0.00    -0.262 P  
HETATM   25  O   UNL     1     -11.262  10.761  70.479  1.00  0.00    -0.282 OA 
HETATM   26  O   UNL     1     -11.153   8.500  69.890  1.00  0.00    -0.218 OA 
HETATM   27  O   UNL     1      -9.124   9.826  70.381  1.00  0.00    -0.229 OA 
ENDBRANCH  22  23
ENDBRANCH  14  22
ENDBRANCH   8  13
TORSDOF 3
ENDMDL
MODEL      114
REMARK 921   NORMALIZED FREE ENERGY PREDICTED BY IDOCK:   -4.91 KCAL/MOL
REMARK 922        TOTAL FREE ENERGY PREDICTED BY IDOCK:   -6.24 KCAL/MOL
REMARK 923 INTER-LIGAND FREE ENERGY PREDICTED BY IDOCK:   -5.70 KCAL/MOL
REMARK 924 INTRA-LIGAND FREE ENERGY PREDICTED BY IDOCK:   -0.54 KCAL/MOL
REMARK 927      BINDING AFFINITY PREDICTED BY RF-SCORE:    0.00 PKD
ROOT
HETATM    1  N   UNL     1      -6.558  11.905  70.392  1.00  0.00    -0.465 NA 
HETATM    2  C   UNL     1      -6.860  12.603  69.232  1.00  0.00    -0.012 A  
HETATM    3  H1  UNL     1      -5.741  12.110  70.967  1.00  0.00     0.000 HD 
HETATM    4  H2  UNL     1      -6.522  10.914  70.152  1.00  0.00     0.000 HD 
HETATM    5  C   UNL     1      -7.984  12.321  68.440  1.00  0.00    -0.152 A  
HETATM    6  N   UNL     1      -8.982  11.384  68.560  1.00  0.00    -0.167 NA 
HETATM    7  C   UNL     1      -9.736  11.558  67.493  1.00  0.00    -0.179 A  
HETATM    8  N   UNL     1      -9.286  12.595  66.710  1.00  0.00    -0.223 NA 
HETATM    9  N   UNL     1      -6.015  13.579  68.829  1.00  0.00    -0.080 NA 
HETATM   10  C   UNL     1      -8.152  13.086  67.294  1.00  0.00    -0.161 A  
HETATM   11  N   UNL     1      -7.342  14.064  66.853  1.00  0.00     0.267 NA 
HETATM   12  C   UNL     1      -6.306  14.252  67.698  1.00  0.00    -0.107 A  
ENDROOT
BRANCH   8  13
HETATM   13  C   UNL     1      -9.954  13.027  65.500  1.00  0.00    -0.214 C  
HETATM   14  C   UNL     1     -11.001  15.067  65.956  1.00  0.00    -0.334 C  
HETATM   15  C   UNL     1     -12.132  14.047  65.808  1.00  0.00    -0.427 C  
HETATM   16  O   UNL     1     -11.771  12.649  63.875  1.00  0.00    -0.380 OA 
HETATM   17  O   UNL     1      -9.810  14.457  65.410  1.00  0.00    -0.325 OA 
HETATM   18  C   UNL     1     -11.455  12.777  65.285  1.00  0.00    -0.325 C  
HETATM   19  H   UNL     1     -12.700  12.494  63.742  1.00  0.00     0.000 HD 
HETATM   20  O   UNL     1     -13.118  14.546  64.897  1.00  0.00    -0.515 OA 
HETATM   21  H   UNL     1     -13.820  13.913  64.805  1.00  0.00     0.000 HD 
BRANCH  14  22
HETATM   22  C   UNL     1     -10.812  15.448  67.430  1.00  0.00    -0.309 C  
BRANCH  22  23
HETATM   23  O   UNL     1      -9.840  16.477  67.571  1.00  0.00    -0.241 OA 
HETATM   24  P   UNL     1     -10.171  17.838  66.554  1.00  0.00    -0.319 P  
HETATM   25  O   UNL     1     -10.465  19.054  65.644  1.00  0.00    -0.554 OA 
HETATM   26  O   UNL     1     -11.102  18.363  67.786  1.00  0.00    -0.218 OA 
HETATM   27  O   UNL     1      -8.734  18.418  67.075  1.00  0.00    -0.258 OA 
ENDBRANCH  22  23
ENDBRANCH  14  22
ENDBRANCH   8  13
TORSDOF 3
ENDMDL
MODEL      115
REMARK 921   NORMALIZED FREE ENERGY PREDICTED BY IDOCK:   -4.90 KCAL/MOL
REMARK 922        TOTAL FREE ENERGY PREDICTED BY IDOCK:   -6.23 KCAL/MOL
REMARK 923 INTER-LIGAND FREE ENERGY PREDICTED BY IDOCK:   -5.54 KCAL/MOL
REMARK 924 INTRA-LIGAND FREE ENERGY PREDICTED BY IDOCK:   -0.69 KCAL/MOL
REMARK 927      BINDING AFFINITY PREDICTED BY RF-SCORE:    0.00 PKD
ROOT
HETATM    1  N   UNL     1      -9.501   8.793  65.227  1.00  0.00    -0.427 NA 
HETATM    2  C   UNL     1      -9.113   8.512  66.529  1.00  0.00    -0.176 A  
HETATM    3  H1  UNL     1      -8.972   9.410  64.611  1.00  0.00     0.000 HD 
HETATM    4  H2  UNL     1     -10.458   9.144  65.262  1.00  0.00     0.000 HD 
HETATM    5  C   UNL     1      -9.841   7.663  67.377  1.00  0.00    -0.173 A  
HETATM    6  N   UNL     1     -11.008   6.960  67.195  1.00  0.00    -0.375 NA 
HETATM    7  C   UNL     1     -11.237   6.382  68.357  1.00  0.00    -0.200 A  
HETATM    8  N   UNL     1     -10.244   6.652  69.269  1.00  0.00    -0.175 NA 
HETATM    9  N   UNL     1      -8.001   9.108  67.013  1.00  0.00    -0.102 NA 
HETATM   10  C   UNL     1      -9.348   7.488  68.663  1.00  0.00    -0.143 A  
HETATM   11  N   UNL     1      -8.250   8.057  69.188  1.00  0.00    -0.128 NA 
HETATM   12  C   UNL     1      -7.629   8.839  68.280  1.00  0.00    -0.096 A  
ENDROOT
BRANCH   8  13
HETATM   13  C   UNL     1     -10.226   6.108  70.611  1.00  0.00    -0.199 C  
HETATM   14  C   UNL     1     -11.581   7.467  71.947  1.00  0.00    -0.272 C  
HETATM   15  C   UNL     1     -10.146   7.736  72.405  1.00  0.00    -0.226 C  
HETATM   16  O   UNL     1      -8.931   5.669  72.664  1.00  0.00    -0.132 OA 
HETATM   17  O   UNL     1     -11.550   6.256  71.158  1.00  0.00    -0.318 OA 
HETATM   18  C   UNL     1      -9.297   6.682  71.691  1.00  0.00    -0.149 C  
HETATM   19  H   UNL     1      -8.356   6.024  73.332  1.00  0.00     0.000 HD 
HETATM   20  O   UNL     1     -10.064   7.621  73.830  1.00  0.00    -0.365 OA 
HETATM   21  H   UNL     1      -9.173   7.789  74.115  1.00  0.00     0.000 HD 
BRANCH  14  22
HETATM   22  C   UNL     1     -12.116   8.654  71.134  1.00  0.00    -0.260 C  
BRANCH  22  23
HETATM   23  O   UNL     1     -11.054   9.491  70.695  1.00  0.00    -0.252 OA 
HETATM   24  P   UNL     1     -11.512  10.489  69.358  1.00  0.00    -0.225 P  
HETATM   25  O   UNL     1     -11.921  11.382  68.161  1.00  0.00    -0.594 OA 
HETATM   26  O   UNL     1     -12.046  11.533  70.492  1.00  0.00    -0.356 OA 
HETATM   27  O   UNL     1      -9.944  10.951  69.327  1.00  0.00    -0.196 OA 
ENDBRANCH  22  23
ENDBRANCH  14  22
ENDBRANCH   8  13
TORSDOF 3
ENDMDL
MODEL      116
REMARK 921   NORMALIZED FREE ENERGY PREDICTED BY IDOCK:   -4.89 KCAL/MOL
REMARK 922        TOTAL FREE ENERGY PREDICTED BY IDOCK:   -6.22 KCAL/MOL
REMARK 923 INTER-LIGAND FREE ENERGY PREDICTED BY IDOCK:   -5.42 KCAL/MOL
REMARK 924 INTRA-LIGAND FREE ENERGY PREDICTED BY IDOCK:   -0.80 KCAL/MOL
REMARK 927      BINDING AFFINITY PREDICTED BY RF-SCORE:    0.00 PKD
ROOT
HETATM    1  N   UNL     1     -12.302  15.592  69.382  1.00  0.00    -0.595 NA 
HETATM    2  C   UNL     1     -11.719  14.856  68.360  1.00  0.00    -0.309 A  
HETATM    3  H1  UNL     1     -12.409  16.605  69.345  1.00  0.00     0.000 HD 
HETATM    4  H2  UNL     1     -11.801  15.369  70.242  1.00  0.00     0.000 HD 
HETATM    5  C   UNL     1     -11.571  13.461  68.410  1.00  0.00    -0.332 A  
HETATM    6  N   UNL     1     -11.906  12.534  69.369  1.00  0.00    -0.316 NA 
HETATM    7  C   UNL     1     -11.477  11.385  68.888  1.00  0.00    -0.298 A  
HETATM    8  N   UNL     1     -10.915  11.527  67.641  1.00  0.00    -0.226 NA 
HETATM    9  N   UNL     1     -11.246  15.517  67.280  1.00  0.00    -0.276 NA 
HETATM   10  C   UNL     1     -10.952  12.856  67.325  1.00  0.00    -0.261 A  
HETATM   11  N   UNL     1     -10.465  13.468  66.232  1.00  0.00    -0.285 NA 
HETATM   12  C   UNL     1     -10.675  14.801  66.291  1.00  0.00    -0.313 A  
ENDROOT
BRANCH   8  13
HETATM   13  C   UNL     1     -10.403  10.416  66.867  1.00  0.00    -0.240 C  
HETATM   14  C   UNL     1      -8.121  10.216  67.336  1.00  0.00    -0.114 C  
HETATM   15  C   UNL     1      -8.203  10.734  65.899  1.00  0.00    -0.155 C  
HETATM   16  O   UNL     1      -9.853   9.504  64.641  1.00  0.00    -0.390 OA 
HETATM   17  O   UNL     1      -9.436   9.727  67.683  1.00  0.00    -0.142 OA 
HETATM   18  C   UNL     1      -9.685  10.641  65.528  1.00  0.00    -0.237 C  
HETATM   19  H   UNL     1      -9.409   9.643  63.813  1.00  0.00     0.000 HD 
HETATM   20  O   UNL     1      -7.381   9.929  65.047  1.00  0.00    -0.122 OA 
HETATM   21  H   UNL     1      -7.432  10.251  64.154  1.00  0.00     0.000 HD 
BRANCH  14  22
HETATM   22  C   UNL     1      -7.669  11.335  68.285  1.00  0.00    -0.122 C  
BRANCH  22  23
HETATM   23  O   UNL     1      -7.350  12.517  67.562  1.00  0.00    -0.127 OA 
HETATM   24  P   UNL     1      -7.427  13.935  68.552  1.00  0.00    -0.123 P  
HETATM   25  O   UNL     1      -7.497  15.203  69.437  1.00  0.00    -0.177 OA 
HETATM   26  O   UNL     1      -5.880  13.589  68.935  1.00  0.00    -0.072 OA 
HETATM   27  O   UNL     1      -7.153  14.763  67.169  1.00  0.00    -0.192 OA 
ENDBRANCH  22  23
ENDBRANCH  14  22
ENDBRANCH   8  13
TORSDOF 3
ENDMDL
MODEL      117
REMARK 921   NORMALIZED FREE ENERGY PREDICTED BY IDOCK:   -4.87 KCAL/MOL
REMARK 922        TOTAL FREE ENERGY PREDICTED BY IDOCK:   -6.20 KCAL/MOL
REMARK 923 INTER-LIGAND FREE ENERGY PREDICTED BY IDOCK:   -5.96 KCAL/MOL
REMARK 924 INTRA-LIGAND FREE ENERGY PREDICTED BY IDOCK:   -0.24 KCAL/MOL
REMARK 927      BINDING AFFINITY PREDICTED BY RF-SCORE:    0.00 PKD
ROOT
HETATM    1  N   UNL     1      -7.078  17.778  65.534  1.00  0.00    -0.391 NA 
HETATM    2  C   UNL     1      -7.168  16.749  66.458  1.00  0.00    -0.243 A  
HETATM    3  H1  UNL     1      -6.207  18.269  65.331  1.00  0.00     0.000 HD 
HETATM    4  H2  UNL     1      -7.771  18.481  65.791  1.00  0.00     0.000 HD 
HETATM    5  C   UNL     1      -8.367  16.073  66.737  1.00  0.00    -0.270 A  
HETATM    6  N   UNL     1      -9.642  16.223  66.248  1.00  0.00    -0.287 NA 
HETATM    7  C   UNL     1     -10.364  15.347  66.918  1.00  0.00    -0.277 A  
HETATM    8  N   UNL     1      -9.597  14.611  67.791  1.00  0.00    -0.211 NA 
HETATM    9  N   UNL     1      -6.056  16.400  67.144  1.00  0.00    -0.231 NA 
HETATM   10  C   UNL     1      -8.315  15.076  67.701  1.00  0.00    -0.164 A  
HETATM   11  N   UNL     1      -7.238  14.694  68.408  1.00  0.00    -0.109 NA 
HETATM   12  C   UNL     1      -6.147  15.403  68.047  1.00  0.00    -0.142 A  
ENDROOT
BRANCH   8  13
HETATM   13  C   UNL     1     -10.132  13.551  68.620  1.00  0.00    -0.166 C  
HETATM   14  C   UNL     1      -9.987  11.559  67.406  1.00  0.00    -0.190 C  
HETATM   15  C   UNL     1     -11.479  11.896  67.471  1.00  0.00    -0.326 C  
HETATM   16  O   UNL     1     -12.108  12.550  69.706  1.00  0.00    -0.287 OA 
HETATM   17  O   UNL     1      -9.328  12.378  68.397  1.00  0.00    -0.206 OA 
HETATM   18  C   UNL     1     -11.579  13.063  68.455  1.00  0.00    -0.328 C  
HETATM   19  H   UNL     1     -13.003  12.249  69.604  1.00  0.00     0.000 HD 
HETATM   20  O   UNL     1     -12.215  10.750  67.916  1.00  0.00    -0.521 OA 
HETATM   21  H   UNL     1     -13.141  10.959  67.957  1.00  0.00     0.000 HD 
BRANCH  14  22
HETATM   22  C   UNL     1      -9.438  11.828  65.998  1.00  0.00    -0.230 C  
BRANCH  22  23
HETATM   23  O   UNL     1     -10.422  11.558  65.007  1.00  0.00    -0.266 OA 
HETATM   24  P   UNL     1     -11.172  13.001  64.413  1.00  0.00    -0.404 P  
HETATM   25  O   UNL     1     -11.842  14.291  63.883  1.00  0.00    -0.291 OA 
HETATM   26  O   UNL     1      -9.928  13.052  63.358  1.00  0.00     0.085 OA 
HETATM   27  O   UNL     1     -12.154  11.997  63.577  1.00  0.00    -0.504 OA 
ENDBRANCH  22  23
ENDBRANCH  14  22
ENDBRANCH   8  13
TORSDOF 3
ENDMDL
MODEL      118
REMARK 921   NORMALIZED FREE ENERGY PREDICTED BY IDOCK:   -4.85 KCAL/MOL
REMARK 922        TOTAL FREE ENERGY PREDICTED BY IDOCK:   -6.17 KCAL/MOL
REMARK 923 INTER-LIGAND FREE ENERGY PREDICTED BY IDOCK:   -5.56 KCAL/MOL
REMARK 924 INTRA-LIGAND FREE ENERGY PREDICTED BY IDOCK:   -0.60 KCAL/MOL
REMARK 927      BINDING AFFINITY PREDICTED BY RF-SCORE:    0.00 PKD
ROOT
HETATM    1  N   UNL     1      -9.898   6.593  69.422  1.00  0.00    -0.150 NA 
HETATM    2  C   UNL     1      -9.373   7.877  69.448  1.00  0.00    -0.152 A  
HETATM    3  H1  UNL     1      -9.635   5.872  70.093  1.00  0.00     0.000 HD 
HETATM    4  H2  UNL     1      -9.735   6.215  68.489  1.00  0.00     0.000 HD 
HETATM    5  C   UNL     1      -9.735   8.870  68.524  1.00  0.00    -0.161 A  
HETATM    6  N   UNL     1     -10.596   8.860  67.453  1.00  0.00    -0.273 NA 
HETATM    7  C   UNL     1     -10.488  10.062  66.924  1.00  0.00    -0.218 A  
HETATM    8  N   UNL     1      -9.621  10.860  67.635  1.00  0.00    -0.162 NA 
HETATM    9  N   UNL     1      -8.448   8.176  70.387  1.00  0.00    -0.126 NA 
HETATM   10  C   UNL     1      -9.115  10.105  68.656  1.00  0.00    -0.143 A  
HETATM   11  N   UNL     1      -8.192  10.449  69.570  1.00  0.00    -0.155 NA 
HETATM   12  C   UNL     1      -7.935   9.422  70.407  1.00  0.00    -0.172 A  
ENDROOT
BRANCH   8  13
HETATM   13  C   UNL     1      -9.351  12.241  67.296  1.00  0.00    -0.185 C  
HETATM   14  C   UNL     1     -10.906  13.569  68.430  1.00  0.00    -0.267 C  
HETATM   15  C   UNL     1     -11.301  13.641  66.953  1.00  0.00    -0.327 C  
HETATM   16  O   UNL     1      -9.359  14.003  65.568  1.00  0.00    -0.499 OA 
HETATM   17  O   UNL     1      -9.566  13.030  68.481  1.00  0.00    -0.197 OA 
HETATM   18  C   UNL     1     -10.151  12.965  66.202  1.00  0.00    -0.276 C  
HETATM   19  H   UNL     1      -9.854  14.450  64.891  1.00  0.00     0.000 HD 
HETATM   20  O   UNL     1     -11.469  15.009  66.564  1.00  0.00    -0.330 OA 
HETATM   21  H   UNL     1     -11.714  15.054  65.647  1.00  0.00     0.000 HD 
BRANCH  14  22
HETATM   22  C   UNL     1     -11.895  12.689  69.207  1.00  0.00    -0.302 C  
BRANCH  22  23
HETATM   23  O   UNL     1     -12.135  13.217  70.506  1.00  0.00    -0.357 OA 
HETATM   24  P   UNL     1     -11.723  14.894  70.621  1.00  0.00    -0.316 P  
HETATM   25  O   UNL     1     -11.355  16.393  70.725  1.00  0.00    -0.373 OA 
HETATM   26  O   UNL     1     -13.239  15.165  70.083  1.00  0.00    -0.093 OA 
HETATM   27  O   UNL     1     -12.059  14.738  72.214  1.00  0.00    -0.332 OA 
ENDBRANCH  22  23
ENDBRANCH  14  22
ENDBRANCH   8  13
TORSDOF 3
ENDMDL
MODEL      119
REMARK 921   NORMALIZED FREE ENERGY PREDICTED BY IDOCK:   -4.83 KCAL/MOL
REMARK 922        TOTAL FREE ENERGY PREDICTED BY IDOCK:   -6.15 KCAL/MOL
REMARK 923 INTER-LIGAND FREE ENERGY PREDICTED BY IDOCK:   -5.97 KCAL/MOL
REMARK 924 INTRA-LIGAND FREE ENERGY PREDICTED BY IDOCK:   -0.18 KCAL/MOL
REMARK 927      BINDING AFFINITY PREDICTED BY RF-SCORE:    0.00 PKD
ROOT
HETATM    1  N   UNL     1      -9.891   7.009  70.229  1.00  0.00    -0.176 NA 
HETATM    2  C   UNL     1      -9.533   8.252  69.728  1.00  0.00    -0.163 A  
HETATM    3  H1  UNL     1      -9.273   6.199  70.197  1.00  0.00     0.000 HD 
HETATM    4  H2  UNL     1     -10.769   6.742  69.782  1.00  0.00     0.000 HD 
HETATM    5  C   UNL     1     -10.384   9.368  69.772  1.00  0.00    -0.223 A  
HETATM    6  N   UNL     1     -11.662   9.533  70.250  1.00  0.00    -0.177 NA 
HETATM    7  C   UNL     1     -11.966  10.784  69.971  1.00  0.00    -0.347 A  
HETATM    8  N   UNL     1     -10.921  11.445  69.367  1.00  0.00    -0.230 NA 
HETATM    9  N   UNL     1      -8.321   8.387  69.145  1.00  0.00    -0.120 NA 
HETATM   10  C   UNL     1      -9.903  10.546  69.216  1.00  0.00    -0.205 A  
HETATM   11  N   UNL     1      -8.709  10.729  68.626  1.00  0.00    -0.145 NA 
HETATM   12  C   UNL     1      -7.977   9.595  68.654  1.00  0.00    -0.089 A  
ENDROOT
BRANCH   8  13
HETATM   13  C   UNL     1     -10.973  12.842  68.992  1.00  0.00    -0.197 C  
HETATM   14  C   UNL     1     -11.180  12.947  66.666  1.00  0.00    -0.304 C  
HETATM   15  C   UNL     1      -9.763  13.436  66.977  1.00  0.00    -0.239 C  
HETATM   16  O   UNL     1      -9.785  14.997  68.815  1.00  0.00    -0.212 OA 
HETATM   17  O   UNL     1     -11.915  12.968  67.910  1.00  0.00    -0.347 OA 
HETATM   18  C   UNL     1      -9.720  13.582  68.499  1.00  0.00    -0.168 C  
HETATM   19  H   UNL     1      -9.010  15.455  68.511  1.00  0.00     0.000 HD 
HETATM   20  O   UNL     1      -9.523  14.679  66.308  1.00  0.00    -0.286 OA 
HETATM   21  H   UNL     1      -8.644  14.983  66.501  1.00  0.00     0.000 HD 
BRANCH  14  22
HETATM   22  C   UNL     1     -11.139  11.537  66.061  1.00  0.00    -0.230 C  
BRANCH  22  23
HETATM   23  O   UNL     1     -11.849  11.490  64.828  1.00  0.00    -0.065 OA 
HETATM   24  P   UNL     1     -12.150  13.067  64.182  1.00  0.00    -0.443 P  
HETATM   25  O   UNL     1     -12.420  14.477  63.605  1.00  0.00    -0.782 OA 
HETATM   26  O   UNL     1     -10.678  12.920  63.495  1.00  0.00    -0.307 OA 
HETATM   27  O   UNL     1     -13.027  12.294  63.039  1.00  0.00    -0.516 OA 
ENDBRANCH  22  23
ENDBRANCH  14  22
ENDBRANCH   8  13
TORSDOF 3
ENDMDL
MODEL      120
REMARK 921   NORMALIZED FREE ENERGY PREDICTED BY IDOCK:   -4.81 KCAL/MOL
REMARK 922        TOTAL FREE ENERGY PREDICTED BY IDOCK:   -6.12 KCAL/MOL
REMARK 923 INTER-LIGAND FREE ENERGY PREDICTED BY IDOCK:   -5.50 KCAL/MOL
REMARK 924 INTRA-LIGAND FREE ENERGY PREDICTED BY IDOCK:   -0.62 KCAL/MOL
REMARK 927      BINDING AFFINITY PREDICTED BY RF-SCORE:    0.00 PKD
ROOT
HETATM    1  N   UNL     1      -7.104  17.776  65.500  1.00  0.00    -0.391 NA 
HETATM    2  C   UNL     1      -7.165  16.738  66.417  1.00  0.00    -0.191 A  
HETATM    3  H1  UNL     1      -6.239  18.265  65.271  1.00  0.00     0.000 HD 
HETATM    4  H2  UNL     1      -7.784  18.479  65.788  1.00  0.00     0.000 HD 
HETATM    5  C   UNL     1      -8.356  16.065  66.732  1.00  0.00    -0.270 A  
HETATM    6  N   UNL     1      -9.648  16.224  66.290  1.00  0.00    -0.287 NA 
HETATM    7  C   UNL     1     -10.348  15.345  66.977  1.00  0.00    -0.280 A  
HETATM    8  N   UNL     1      -9.555  14.597  67.815  1.00  0.00    -0.211 NA 
HETATM    9  N   UNL     1      -6.031  16.378  67.059  1.00  0.00    -0.307 NA 
HETATM   10  C   UNL     1      -8.274  15.057  67.684  1.00  0.00    -0.168 A  
HETATM   11  N   UNL     1      -7.174  14.665  68.348  1.00  0.00    -0.109 NA 
HETATM   12  C   UNL     1      -6.094  15.372  67.955  1.00  0.00    -0.142 A  
ENDROOT
BRANCH   8  13
HETATM   13  C   UNL     1     -10.063  13.531  68.653  1.00  0.00    -0.166 C  
HETATM   14  C   UNL     1      -9.940  11.544  67.427  1.00  0.00    -0.190 C  
HETATM   15  C   UNL     1     -11.431  11.874  67.530  1.00  0.00    -0.326 C  
HETATM   16  O   UNL     1     -12.008  12.516  69.782  1.00  0.00    -0.314 OA 
HETATM   17  O   UNL     1      -9.260  12.362  68.405  1.00  0.00    -0.197 OA 
HETATM   18  C   UNL     1     -11.512  13.037  68.521  1.00  0.00    -0.304 C  
HETATM   19  H   UNL     1     -12.904  12.211  69.701  1.00  0.00     0.000 HD 
HETATM   20  O   UNL     1     -12.150  10.723  67.988  1.00  0.00    -0.778 OA 
HETATM   21  H   UNL     1     -13.076  10.928  68.052  1.00  0.00     0.000 HD 
BRANCH  14  22
HETATM   22  C   UNL     1      -9.427  11.822  66.007  1.00  0.00    -0.230 C  
BRANCH  22  23
HETATM   23  O   UNL     1      -8.178  11.178  65.781  1.00  0.00    -0.119 OA 
HETATM   24  P   UNL     1      -8.355   9.677  64.939  1.00  0.00    -0.175 P  
HETATM   25  O   UNL     1      -8.513   8.334  64.186  1.00  0.00    -0.097 OA 
HETATM   26  O   UNL     1      -8.287  10.582  63.584  1.00  0.00    -0.166 OA 
HETATM   27  O   UNL     1      -6.750   9.493  65.186  1.00  0.00    -0.081 OA 
ENDBRANCH  22  23
ENDBRANCH  14  22
ENDBRANCH   8  13
TORSDOF 3
ENDMDL
MODEL      121
REMARK 921   NORMALIZED FREE ENERGY PREDICTED BY IDOCK:   -4.80 KCAL/MOL
REMARK 922        TOTAL FREE ENERGY PREDICTED BY IDOCK:   -6.11 KCAL/MOL
REMARK 923 INTER-LIGAND FREE ENERGY PREDICTED BY IDOCK:   -5.71 KCAL/MOL
REMARK 924 INTRA-LIGAND FREE ENERGY PREDICTED BY IDOCK:   -0.41 KCAL/MOL
REMARK 927      BINDING AFFINITY PREDICTED BY RF-SCORE:    0.00 PKD
ROOT
HETATM    1  N   UNL     1      -6.760   6.879  68.590  1.00  0.00    -0.058 NA 
HETATM    2  C   UNL     1      -7.461   7.711  67.729  1.00  0.00    -0.108 A  
HETATM    3  H1  UNL     1      -6.606   5.889  68.403  1.00  0.00     0.000 HD 
HETATM    4  H2  UNL     1      -7.199   6.951  69.508  1.00  0.00     0.000 HD 
HETATM    5  C   UNL     1      -7.674   9.075  67.988  1.00  0.00    -0.097 A  
HETATM    6  N   UNL     1      -7.308   9.880  69.040  1.00  0.00    -0.076 NA 
HETATM    7  C   UNL     1      -7.832  11.056  68.760  1.00  0.00    -0.138 A  
HETATM    8  N   UNL     1      -8.486  11.052  67.550  1.00  0.00    -0.126 NA 
HETATM    9  N   UNL     1      -7.988   7.178  66.605  1.00  0.00    -0.109 NA 
HETATM   10  C   UNL     1      -8.410   9.784  67.048  1.00  0.00    -0.117 A  
HETATM   11  N   UNL     1      -8.953   9.299  65.919  1.00  0.00    -0.171 NA 
HETATM   12  C   UNL     1      -8.673   7.986  65.772  1.00  0.00    -0.146 A  
ENDROOT
BRANCH   8  13
HETATM   13  C   UNL     1      -9.116  12.226  66.982  1.00  0.00    -0.201 C  
HETATM   14  C   UNL     1     -11.294  12.342  67.824  1.00  0.00    -0.301 C  
HETATM   15  C   UNL     1     -11.441  11.969  66.347  1.00  0.00    -0.353 C  
HETATM   16  O   UNL     1     -10.012  13.344  64.973  1.00  0.00    -0.522 OA 
HETATM   17  O   UNL     1      -9.941  12.816  68.005  1.00  0.00    -0.212 OA 
HETATM   18  C   UNL     1     -10.037  12.122  65.757  1.00  0.00    -0.247 C  
HETATM   19  H   UNL     1     -10.582  13.279  64.215  1.00  0.00     0.000 HD 
HETATM   20  O   UNL     1     -12.388  12.841  65.719  1.00  0.00    -0.547 OA 
HETATM   21  H   UNL     1     -12.480  12.609  64.802  1.00  0.00     0.000 HD 
BRANCH  14  22
HETATM   22  C   UNL     1     -11.589  11.128  68.715  1.00  0.00    -0.322 C  
BRANCH  22  23
HETATM   23  O   UNL     1     -11.999  11.537  70.014  1.00  0.00    -0.312 OA 
HETATM   24  P   UNL     1     -12.774  10.262  70.892  1.00  0.00    -0.346 P  
HETATM   25  O   UNL     1     -13.467   9.122  71.676  1.00  0.00    -0.362 OA 
HETATM   26  O   UNL     1     -11.265   9.844  71.352  1.00  0.00    -0.348 OA 
HETATM   27  O   UNL     1     -13.068  11.395  72.033  1.00  0.00    -0.487 OA 
ENDBRANCH  22  23
ENDBRANCH  14  22
ENDBRANCH   8  13
TORSDOF 3
ENDMDL
MODEL      122
REMARK 921   NORMALIZED FREE ENERGY PREDICTED BY IDOCK:   -4.78 KCAL/MOL
REMARK 922        TOTAL FREE ENERGY PREDICTED BY IDOCK:   -6.09 KCAL/MOL
REMARK 923 INTER-LIGAND FREE ENERGY PREDICTED BY IDOCK:   -5.37 KCAL/MOL
REMARK 924 INTRA-LIGAND FREE ENERGY PREDICTED BY IDOCK:   -0.72 KCAL/MOL
REMARK 927      BINDING AFFINITY PREDICTED BY RF-SCORE:    0.00 PKD
ROOT
HETATM    1  N   UNL     1     -11.754   5.832  73.073  1.00  0.00    -0.521 NA 
HETATM    2  C   UNL     1     -10.660   5.744  72.226  1.00  0.00    -0.218 A  
HETATM    3  H1  UNL     1     -11.701   5.633  74.072  1.00  0.00     0.000 HD 
HETATM    4  H2  UNL     1     -12.490   5.243  72.684  1.00  0.00     0.000 HD 
HETATM    5  C   UNL     1     -10.733   6.018  70.851  1.00  0.00    -0.267 A  
HETATM    6  N   UNL     1     -11.779   6.394  70.042  1.00  0.00    -0.389 NA 
HETATM    7  C   UNL     1     -11.263   6.453  68.831  1.00  0.00    -0.307 A  
HETATM    8  N   UNL     1      -9.917   6.169  68.833  1.00  0.00    -0.145 NA 
HETATM    9  N   UNL     1      -9.475   5.347  72.742  1.00  0.00    -0.145 NA 
HETATM   10  C   UNL     1      -9.563   5.870  70.119  1.00  0.00    -0.162 A  
HETATM   11  N   UNL     1      -8.365   5.479  70.586  1.00  0.00    -0.115 NA 
HETATM   12  C   UNL     1      -8.414   5.257  71.916  1.00  0.00    -0.126 A  
ENDROOT
BRANCH   8  13
HETATM   13  C   UNL     1      -9.095   6.204  67.641  1.00  0.00    -0.109 C  
HETATM   14  C   UNL     1      -8.533   8.436  67.231  1.00  0.00    -0.124 C  
HETATM   15  C   UNL     1      -9.518   8.048  66.125  1.00  0.00    -0.122 C  
HETATM   16  O   UNL     1      -8.953   5.894  65.197  1.00  0.00    -0.352 OA 
HETATM   17  O   UNL     1      -8.081   7.207  67.841  1.00  0.00    -0.116 OA 
HETATM   18  C   UNL     1      -9.697   6.534  66.267  1.00  0.00    -0.010 C  
HETATM   19  H   UNL     1      -9.326   6.098  64.348  1.00  0.00     0.000 HD 
HETATM   20  O   UNL     1      -8.980   8.410  64.849  1.00  0.00    -0.410 OA 
HETATM   21  H   UNL     1      -9.591   8.170  64.162  1.00  0.00     0.000 HD 
BRANCH  14  22
HETATM   22  C   UNL     1      -9.212   9.356  68.255  1.00  0.00    -0.130 C  
BRANCH  22  23
HETATM   23  O   UNL     1     -10.200  10.169  67.633  1.00  0.00    -0.180 OA 
HETATM   24  P   UNL     1     -11.220  10.961  68.785  1.00  0.00    -0.318 P  
HETATM   25  O   UNL     1     -12.133  11.669  69.815  1.00  0.00    -0.304 OA 
HETATM   26  O   UNL     1     -10.077  12.124  68.796  1.00  0.00    -0.184 OA 
HETATM   27  O   UNL     1     -12.073  11.476  67.488  1.00  0.00    -0.614 OA 
ENDBRANCH  22  23
ENDBRANCH  14  22
ENDBRANCH   8  13
TORSDOF 3
ENDMDL
MODEL      123
REMARK 921   NORMALIZED FREE ENERGY PREDICTED BY IDOCK:   -4.77 KCAL/MOL
REMARK 922        TOTAL FREE ENERGY PREDICTED BY IDOCK:   -6.08 KCAL/MOL
REMARK 923 INTER-LIGAND FREE ENERGY PREDICTED BY IDOCK:   -5.80 KCAL/MOL
REMARK 924 INTRA-LIGAND FREE ENERGY PREDICTED BY IDOCK:   -0.28 KCAL/MOL
REMARK 927      BINDING AFFINITY PREDICTED BY RF-SCORE:    0.00 PKD
ROOT
HETATM    1  N   UNL     1     -13.341  11.557  62.905  1.00  0.00    -0.335 NA 
HETATM    2  C   UNL     1     -12.111  11.918  63.435  1.00  0.00    -0.432 A  
HETATM    3  H1  UNL     1     -13.460  10.776  62.260  1.00  0.00     0.000 HD 
HETATM    4  H2  UNL     1     -13.736  12.385  62.458  1.00  0.00     0.000 HD 
HETATM    5  C   UNL     1     -11.947  12.993  64.323  1.00  0.00    -0.402 A  
HETATM    6  N   UNL     1     -12.839  13.895  64.851  1.00  0.00    -0.715 NA 
HETATM    7  C   UNL     1     -12.103  14.709  65.580  1.00  0.00    -0.222 A  
HETATM    8  N   UNL     1     -10.776  14.345  65.575  1.00  0.00    -0.317 NA 
HETATM    9  N   UNL     1     -11.016  11.222  63.055  1.00  0.00     0.020 NA 
HETATM   10  C   UNL     1     -10.655  13.255  64.759  1.00  0.00    -0.386 A  
HETATM   11  N   UNL     1      -9.538  12.593  64.411  1.00  0.00     0.132 NA 
HETATM   12  C   UNL     1      -9.821  11.579  63.566  1.00  0.00    -0.383 A  
ENDROOT
BRANCH   8  13
HETATM   13  C   UNL     1      -9.756  15.043  66.328  1.00  0.00    -0.291 C  
HETATM   14  C   UNL     1      -8.993  13.598  68.000  1.00  0.00    -0.188 C  
HETATM   15  C   UNL     1      -9.789  14.685  68.726  1.00  0.00    -0.227 C  
HETATM   16  O   UNL     1      -9.204  16.871  67.891  1.00  0.00    -0.227 OA 
HETATM   17  O   UNL     1      -8.733  14.087  66.665  1.00  0.00    -0.159 OA 
HETATM   18  C   UNL     1     -10.084  15.741  67.657  1.00  0.00    -0.247 C  
HETATM   19  H   UNL     1      -9.407  17.303  68.713  1.00  0.00     0.000 HD 
HETATM   20  O   UNL     1      -9.012  15.214  69.806  1.00  0.00    -0.446 OA 
HETATM   21  H   UNL     1      -9.506  15.888  70.257  1.00  0.00     0.000 HD 
BRANCH  14  22
HETATM   22  C   UNL     1      -9.783  12.283  67.973  1.00  0.00    -0.205 C  
BRANCH  22  23
HETATM   23  O   UNL     1      -9.160  11.296  68.787  1.00  0.00    -0.174 OA 
HETATM   24  P   UNL     1     -10.052   9.815  68.825  1.00  0.00    -0.193 P  
HETATM   25  O   UNL     1     -10.851   8.489  68.859  1.00  0.00    -0.123 OA 
HETATM   26  O   UNL     1      -9.212   9.430  67.480  1.00  0.00    -0.124 OA 
HETATM   27  O   UNL     1      -8.958   9.330  69.938  1.00  0.00    -0.153 OA 
ENDBRANCH  22  23
ENDBRANCH  14  22
ENDBRANCH   8  13
TORSDOF 3
ENDMDL
MODEL      124
REMARK 921   NORMALIZED FREE ENERGY PREDICTED BY IDOCK:   -4.76 KCAL/MOL
REMARK 922        TOTAL FREE ENERGY PREDICTED BY IDOCK:   -6.07 KCAL/MOL
REMARK 923 INTER-LIGAND FREE ENERGY PREDICTED BY IDOCK:   -5.76 KCAL/MOL
REMARK 924 INTRA-LIGAND FREE ENERGY PREDICTED BY IDOCK:   -0.31 KCAL/MOL
REMARK 927      BINDING AFFINITY PREDICTED BY RF-SCORE:    0.00 PKD
ROOT
HETATM    1  N   UNL     1     -11.540  16.202  70.359  1.00  0.00    -0.435 NA 
HETATM    2  C   UNL     1     -10.664  15.551  69.502  1.00  0.00    -0.272 A  
HETATM    3  H1  UNL     1     -11.301  17.066  70.846  1.00  0.00     0.000 HD 
HETATM    4  H2  UNL     1     -11.837  15.527  71.063  1.00  0.00     0.000 HD 
HETATM    5  C   UNL     1     -10.993  14.362  68.832  1.00  0.00    -0.255 A  
HETATM    6  N   UNL     1     -12.128  13.587  68.836  1.00  0.00    -0.327 NA 
HETATM    7  C   UNL     1     -11.839  12.564  68.058  1.00  0.00    -0.325 A  
HETATM    8  N   UNL     1     -10.577  12.668  67.521  1.00  0.00    -0.219 NA 
HETATM    9  N   UNL     1      -9.428  16.069  69.329  1.00  0.00    -0.247 NA 
HETATM   10  C   UNL     1     -10.012  13.808  68.021  1.00  0.00    -0.246 A  
HETATM   11  N   UNL     1      -8.772  14.284  67.817  1.00  0.00    -0.169 NA 
HETATM   12  C   UNL     1      -8.577  15.431  68.501  1.00  0.00    -0.172 A  
ENDROOT
BRANCH   8  13
HETATM   13  C   UNL     1     -10.022  11.700  66.598  1.00  0.00    -0.203 C  
HETATM   14  C   UNL     1      -9.649   9.720  67.784  1.00  0.00    -0.135 C  
HETATM   15  C   UNL     1      -8.260  10.290  67.485  1.00  0.00    -0.114 C  
HETATM   16  O   UNL     1      -8.114  11.018  65.190  1.00  0.00    -0.364 OA 
HETATM   17  O   UNL     1     -10.582  10.414  66.927  1.00  0.00    -0.248 OA 
HETATM   18  C   UNL     1      -8.508  11.451  66.519  1.00  0.00    -0.170 C  
HETATM   19  H   UNL     1      -7.178  10.865  65.141  1.00  0.00     0.000 HD 
HETATM   20  O   UNL     1      -7.434   9.273  66.907  1.00  0.00    -0.090 OA 
HETATM   21  H   UNL     1      -6.572   9.627  66.722  1.00  0.00     0.000 HD 
BRANCH  14  22
HETATM   22  C   UNL     1      -9.998   9.910  69.267  1.00  0.00    -0.207 C  
BRANCH  22  23
HETATM   23  O   UNL     1     -10.974   8.963  69.686  1.00  0.00    -0.216 OA 
HETATM   24  P   UNL     1     -10.794   8.526  71.351  1.00  0.00    -0.310 P  
HETATM   25  O   UNL     1     -10.633   8.134  72.839  1.00  0.00    -0.346 OA 
HETATM   26  O   UNL     1     -11.729   9.827  71.655  1.00  0.00    -0.385 OA 
HETATM   27  O   UNL     1     -11.982   7.439  71.063  1.00  0.00    -0.304 OA 
ENDBRANCH  22  23
ENDBRANCH  14  22
ENDBRANCH   8  13
TORSDOF 3
ENDMDL
MODEL      125
REMARK 921   NORMALIZED FREE ENERGY PREDICTED BY IDOCK:   -4.75 KCAL/MOL
REMARK 922        TOTAL FREE ENERGY PREDICTED BY IDOCK:   -6.05 KCAL/MOL
REMARK 923 INTER-LIGAND FREE ENERGY PREDICTED BY IDOCK:   -5.41 KCAL/MOL
REMARK 924 INTRA-LIGAND FREE ENERGY PREDICTED BY IDOCK:   -0.64 KCAL/MOL
REMARK 927      BINDING AFFINITY PREDICTED BY RF-SCORE:    0.00 PKD
ROOT
HETATM    1  N   UNL     1      -8.635   7.214  68.247  1.00  0.00    -0.123 NA 
HETATM    2  C   UNL     1      -8.882   8.097  67.206  1.00  0.00    -0.130 A  
HETATM    3  H1  UNL     1      -8.056   6.381  68.142  1.00  0.00     0.000 HD 
HETATM    4  H2  UNL     1      -9.538   6.913  68.613  1.00  0.00     0.000 HD 
HETATM    5  C   UNL     1      -9.680   9.244  67.350  1.00  0.00    -0.161 A  
HETATM    6  N   UNL     1     -10.370   9.756  68.422  1.00  0.00    -0.192 NA 
HETATM    7  C   UNL     1     -10.981  10.824  67.949  1.00  0.00    -0.289 A  
HETATM    8  N   UNL     1     -10.680  11.043  66.625  1.00  0.00    -0.260 NA 
HETATM    9  N   UNL     1      -8.356   7.825  65.991  1.00  0.00    -0.126 NA 
HETATM   10  C   UNL     1      -9.859  10.029  66.219  1.00  0.00    -0.236 A  
HETATM   11  N   UNL     1      -9.358   9.800  64.993  1.00  0.00    -0.249 NA 
HETATM   12  C   UNL     1      -8.602   8.682  64.980  1.00  0.00    -0.158 A  
ENDROOT
BRANCH   8  13
HETATM   13  C   UNL     1     -11.183  12.172  65.871  1.00  0.00    -0.339 C  
HETATM   14  C   UNL     1      -9.994  14.067  66.550  1.00  0.00    -0.284 C  
HETATM   15  C   UNL     1     -11.408  14.246  67.106  1.00  0.00    -0.337 C  
HETATM   16  O   UNL     1     -13.058  13.714  65.429  1.00  0.00    -0.704 OA 
HETATM   17  O   UNL     1     -10.062  13.020  65.557  1.00  0.00    -0.283 OA 
HETATM   18  C   UNL     1     -12.231  13.125  66.466  1.00  0.00    -0.291 C  
HETATM   19  H   UNL     1     -13.706  14.303  65.797  1.00  0.00     0.000 HD 
HETATM   20  O   UNL     1     -11.904  15.544  66.760  1.00  0.00     0.105 OA 
HETATM   21  H   UNL     1     -12.782  15.655  67.106  1.00  0.00     0.000 HD 
BRANCH  14  22
HETATM   22  C   UNL     1      -9.016  13.710  67.678  1.00  0.00    -0.202 C  
BRANCH  22  23
HETATM   23  O   UNL     1      -7.755  14.338  67.477  1.00  0.00    -0.166 OA 
HETATM   24  P   UNL     1      -7.912  16.006  67.042  1.00  0.00    -0.267 P  
HETATM   25  O   UNL     1      -8.053  17.497  66.653  1.00  0.00    -0.222 OA 
HETATM   26  O   UNL     1      -7.947  16.283  68.650  1.00  0.00    -0.189 OA 
HETATM   27  O   UNL     1      -6.290  15.976  66.839  1.00  0.00    -0.306 OA 
ENDBRANCH  22  23
ENDBRANCH  14  22
ENDBRANCH   8  13
TORSDOF 3
ENDMDL
MODEL      126
REMARK 921   NORMALIZED FREE ENERGY PREDICTED BY IDOCK:   -4.75 KCAL/MOL
REMARK 922        TOTAL FREE ENERGY PREDICTED BY IDOCK:   -6.05 KCAL/MOL
REMARK 923 INTER-LIGAND FREE ENERGY PREDICTED BY IDOCK:   -5.65 KCAL/MOL
REMARK 924 INTRA-LIGAND FREE ENERGY PREDICTED BY IDOCK:   -0.40 KCAL/MOL
REMARK 927      BINDING AFFINITY PREDICTED BY RF-SCORE:    0.00 PKD
ROOT
HETATM    1  N   UNL     1      -8.056  16.408  69.188  1.00  0.00    -0.231 NA 
HETATM    2  C   UNL     1      -8.095  15.092  68.754  1.00  0.00    -0.166 A  
HETATM    3  H1  UNL     1      -7.220  16.838  69.583  1.00  0.00     0.000 HD 
HETATM    4  H2  UNL     1      -8.810  16.531  69.864  1.00  0.00     0.000 HD 
HETATM    5  C   UNL     1      -9.247  14.500  68.211  1.00  0.00    -0.201 A  
HETATM    6  N   UNL     1     -10.513  14.985  67.988  1.00  0.00    -0.240 NA 
HETATM    7  C   UNL     1     -11.186  13.959  67.507  1.00  0.00    -0.303 A  
HETATM    8  N   UNL     1     -10.394  12.843  67.373  1.00  0.00    -0.232 NA 
HETATM    9  N   UNL     1      -6.983  14.335  68.890  1.00  0.00    -0.102 NA 
HETATM   10  C   UNL     1      -9.149  13.166  67.837  1.00  0.00    -0.207 A  
HETATM   11  N   UNL     1      -8.070  12.375  67.952  1.00  0.00    -0.149 NA 
HETATM   12  C   UNL     1      -7.026  13.053  68.474  1.00  0.00    -0.102 A  
ENDROOT
BRANCH   8  13
HETATM   13  C   UNL     1     -10.871  11.589  66.829  1.00  0.00    -0.282 C  
HETATM   14  C   UNL     1     -11.327  10.162  68.624  1.00  0.00    -0.112 C  
HETATM   15  C   UNL     1     -10.080   9.588  67.947  1.00  0.00    -0.191 C  
HETATM   16  O   UNL     1     -10.356   9.542  65.551  1.00  0.00    -0.238 OA 
HETATM   17  O   UNL     1     -11.912  11.105  67.698  1.00  0.00    -0.613 OA 
HETATM   18  C   UNL     1      -9.930  10.388  66.651  1.00  0.00    -0.210 C  
HETATM   19  H   UNL     1      -9.774   8.799  65.441  1.00  0.00     0.000 HD 
HETATM   20  O   UNL     1     -10.265   8.189  67.700  1.00  0.00    -0.201 OA 
HETATM   21  H   UNL     1      -9.491   7.833  67.280  1.00  0.00     0.000 HD 
BRANCH  14  22
HETATM   22  C   UNL     1     -10.954  10.836  69.952  1.00  0.00    -0.239 C  
BRANCH  22  23
HETATM   23  O   UNL     1     -11.916  10.546  70.959  1.00  0.00    -0.343 OA 
HETATM   24  P   UNL     1     -12.159   8.846  71.167  1.00  0.00    -0.204 P  
HETATM   25  O   UNL     1     -12.378   7.325  71.353  1.00  0.00    -0.331 OA 
HETATM   26  O   UNL     1     -10.902   8.928  72.202  1.00  0.00    -0.355 OA 
HETATM   27  O   UNL     1     -13.351   9.270  72.203  1.00  0.00    -0.402 OA 
ENDBRANCH  22  23
ENDBRANCH  14  22
ENDBRANCH   8  13
TORSDOF 3
ENDMDL
MODEL      127
REMARK 921   NORMALIZED FREE ENERGY PREDICTED BY IDOCK:   -4.75 KCAL/MOL
REMARK 922        TOTAL FREE ENERGY PREDICTED BY IDOCK:   -6.05 KCAL/MOL
REMARK 923 INTER-LIGAND FREE ENERGY PREDICTED BY IDOCK:   -5.64 KCAL/MOL
REMARK 924 INTRA-LIGAND FREE ENERGY PREDICTED BY IDOCK:   -0.40 KCAL/MOL
REMARK 927      BINDING AFFINITY PREDICTED BY RF-SCORE:    0.00 PKD
ROOT
HETATM    1  N   UNL     1     -11.761   7.168  72.615  1.00  0.00    -0.505 NA 
HETATM    2  C   UNL     1     -11.158   6.979  71.381  1.00  0.00    -0.245 A  
HETATM    3  H1  UNL     1     -12.327   6.453  73.072  1.00  0.00     0.000 HD 
HETATM    4  H2  UNL     1     -12.331   8.012  72.551  1.00  0.00     0.000 HD 
HETATM    5  C   UNL     1     -10.379   7.964  70.752  1.00  0.00    -0.203 A  
HETATM    6  N   UNL     1     -10.040   9.244  71.121  1.00  0.00    -0.307 NA 
HETATM    7  C   UNL     1      -9.336   9.710  70.109  1.00  0.00    -0.251 A  
HETATM    8  N   UNL     1      -9.173   8.768  69.120  1.00  0.00    -0.148 NA 
HETATM    9  N   UNL     1     -11.353   5.805  70.741  1.00  0.00    -0.140 NA 
HETATM   10  C   UNL     1      -9.851   7.646  69.508  1.00  0.00    -0.178 A  
HETATM   11  N   UNL     1     -10.017   6.496  68.833  1.00  0.00    -0.147 NA 
HETATM   12  C   UNL     1     -10.770   5.626  69.539  1.00  0.00    -0.310 A  
ENDROOT
BRANCH   8  13
HETATM   13  C   UNL     1      -8.405   9.003  67.916  1.00  0.00    -0.117 C  
HETATM   14  C   UNL     1      -9.634  10.462  66.563  1.00  0.00    -0.179 C  
HETATM   15  C   UNL     1      -9.682   9.104  65.857  1.00  0.00    -0.266 C  
HETATM   16  O   UNL     1      -7.494   8.089  65.813  1.00  0.00    -0.077 OA 
HETATM   17  O   UNL     1      -8.581  10.385  67.550  1.00  0.00    -0.124 OA 
HETATM   18  C   UNL     1      -8.691   8.224  66.623  1.00  0.00    -0.136 C  
HETATM   19  H   UNL     1      -7.671   7.606  65.014  1.00  0.00     0.000 HD 
HETATM   20  O   UNL     1      -9.313   9.261  64.482  1.00  0.00    -0.437 OA 
HETATM   21  H   UNL     1      -9.343   8.419  64.044  1.00  0.00     0.000 HD 
BRANCH  14  22
HETATM   22  C   UNL     1     -10.989  10.778  67.209  1.00  0.00    -0.297 C  
BRANCH  22  23
HETATM   23  O   UNL     1     -11.342  12.142  67.014  1.00  0.00    -0.295 OA 
HETATM   24  P   UNL     1     -11.595  12.977  68.508  1.00  0.00    -0.363 P  
HETATM   25  O   UNL     1     -11.822  13.724  69.845  1.00  0.00    -0.297 OA 
HETATM   26  O   UNL     1      -9.987  13.247  68.475  1.00  0.00    -0.234 OA 
HETATM   27  O   UNL     1     -12.069  14.236  67.580  1.00  0.00    -0.385 OA 
ENDBRANCH  22  23
ENDBRANCH  14  22
ENDBRANCH   8  13
TORSDOF 3
ENDMDL
MODEL      128
REMARK 921   NORMALIZED FREE ENERGY PREDICTED BY IDOCK:   -4.69 KCAL/MOL
REMARK 922        TOTAL FREE ENERGY PREDICTED BY IDOCK:   -5.99 KCAL/MOL
REMARK 923 INTER-LIGAND FREE ENERGY PREDICTED BY IDOCK:   -5.49 KCAL/MOL
REMARK 924 INTRA-LIGAND FREE ENERGY PREDICTED BY IDOCK:   -0.50 KCAL/MOL
REMARK 927      BINDING AFFINITY PREDICTED BY RF-SCORE:    0.00 PKD
ROOT
HETATM    1  N   UNL     1      -8.680   9.631  66.642  1.00  0.00    -0.133 NA 
HETATM    2  C   UNL     1      -9.478   8.778  67.389  1.00  0.00    -0.146 A  
HETATM    3  H1  UNL     1      -8.241   9.355  65.764  1.00  0.00     0.000 HD 
HETATM    4  H2  UNL     1      -7.942   9.976  67.257  1.00  0.00     0.000 HD 
HETATM    5  C   UNL     1     -10.083   9.159  68.598  1.00  0.00    -0.194 A  
HETATM    6  N   UNL     1     -10.055  10.334  69.310  1.00  0.00    -0.215 NA 
HETATM    7  C   UNL     1     -10.765  10.086  70.393  1.00  0.00    -0.307 A  
HETATM    8  N   UNL     1     -11.282   8.812  70.388  1.00  0.00    -0.247 NA 
HETATM    9  N   UNL     1      -9.657   7.513  66.948  1.00  0.00    -0.175 NA 
HETATM   10  C   UNL     1     -10.840   8.196  69.251  1.00  0.00    -0.050 A  
HETATM   11  N   UNL     1     -11.046   6.928  68.854  1.00  0.00    -0.158 NA 
HETATM   12  C   UNL     1     -10.428   6.683  67.679  1.00  0.00    -0.227 A  
ENDROOT
BRANCH   8  13
HETATM   13  C   UNL     1     -12.134   8.295  71.438  1.00  0.00    -0.300 C  
HETATM   14  C   UNL     1     -10.792   7.053  72.896  1.00  0.00    -0.301 C  
HETATM   15  C   UNL     1     -11.658   6.029  72.158  1.00  0.00    -0.293 C  
HETATM   16  O   UNL     1     -13.956   6.758  72.075  1.00  0.00    -0.512 OA 
HETATM   17  O   UNL     1     -11.390   8.350  72.669  1.00  0.00    -0.372 OA 
HETATM   18  C   UNL     1     -12.684   6.861  71.384  1.00  0.00    -0.334 C  
HETATM   19  H   UNL     1     -14.296   5.871  72.042  1.00  0.00     0.000 HD 
HETATM   20  O   UNL     1     -12.278   5.150  73.104  1.00  0.00    -0.481 OA 
HETATM   21  H   UNL     1     -12.816   4.514  72.646  1.00  0.00     0.000 HD 
BRANCH  14  22
HETATM   22  C   UNL     1      -9.347   7.003  72.381  1.00  0.00    -0.135 C  
BRANCH  22  23
HETATM   23  O   UNL     1      -8.517   7.905  73.103  1.00  0.00    -0.148 OA 
HETATM   24  P   UNL     1      -6.930   8.027  72.422  1.00  0.00    -0.090 P  
HETATM   25  O   UNL     1      -5.511   8.136  71.815  1.00  0.00    -0.034 OA 
HETATM   26  O   UNL     1      -7.576   9.177  71.462  1.00  0.00    -0.318 OA 
HETATM   27  O   UNL     1      -6.583   8.963  73.717  1.00  0.00    -0.317 OA 
ENDBRANCH  22  23
ENDBRANCH  14  22
ENDBRANCH   8  13
TORSDOF 3
ENDMDL
MODEL      129
REMARK 921   NORMALIZED FREE ENERGY PREDICTED BY IDOCK:   -4.66 KCAL/MOL
REMARK 922        TOTAL FREE ENERGY PREDICTED BY IDOCK:   -5.95 KCAL/MOL
REMARK 923 INTER-LIGAND FREE ENERGY PREDICTED BY IDOCK:   -5.24 KCAL/MOL
REMARK 924 INTRA-LIGAND FREE ENERGY PREDICTED BY IDOCK:   -0.71 KCAL/MOL
REMARK 927      BINDING AFFINITY PREDICTED BY RF-SCORE:    0.00 PKD
ROOT
HETATM    1  N   UNL     1     -11.633  11.653  63.050  1.00  0.00    -0.829 NA 
HETATM    2  C   UNL     1     -10.430  11.119  63.489  1.00  0.00    -0.358 A  
HETATM    3  H1  UNL     1     -12.016  11.470  62.123  1.00  0.00     0.000 HD 
HETATM    4  H2  UNL     1     -11.576  12.666  63.162  1.00  0.00     0.000 HD 
HETATM    5  C   UNL     1      -9.902  11.372  64.765  1.00  0.00    -0.259 A  
HETATM    6  N   UNL     1     -10.356  12.135  65.815  1.00  0.00    -0.250 NA 
HETATM    7  C   UNL     1      -9.415  12.037  66.732  1.00  0.00    -0.208 A  
HETATM    8  N   UNL     1      -8.391  11.211  66.332  1.00  0.00    -0.166 NA 
HETATM    9  N   UNL     1      -9.720  10.345  62.639  1.00  0.00    -0.245 NA 
HETATM   10  C   UNL     1      -8.678  10.788  65.064  1.00  0.00    -0.151 A  
HETATM   11  N   UNL     1      -7.937  10.013  64.255  1.00  0.00    -0.148 NA 
HETATM   12  C   UNL     1      -8.549   9.832  63.065  1.00  0.00    -0.196 A  
ENDROOT
BRANCH   8  13
HETATM   13  C   UNL     1      -7.251  10.896  67.166  1.00  0.00    -0.104 C  
HETATM   14  C   UNL     1      -7.977   9.434  68.841  1.00  0.00    -0.087 C  
HETATM   15  C   UNL     1      -7.693  10.763  69.546  1.00  0.00    -0.066 C  
HETATM   16  O   UNL     1      -5.589  11.686  68.810  1.00  0.00    -0.046 OA 
HETATM   17  O   UNL     1      -7.354   9.508  67.539  1.00  0.00    -0.089 OA 
HETATM   18  C   UNL     1      -7.005  11.633  68.492  1.00  0.00    -0.085 C  
HETATM   19  H   UNL     1      -5.437  12.142  69.630  1.00  0.00     0.000 HD 
HETATM   20  O   UNL     1      -6.858  10.535  70.687  1.00  0.00    -0.403 OA 
HETATM   21  H   UNL     1      -6.681  11.360  71.125  1.00  0.00     0.000 HD 
BRANCH  14  22
HETATM   22  C   UNL     1      -9.489   9.200  68.728  1.00  0.00    -0.147 C  
BRANCH  22  23
HETATM   23  O   UNL     1     -10.213  10.174  69.472  1.00  0.00    -0.209 OA 
HETATM   24  P   UNL     1     -11.404   9.461  70.505  1.00  0.00    -0.253 P  
HETATM   25  O   UNL     1     -12.470   8.824  71.429  1.00  0.00    -0.306 OA 
HETATM   26  O   UNL     1     -10.193   9.335  71.590  1.00  0.00    -0.332 OA 
HETATM   27  O   UNL     1     -11.859  10.997  70.831  1.00  0.00    -0.306 OA 
ENDBRANCH  22  23
ENDBRANCH  14  22
ENDBRANCH   8  13
TORSDOF 3
ENDMDL
MODEL      130
REMARK 921   NORMALIZED FREE ENERGY PREDICTED BY IDOCK:   -4.63 KCAL/MOL
REMARK 922        TOTAL FREE ENERGY PREDICTED BY IDOCK:   -5.92 KCAL/MOL
REMARK 923 INTER-LIGAND FREE ENERGY PREDICTED BY IDOCK:   -5.82 KCAL/MOL
REMARK 924 INTRA-LIGAND FREE ENERGY PREDICTED BY IDOCK:   -0.10 KCAL/MOL
REMARK 927      BINDING AFFINITY PREDICTED BY RF-SCORE:    0.00 PKD
ROOT
HETATM    1  N   UNL     1      -6.719  19.007  64.755  1.00  0.00    -0.381 NA 
HETATM    2  C   UNL     1      -6.935  18.197  65.861  1.00  0.00    -0.284 A  
HETATM    3  H1  UNL     1      -5.804  19.121  64.321  1.00  0.00     0.000 HD 
HETATM    4  H2  UNL     1      -7.066  19.938  64.986  1.00  0.00     0.000 HD 
HETATM    5  C   UNL     1      -8.195  18.039  66.459  1.00  0.00    -0.271 A  
HETATM    6  N   UNL     1      -9.425  18.581  66.170  1.00  0.00    -0.493 NA 
HETATM    7  C   UNL     1     -10.226  18.111  67.105  1.00  0.00    -0.367 A  
HETATM    8  N   UNL     1      -9.571  17.258  67.962  1.00  0.00    -0.266 NA 
HETATM    9  N   UNL     1      -5.877  17.555  66.405  1.00  0.00    -0.195 NA 
HETATM   10  C   UNL     1      -8.262  17.213  67.573  1.00  0.00    -0.185 A  
HETATM   11  N   UNL     1      -7.241  16.555  68.149  1.00  0.00    -0.148 NA 
HETATM   12  C   UNL     1      -6.088  16.773  67.483  1.00  0.00    -0.154 A  
ENDROOT
BRANCH   8  13
HETATM   13  C   UNL     1     -10.226  16.570  69.055  1.00  0.00    -0.285 C  
HETATM   14  C   UNL     1     -10.329  14.300  68.504  1.00  0.00    -0.244 C  
HETATM   15  C   UNL     1     -11.769  14.813  68.417  1.00  0.00    -0.314 C  
HETATM   16  O   UNL     1     -12.304  16.184  70.328  1.00  0.00    -0.362 OA 
HETATM   17  O   UNL     1      -9.571  15.298  69.223  1.00  0.00    -0.227 OA 
HETATM   18  C   UNL     1     -11.722  16.227  68.998  1.00  0.00    -0.165 C  
HETATM   19  H   UNL     1     -13.229  15.972  70.293  1.00  0.00     0.000 HD 
HETATM   20  O   UNL     1     -12.636  13.950  69.163  1.00  0.00    -0.380 OA 
HETATM   21  H   UNL     1     -13.529  14.268  69.108  1.00  0.00     0.000 HD 
BRANCH  14  22
HETATM   22  C   UNL     1      -9.758  14.063  67.100  1.00  0.00    -0.242 C  
BRANCH  22  23
HETATM   23  O   UNL     1      -9.995  12.727  66.672  1.00  0.00    -0.234 OA 
HETATM   24  P   UNL     1      -8.635  11.695  66.952  1.00  0.00    -0.173 P  
HETATM   25  O   UNL     1      -7.419  10.772  67.203  1.00  0.00    -0.094 OA 
HETATM   26  O   UNL     1      -9.277  11.477  68.436  1.00  0.00    -0.182 OA 
HETATM   27  O   UNL     1      -9.492  10.557  66.151  1.00  0.00    -0.169 OA 
ENDBRANCH  22  23
ENDBRANCH  14  22
ENDBRANCH   8  13
TORSDOF 3
ENDMDL
MODEL      131
REMARK 921   NORMALIZED FREE ENERGY PREDICTED BY IDOCK:   -4.62 KCAL/MOL
REMARK 922        TOTAL FREE ENERGY PREDICTED BY IDOCK:   -5.90 KCAL/MOL
REMARK 923 INTER-LIGAND FREE ENERGY PREDICTED BY IDOCK:   -5.08 KCAL/MOL
REMARK 924 INTRA-LIGAND FREE ENERGY PREDICTED BY IDOCK:   -0.82 KCAL/MOL
REMARK 927      BINDING AFFINITY PREDICTED BY RF-SCORE:    0.00 PKD
ROOT
HETATM    1  N   UNL     1     -11.480   4.444  65.190  1.00  0.00    -1.054 NA 
HETATM    2  C   UNL     1     -10.272   4.830  65.750  1.00  0.00    -0.225 A  
HETATM    3  H1  UNL     1     -11.581   3.616  64.602  1.00  0.00     0.000 HD 
HETATM    4  H2  UNL     1     -11.840   5.239  64.661  1.00  0.00     0.000 HD 
HETATM    5  C   UNL     1     -10.133   5.969  66.558  1.00  0.00    -0.137 A  
HETATM    6  N   UNL     1     -11.035   6.920  66.970  1.00  0.00    -0.387 NA 
HETATM    7  C   UNL     1     -10.321   7.779  67.669  1.00  0.00    -0.239 A  
HETATM    8  N   UNL     1      -9.002   7.399  67.758  1.00  0.00    -0.127 NA 
HETATM    9  N   UNL     1      -9.171   4.092  65.479  1.00  0.00    -0.140 NA 
HETATM   10  C   UNL     1      -8.859   6.248  67.036  1.00  0.00    -0.108 A  
HETATM   11  N   UNL     1      -7.738   5.547  66.795  1.00  0.00    -0.099 NA 
HETATM   12  C   UNL     1      -7.997   4.473  66.019  1.00  0.00    -0.099 A  
ENDROOT
BRANCH   8  13
HETATM   13  C   UNL     1      -8.008   8.142  68.504  1.00  0.00    -0.126 C  
HETATM   14  C   UNL     1      -7.810   7.146  70.610  1.00  0.00    -0.096 C  
HETATM   15  C   UNL     1      -8.500   8.491  70.852  1.00  0.00    -0.152 C  
HETATM   16  O   UNL     1      -7.391  10.250  69.628  1.00  0.00    -0.116 OA 
HETATM   17  O   UNL     1      -7.249   7.195  69.279  1.00  0.00    -0.080 OA 
HETATM   18  C   UNL     1      -8.415   9.227  69.513  1.00  0.00    -0.144 C  
HETATM   19  H   UNL     1      -7.643  10.921  70.252  1.00  0.00     0.000 HD 
HETATM   20  O   UNL     1      -7.826   9.198  71.900  1.00  0.00    -0.335 OA 
HETATM   21  H   UNL     1      -8.254  10.033  72.050  1.00  0.00     0.000 HD 
BRANCH  14  22
HETATM   22  C   UNL     1      -8.815   5.995  70.755  1.00  0.00    -0.139 C  
BRANCH  22  23
HETATM   23  O   UNL     1     -10.124   6.490  71.012  1.00  0.00    -0.183 OA 
HETATM   24  P   UNL     1     -10.933   5.597  72.253  1.00  0.00    -0.234 P  
HETATM   25  O   UNL     1     -11.657   4.798  73.364  1.00  0.00    -0.323 OA 
HETATM   26  O   UNL     1     -10.196   6.623  73.286  1.00  0.00    -0.197 OA 
HETATM   27  O   UNL     1     -12.236   6.516  71.891  1.00  0.00    -0.343 OA 
ENDBRANCH  22  23
ENDBRANCH  14  22
ENDBRANCH   8  13
TORSDOF 3
ENDMDL
MODEL      132
REMARK 921   NORMALIZED FREE ENERGY PREDICTED BY IDOCK:   -4.59 KCAL/MOL
REMARK 922        TOTAL FREE ENERGY PREDICTED BY IDOCK:   -5.86 KCAL/MOL
REMARK 923 INTER-LIGAND FREE ENERGY PREDICTED BY IDOCK:   -5.63 KCAL/MOL
REMARK 924 INTRA-LIGAND FREE ENERGY PREDICTED BY IDOCK:   -0.23 KCAL/MOL
REMARK 927      BINDING AFFINITY PREDICTED BY RF-SCORE:    0.00 PKD
ROOT
HETATM    1  N   UNL     1      -7.931   8.180  69.499  1.00  0.00    -0.111 NA 
HETATM    2  C   UNL     1      -8.827   8.575  68.516  1.00  0.00    -0.139 A  
HETATM    3  H1  UNL     1      -7.949   7.255  69.927  1.00  0.00     0.000 HD 
HETATM    4  H2  UNL     1      -7.982   8.866  70.252  1.00  0.00     0.000 HD 
HETATM    5  C   UNL     1      -8.802   9.849  67.927  1.00  0.00    -0.129 A  
HETATM    6  N   UNL     1      -7.995  10.943  68.132  1.00  0.00    -0.112 NA 
HETATM    7  C   UNL     1      -8.477  11.871  67.330  1.00  0.00    -0.166 A  
HETATM    8  N   UNL     1      -9.538  11.407  66.587  1.00  0.00    -0.187 NA 
HETATM    9  N   UNL     1      -9.786   7.704  68.130  1.00  0.00    -0.150 NA 
HETATM   10  C   UNL     1      -9.772  10.116  66.969  1.00  0.00    -0.180 A  
HETATM   11  N   UNL     1     -10.743   9.286  66.554  1.00  0.00    -0.033 NA 
HETATM   12  C   UNL     1     -10.659   8.092  67.180  1.00  0.00    -0.285 A  
ENDROOT
BRANCH   8  13
HETATM   13  C   UNL     1     -10.227  12.209  65.597  1.00  0.00    -0.256 C  
HETATM   14  C   UNL     1     -11.131  14.067  66.691  1.00  0.00    -0.309 C  
HETATM   15  C   UNL     1     -12.326  13.188  66.313  1.00  0.00    -0.276 C  
HETATM   16  O   UNL     1     -12.127  12.413  64.037  1.00  0.00    -0.403 OA 
HETATM   17  O   UNL     1     -10.002  13.593  65.925  1.00  0.00    -0.299 OA 
HETATM   18  C   UNL     1     -11.747  12.102  65.403  1.00  0.00    -0.321 C  
HETATM   19  H   UNL     1     -13.068  12.346  63.917  1.00  0.00     0.000 HD 
HETATM   20  O   UNL     1     -13.316  13.979  65.646  1.00  0.00    -0.690 OA 
HETATM   21  H   UNL     1     -14.058  13.434  65.411  1.00  0.00     0.000 HD 
BRANCH  14  22
HETATM   22  C   UNL     1     -10.862  13.983  68.200  1.00  0.00    -0.248 C  
BRANCH  22  23
HETATM   23  O   UNL     1      -9.930  14.978  68.607  1.00  0.00    -0.207 OA 
HETATM   24  P   UNL     1     -10.241  16.513  67.870  1.00  0.00    -0.293 P  
HETATM   25  O   UNL     1     -10.519  17.885  67.211  1.00  0.00    -0.363 OA 
HETATM   26  O   UNL     1     -11.255  16.758  69.124  1.00  0.00    -0.216 OA 
HETATM   27  O   UNL     1      -8.853  16.997  68.586  1.00  0.00    -0.257 OA 
ENDBRANCH  22  23
ENDBRANCH  14  22
ENDBRANCH   8  13
TORSDOF 3
ENDMDL
MODEL      133
REMARK 921   NORMALIZED FREE ENERGY PREDICTED BY IDOCK:   -4.59 KCAL/MOL
REMARK 922        TOTAL FREE ENERGY PREDICTED BY IDOCK:   -5.86 KCAL/MOL
REMARK 923 INTER-LIGAND FREE ENERGY PREDICTED BY IDOCK:   -5.56 KCAL/MOL
REMARK 924 INTRA-LIGAND FREE ENERGY PREDICTED BY IDOCK:   -0.30 KCAL/MOL
REMARK 927      BINDING AFFINITY PREDICTED BY RF-SCORE:    0.00 PKD
ROOT
HETATM    1  N   UNL     1     -11.741  11.531  63.062  1.00  0.00    -0.874 NA 
HETATM    2  C   UNL     1     -11.317  11.644  64.378  1.00  0.00    -0.260 A  
HETATM    3  H1  UNL     1     -12.558  12.021  62.698  1.00  0.00     0.000 HD 
HETATM    4  H2  UNL     1     -11.867  10.538  62.866  1.00  0.00     0.000 HD 
HETATM    5  C   UNL     1     -10.192  10.971  64.880  1.00  0.00    -0.311 A  
HETATM    6  N   UNL     1      -9.302  10.103  64.294  1.00  0.00    -0.275 NA 
HETATM    7  C   UNL     1      -8.487   9.750  65.268  1.00  0.00    -0.145 A  
HETATM    8  N   UNL     1      -8.792  10.385  66.449  1.00  0.00    -0.144 NA 
HETATM    9  N   UNL     1     -12.038  12.415  65.223  1.00  0.00    -0.489 NA 
HETATM   10  C   UNL     1      -9.895  11.160  66.223  1.00  0.00    -0.214 A  
HETATM   11  N   UNL     1     -10.580  11.913  67.101  1.00  0.00    -0.224 NA 
HETATM   12  C   UNL     1     -11.629  12.518  66.503  1.00  0.00    -0.388 A  
ENDROOT
BRANCH   8  13
HETATM   13  C   UNL     1      -8.030  10.210  67.667  1.00  0.00    -0.102 C  
HETATM   14  C   UNL     1      -8.384   8.025  68.420  1.00  0.00    -0.127 C  
HETATM   15  C   UNL     1      -9.117   8.928  69.414  1.00  0.00    -0.145 C  
HETATM   16  O   UNL     1      -7.735  10.802  70.044  1.00  0.00    -0.367 OA 
HETATM   17  O   UNL     1      -7.495   8.873  67.658  1.00  0.00    -0.090 OA 
HETATM   18  C   UNL     1      -8.689  10.351  69.048  1.00  0.00    -0.168 C  
HETATM   19  H   UNL     1      -8.143  10.889  70.898  1.00  0.00     0.000 HD 
HETATM   20  O   UNL     1      -8.743   8.579  70.752  1.00  0.00    -0.137 OA 
HETATM   21  H   UNL     1      -9.199   9.140  71.369  1.00  0.00     0.000 HD 
BRANCH  14  22
HETATM   22  C   UNL     1      -9.388   7.302  67.511  1.00  0.00    -0.129 C  
BRANCH  22  23
HETATM   23  O   UNL     1      -9.228   5.891  67.596  1.00  0.00    -0.107 OA 
HETATM   24  P   UNL     1     -10.091   5.055  66.351  1.00  0.00    -0.279 P  
HETATM   25  O   UNL     1     -10.863   4.307  65.237  1.00  0.00    -0.225 OA 
HETATM   26  O   UNL     1      -8.750   5.288  65.451  1.00  0.00    -0.144 OA 
HETATM   27  O   UNL     1      -9.628   3.689  67.121  1.00  0.00    -0.212 OA 
ENDBRANCH  22  23
ENDBRANCH  14  22
ENDBRANCH   8  13
TORSDOF 3
ENDMDL
MODEL      134
REMARK 921   NORMALIZED FREE ENERGY PREDICTED BY IDOCK:   -4.58 KCAL/MOL
REMARK 922        TOTAL FREE ENERGY PREDICTED BY IDOCK:   -5.86 KCAL/MOL
REMARK 923 INTER-LIGAND FREE ENERGY PREDICTED BY IDOCK:   -5.29 KCAL/MOL
REMARK 924 INTRA-LIGAND FREE ENERGY PREDICTED BY IDOCK:   -0.57 KCAL/MOL
REMARK 927      BINDING AFFINITY PREDICTED BY RF-SCORE:    0.00 PKD
ROOT
HETATM    1  N   UNL     1      -7.966  16.385  69.291  1.00  0.00    -0.202 NA 
HETATM    2  C   UNL     1      -8.020  15.231  68.523  1.00  0.00    -0.141 A  
HETATM    3  H1  UNL     1      -7.104  16.734  69.709  1.00  0.00     0.000 HD 
HETATM    4  H2  UNL     1      -8.650  16.285  70.042  1.00  0.00     0.000 HD 
HETATM    5  C   UNL     1      -9.207  14.750  67.948  1.00  0.00    -0.191 A  
HETATM    6  N   UNL     1     -10.500  15.215  67.982  1.00  0.00    -0.243 NA 
HETATM    7  C   UNL     1     -11.195  14.323  67.305  1.00  0.00    -0.318 A  
HETATM    8  N   UNL     1     -10.396  13.323  66.803  1.00  0.00    -0.255 NA 
HETATM    9  N   UNL     1      -6.884  14.521  68.347  1.00  0.00    -0.096 NA 
HETATM   10  C   UNL     1      -9.119  13.571  67.220  1.00  0.00    -0.225 A  
HETATM   11  N   UNL     1      -8.015  12.831  67.017  1.00  0.00    -0.096 NA 
HETATM   12  C   UNL     1      -6.940  13.396  67.605  1.00  0.00    -0.162 A  
ENDROOT
BRANCH   8  13
HETATM   13  C   UNL     1     -10.898  12.238  65.986  1.00  0.00    -0.275 C  
HETATM   14  C   UNL     1     -11.142  10.365  67.363  1.00  0.00    -0.226 C  
HETATM   15  C   UNL     1      -9.957  10.052  66.447  1.00  0.00    -0.237 C  
HETATM   16  O   UNL     1     -10.470  10.632  64.162  1.00  0.00    -0.426 OA 
HETATM   17  O   UNL     1     -11.837  11.491  66.783  1.00  0.00    -0.511 OA 
HETATM   18  C   UNL     1      -9.954  11.174  65.406  1.00  0.00    -0.259 C  
HETATM   19  H   UNL     1      -9.885   9.974  63.803  1.00  0.00     0.000 HD 
HETATM   20  O   UNL     1     -10.135   8.762  65.849  1.00  0.00    -0.448 OA 
HETATM   21  H   UNL     1      -9.399   8.568  65.281  1.00  0.00     0.000 HD 
BRANCH  14  22
HETATM   22  C   UNL     1     -10.653  10.677  68.784  1.00  0.00    -0.206 C  
BRANCH  22  23
HETATM   23  O   UNL     1      -9.259  10.423  68.911  1.00  0.00    -0.159 OA 
HETATM   24  P   UNL     1      -8.893   9.431  70.280  1.00  0.00    -0.224 P  
HETATM   25  O   UNL     1      -8.565   8.544  71.506  1.00  0.00    -0.149 OA 
HETATM   26  O   UNL     1      -9.168   8.175  69.276  1.00  0.00    -0.151 OA 
HETATM   27  O   UNL     1      -7.326   9.703  69.901  1.00  0.00    -0.087 OA 
ENDBRANCH  22  23
ENDBRANCH  14  22
ENDBRANCH   8  13
TORSDOF 3
ENDMDL
MODEL      135
REMARK 921   NORMALIZED FREE ENERGY PREDICTED BY IDOCK:   -4.57 KCAL/MOL
REMARK 922        TOTAL FREE ENERGY PREDICTED BY IDOCK:   -5.84 KCAL/MOL
REMARK 923 INTER-LIGAND FREE ENERGY PREDICTED BY IDOCK:   -5.42 KCAL/MOL
REMARK 924 INTRA-LIGAND FREE ENERGY PREDICTED BY IDOCK:   -0.42 KCAL/MOL
REMARK 927      BINDING AFFINITY PREDICTED BY RF-SCORE:    0.00 PKD
ROOT
HETATM    1  N   UNL     1     -12.670  12.655  63.346  1.00  0.00    -0.701 NA 
HETATM    2  C   UNL     1     -11.537  12.154  63.970  1.00  0.00    -0.423 A  
HETATM    3  H1  UNL     1     -12.880  12.493  62.362  1.00  0.00     0.000 HD 
HETATM    4  H2  UNL     1     -12.682  13.664  63.499  1.00  0.00     0.000 HD 
HETATM    5  C   UNL     1     -11.248  12.378  65.326  1.00  0.00    -0.318 A  
HETATM    6  N   UNL     1     -11.911  13.078  66.304  1.00  0.00    -0.410 NA 
HETATM    7  C   UNL     1     -11.138  12.983  67.367  1.00  0.00    -0.272 A  
HETATM    8  N   UNL     1     -10.022  12.217  67.124  1.00  0.00    -0.199 NA 
HETATM    9  N   UNL     1     -10.655  11.444  63.231  1.00  0.00    -0.351 NA 
HETATM   10  C   UNL     1     -10.067  11.834  65.813  1.00  0.00    -0.237 A  
HETATM   11  N   UNL     1      -9.162  11.123  65.120  1.00  0.00    -0.212 NA 
HETATM   12  C   UNL     1      -9.551  10.964  63.837  1.00  0.00    -0.284 A  
ENDROOT
BRANCH   8  13
HETATM   13  C   UNL     1      -9.028  11.916  68.133  1.00  0.00    -0.185 C  
HETATM   14  C   UNL     1      -7.646  13.790  68.349  1.00  0.00    -0.135 C  
HETATM   15  C   UNL     1      -6.787  12.719  67.672  1.00  0.00    -0.147 C  
HETATM   16  O   UNL     1      -7.049  10.591  68.779  1.00  0.00    -0.065 OA 
HETATM   17  O   UNL     1      -8.804  13.118  68.894  1.00  0.00     0.097 OA 
HETATM   18  C   UNL     1      -7.620  11.437  67.746  1.00  0.00    -0.105 C  
HETATM   19  H   UNL     1      -6.179  10.295  68.540  1.00  0.00     0.000 HD 
HETATM   20  O   UNL     1      -5.539  12.592  68.364  1.00  0.00    -0.055 OA 
HETATM   21  H   UNL     1      -5.006  11.928  67.943  1.00  0.00     0.000 HD 
BRANCH  14  22
HETATM   22  C   UNL     1      -8.049  14.872  67.337  1.00  0.00    -0.196 C  
BRANCH  22  23
HETATM   23  O   UNL     1      -6.942  15.704  67.013  1.00  0.00    -0.214 OA 
HETATM   24  P   UNL     1      -7.425  17.160  66.212  1.00  0.00    -0.167 P  
HETATM   25  O   UNL     1      -7.857  18.461  65.495  1.00  0.00    -0.446 OA 
HETATM   26  O   UNL     1      -7.613  17.765  67.714  1.00  0.00    -0.205 OA 
HETATM   27  O   UNL     1      -5.825  17.446  66.036  1.00  0.00    -0.188 OA 
ENDBRANCH  22  23
ENDBRANCH  14  22
ENDBRANCH   8  13
TORSDOF 3
ENDMDL
MODEL      136
REMARK 921   NORMALIZED FREE ENERGY PREDICTED BY IDOCK:   -4.53 KCAL/MOL
REMARK 922        TOTAL FREE ENERGY PREDICTED BY IDOCK:   -5.80 KCAL/MOL
REMARK 923 INTER-LIGAND FREE ENERGY PREDICTED BY IDOCK:   -5.15 KCAL/MOL
REMARK 924 INTRA-LIGAND FREE ENERGY PREDICTED BY IDOCK:   -0.64 KCAL/MOL
REMARK 927      BINDING AFFINITY PREDICTED BY RF-SCORE:    0.00 PKD
ROOT
HETATM    1  N   UNL     1     -13.851   8.972  73.141  1.00  0.00    -1.177 NA 
HETATM    2  C   UNL     1     -13.024   8.566  72.105  1.00  0.00    -0.363 A  
HETATM    3  H1  UNL     1     -14.381   8.319  73.718  1.00  0.00     0.000 HD 
HETATM    4  H2  UNL     1     -14.514   9.646  72.757  1.00  0.00     0.000 HD 
HETATM    5  C   UNL     1     -12.295   9.466  71.311  1.00  0.00    -0.341 A  
HETATM    6  N   UNL     1     -12.207  10.837  71.318  1.00  0.00    -0.345 NA 
HETATM    7  C   UNL     1     -11.412  11.128  70.308  1.00  0.00    -0.237 A  
HETATM    8  N   UNL     1     -10.951   9.997  69.675  1.00  0.00    -0.250 NA 
HETATM    9  N   UNL     1     -12.939   7.246  71.828  1.00  0.00    -0.345 NA 
HETATM   10  C   UNL     1     -11.521   8.921  70.294  1.00  0.00    -0.105 A  
HETATM   11  N   UNL     1     -11.406   7.619  69.981  1.00  0.00    -0.138 NA 
HETATM   12  C   UNL     1     -12.139   6.853  70.816  1.00  0.00    -0.349 A  
ENDROOT
BRANCH   8  13
HETATM   13  C   UNL     1     -10.028  10.030  68.560  1.00  0.00    -0.162 C  
HETATM   14  C   UNL     1      -7.881   9.653  69.405  1.00  0.00    -0.104 C  
HETATM   15  C   UNL     1      -7.906  11.124  68.983  1.00  0.00    -0.103 C  
HETATM   16  O   UNL     1      -8.922  11.370  66.809  1.00  0.00    -0.165 OA 
HETATM   17  O   UNL     1      -9.028   9.020  68.794  1.00  0.00    -0.135 OA 
HETATM   18  C   UNL     1      -9.225  11.297  68.226  1.00  0.00    -0.176 C  
HETATM   19  H   UNL     1      -8.425  12.154  66.602  1.00  0.00     0.000 HD 
HETATM   20  O   UNL     1      -6.770  11.411  68.160  1.00  0.00    -0.057 OA 
HETATM   21  H   UNL     1      -6.786  12.324  67.898  1.00  0.00     0.000 HD 
BRANCH  14  22
HETATM   22  C   UNL     1      -7.920   9.533  70.934  1.00  0.00     0.048 C  
BRANCH  22  23
HETATM   23  O   UNL     1      -7.982   8.170  71.338  1.00  0.00    -0.090 OA 
HETATM   24  P   UNL     1      -7.311   7.919  72.913  1.00  0.00    -0.118 P  
HETATM   25  O   UNL     1      -6.710   7.694  74.321  1.00  0.00    -0.090 OA 
HETATM   26  O   UNL     1      -8.802   8.289  73.460  1.00  0.00    -0.252 OA 
HETATM   27  O   UNL     1      -7.550   6.328  72.623  1.00  0.00    -0.098 OA 
ENDBRANCH  22  23
ENDBRANCH  14  22
ENDBRANCH   8  13
TORSDOF 3
ENDMDL
MODEL      137
REMARK 921   NORMALIZED FREE ENERGY PREDICTED BY IDOCK:   -4.51 KCAL/MOL
REMARK 922        TOTAL FREE ENERGY PREDICTED BY IDOCK:   -5.77 KCAL/MOL
REMARK 923 INTER-LIGAND FREE ENERGY PREDICTED BY IDOCK:   -5.25 KCAL/MOL
REMARK 924 INTRA-LIGAND FREE ENERGY PREDICTED BY IDOCK:   -0.52 KCAL/MOL
REMARK 927      BINDING AFFINITY PREDICTED BY RF-SCORE:    0.00 PKD
ROOT
HETATM    1  N   UNL     1      -8.319   6.149  63.563  1.00  0.00    -0.319 NA 
HETATM    2  C   UNL     1      -7.975   7.230  64.361  1.00  0.00    -0.106 A  
HETATM    3  H1  UNL     1      -7.967   6.023  62.615  1.00  0.00     0.000 HD 
HETATM    4  H2  UNL     1      -9.338   6.116  63.517  1.00  0.00     0.000 HD 
HETATM    5  C   UNL     1      -8.460   7.403  65.667  1.00  0.00    -0.130 A  
HETATM    6  N   UNL     1      -9.319   6.654  66.436  1.00  0.00    -0.159 NA 
HETATM    7  C   UNL     1      -9.448   7.336  67.556  1.00  0.00    -0.129 A  
HETATM    8  N   UNL     1      -8.676   8.475  67.555  1.00  0.00    -0.135 NA 
HETATM    9  N   UNL     1      -7.158   8.176  63.846  1.00  0.00    -0.081 NA 
HETATM   10  C   UNL     1      -8.048   8.543  66.343  1.00  0.00    -0.103 A  
HETATM   11  N   UNL     1      -7.240   9.509  65.875  1.00  0.00    -0.094 NA 
HETATM   12  C   UNL     1      -6.829   9.229  64.620  1.00  0.00    -0.092 A  
ENDROOT
BRANCH   8  13
HETATM   13  C   UNL     1      -8.598   9.384  68.680  1.00  0.00    -0.123 C  
HETATM   14  C   UNL     1     -10.194  11.060  68.350  1.00  0.00    -0.185 C  
HETATM   15  C   UNL     1      -8.836  11.737  68.148  1.00  0.00    -0.169 C  
HETATM   16  O   UNL     1      -7.296  11.095  69.890  1.00  0.00    -0.359 OA 
HETATM   17  O   UNL     1      -9.941   9.795  69.000  1.00  0.00    -0.169 OA 
HETATM   18  C   UNL     1      -7.805  10.696  68.590  1.00  0.00    -0.121 C  
HETATM   19  H   UNL     1      -6.805  11.906  69.834  1.00  0.00     0.000 HD 
HETATM   20  O   UNL     1      -8.769  12.931  68.935  1.00  0.00    -0.365 OA 
HETATM   21  H   UNL     1      -7.926  13.352  68.809  1.00  0.00     0.000 HD 
BRANCH  14  22
HETATM   22  C   UNL     1     -10.902  10.867  67.002  1.00  0.00    -0.266 C  
BRANCH  22  23
HETATM   23  O   UNL     1     -10.519  11.877  66.075  1.00  0.00    -0.231 OA 
HETATM   24  P   UNL     1     -11.861  12.841  65.560  1.00  0.00    -0.456 P  
HETATM   25  O   UNL     1     -13.061  13.703  65.099  1.00  0.00    -0.750 OA 
HETATM   26  O   UNL     1     -11.546  13.744  66.882  1.00  0.00    -0.333 OA 
HETATM   27  O   UNL     1     -10.801  13.543  64.532  1.00  0.00    -0.378 OA 
ENDBRANCH  22  23
ENDBRANCH  14  22
ENDBRANCH   8  13
TORSDOF 3
ENDMDL
MODEL      138
REMARK 921   NORMALIZED FREE ENERGY PREDICTED BY IDOCK:   -4.50 KCAL/MOL
REMARK 922        TOTAL FREE ENERGY PREDICTED BY IDOCK:   -5.76 KCAL/MOL
REMARK 923 INTER-LIGAND FREE ENERGY PREDICTED BY IDOCK:   -5.40 KCAL/MOL
REMARK 924 INTRA-LIGAND FREE ENERGY PREDICTED BY IDOCK:   -0.36 KCAL/MOL
REMARK 927      BINDING AFFINITY PREDICTED BY RF-SCORE:    0.00 PKD
ROOT
HETATM    1  N   UNL     1     -14.288   8.768  72.597  1.00  0.00    -0.936 NA 
HETATM    2  C   UNL     1     -13.027   8.925  72.041  1.00  0.00    -0.399 A  
HETATM    3  H1  UNL     1     -14.902   9.553  72.810  1.00  0.00     0.000 HD 
HETATM    4  H2  UNL     1     -14.179   8.224  73.453  1.00  0.00     0.000 HD 
HETATM    5  C   UNL     1     -12.180   7.844  71.748  1.00  0.00    -0.310 A  
HETATM    6  N   UNL     1     -12.329   6.487  71.914  1.00  0.00    -0.341 NA 
HETATM    7  C   UNL     1     -11.186   5.973  71.508  1.00  0.00    -0.264 A  
HETATM    8  N   UNL     1     -10.321   6.939  71.050  1.00  0.00    -0.204 NA 
HETATM    9  N   UNL     1     -12.580  10.178  71.800  1.00  0.00    -0.412 NA 
HETATM   10  C   UNL     1     -10.936   8.148  71.212  1.00  0.00    -0.240 A  
HETATM   11  N   UNL     1     -10.449   9.374  70.956  1.00  0.00    -0.307 NA 
HETATM   12  C   UNL     1     -11.352  10.328  71.266  1.00  0.00    -0.045 A  
ENDROOT
BRANCH   8  13
HETATM   13  C   UNL     1      -9.012   6.643  70.507  1.00  0.00    -0.152 C  
HETATM   14  C   UNL     1      -9.070   7.110  68.217  1.00  0.00    -0.134 C  
HETATM   15  C   UNL     1      -8.992   5.585  68.326  1.00  0.00    -0.108 C  
HETATM   16  O   UNL     1      -7.328   4.929  69.944  1.00  0.00    -0.053 OA 
HETATM   17  O   UNL     1      -8.716   7.642  69.513  1.00  0.00    -0.135 OA 
HETATM   18  C   UNL     1      -8.723   5.306  69.806  1.00  0.00    -0.105 C  
HETATM   19  H   UNL     1      -7.150   4.103  69.511  1.00  0.00     0.000 HD 
HETATM   20  O   UNL     1      -7.943   5.093  67.484  1.00  0.00    -0.098 OA 
HETATM   21  H   UNL     1      -7.895   4.146  67.552  1.00  0.00     0.000 HD 
BRANCH  14  22
HETATM   22  C   UNL     1     -10.479   7.546  67.795  1.00  0.00    -0.223 C  
BRANCH  22  23
HETATM   23  O   UNL     1     -10.423   8.527  66.766  1.00  0.00    -0.303 OA 
HETATM   24  P   UNL     1     -10.871  10.100  67.331  1.00  0.00    -0.127 P  
HETATM   25  O   UNL     1     -11.272  11.507  67.836  1.00  0.00    -0.237 OA 
HETATM   26  O   UNL     1      -9.301  10.251  67.747  1.00  0.00    -0.143 OA 
HETATM   27  O   UNL     1     -10.750  10.559  65.767  1.00  0.00    -0.122 OA 
ENDBRANCH  22  23
ENDBRANCH  14  22
ENDBRANCH   8  13
TORSDOF 3
ENDMDL
MODEL      139
REMARK 921   NORMALIZED FREE ENERGY PREDICTED BY IDOCK:   -4.50 KCAL/MOL
REMARK 922        TOTAL FREE ENERGY PREDICTED BY IDOCK:   -5.75 KCAL/MOL
REMARK 923 INTER-LIGAND FREE ENERGY PREDICTED BY IDOCK:   -5.34 KCAL/MOL
REMARK 924 INTRA-LIGAND FREE ENERGY PREDICTED BY IDOCK:   -0.42 KCAL/MOL
REMARK 927      BINDING AFFINITY PREDICTED BY RF-SCORE:    0.00 PKD
ROOT
HETATM    1  N   UNL     1     -14.355   8.569  72.929  1.00  0.00    -0.995 NA 
HETATM    2  C   UNL     1     -13.338   9.108  72.156  1.00  0.00    -0.463 A  
HETATM    3  H1  UNL     1     -15.329   8.860  72.847  1.00  0.00     0.000 HD 
HETATM    4  H2  UNL     1     -14.087   8.679  73.907  1.00  0.00     0.000 HD 
HETATM    5  C   UNL     1     -11.997   8.707  72.270  1.00  0.00    -0.368 A  
HETATM    6  N   UNL     1     -11.376   7.791  73.085  1.00  0.00    -0.293 NA 
HETATM    7  C   UNL     1     -10.098   7.884  72.781  1.00  0.00    -0.300 A  
HETATM    8  N   UNL     1      -9.873   8.794  71.775  1.00  0.00    -0.298 NA 
HETATM    9  N   UNL     1     -13.647  10.084  71.273  1.00  0.00    -0.246 NA 
HETATM   10  C   UNL     1     -11.080   9.345  71.446  1.00  0.00    -0.380 A  
HETATM   11  N   UNL     1     -11.338  10.318  70.556  1.00  0.00    -0.323 NA 
HETATM   12  C   UNL     1     -12.656  10.610  70.526  1.00  0.00    -0.348 A  
ENDROOT
BRANCH   8  13
HETATM   13  C   UNL     1      -8.563   9.060  71.219  1.00  0.00    -0.155 C  
HETATM   14  C   UNL     1      -7.880   7.146  70.063  1.00  0.00    -0.113 C  
HETATM   15  C   UNL     1      -6.990   7.216  71.307  1.00  0.00    -0.060 C  
HETATM   16  O   UNL     1      -6.164   9.458  71.638  1.00  0.00    -0.195 OA 
HETATM   17  O   UNL     1      -8.507   8.440  69.921  1.00  0.00    -0.121 OA 
HETATM   18  C   UNL     1      -7.285   8.584  71.928  1.00  0.00    -0.091 C  
HETATM   19  H   UNL     1      -5.374   9.164  72.076  1.00  0.00     0.000 HD 
HETATM   20  O   UNL     1      -5.616   7.082  70.927  1.00  0.00    -0.026 OA 
HETATM   21  H   UNL     1      -5.064   7.125  71.699  1.00  0.00     0.000 HD 
BRANCH  14  22
HETATM   22  C   UNL     1      -8.922   6.029  70.213  1.00  0.00    -0.148 C  
BRANCH  22  23
HETATM   23  O   UNL     1      -8.456   4.816  69.634  1.00  0.00    -0.081 OA 
HETATM   24  P   UNL     1      -8.164   3.591  70.821  1.00  0.00    -0.066 P  
HETATM   25  O   UNL     1      -7.901   2.495  71.882  1.00  0.00    -0.050 OA 
HETATM   26  O   UNL     1      -9.744   3.228  70.641  1.00  0.00    -0.174 OA 
HETATM   27  O   UNL     1      -7.571   2.707  69.580  1.00  0.00    -0.044 OA 
ENDBRANCH  22  23
ENDBRANCH  14  22
ENDBRANCH   8  13
TORSDOF 3
ENDMDL
MODEL      140
REMARK 921   NORMALIZED FREE ENERGY PREDICTED BY IDOCK:   -4.49 KCAL/MOL
REMARK 922        TOTAL FREE ENERGY PREDICTED BY IDOCK:   -5.74 KCAL/MOL
REMARK 923 INTER-LIGAND FREE ENERGY PREDICTED BY IDOCK:   -5.33 KCAL/MOL
REMARK 924 INTRA-LIGAND FREE ENERGY PREDICTED BY IDOCK:   -0.41 KCAL/MOL
REMARK 927      BINDING AFFINITY PREDICTED BY RF-SCORE:    0.00 PKD
ROOT
HETATM    1  N   UNL     1      -6.293   4.803  73.409  1.00  0.00    -0.044 NA 
HETATM    2  C   UNL     1      -7.393   5.642  73.504  1.00  0.00    -0.087 A  
HETATM    3  H1  UNL     1      -5.501   4.850  74.050  1.00  0.00     0.000 HD 
HETATM    4  H2  UNL     1      -5.924   4.889  72.461  1.00  0.00     0.000 HD 
HETATM    5  C   UNL     1      -8.483   5.577  72.621  1.00  0.00    -0.117 A  
HETATM    6  N   UNL     1      -8.741   4.774  71.536  1.00  0.00    -0.120 NA 
HETATM    7  C   UNL     1      -9.894   5.206  71.066  1.00  0.00    -0.196 A  
HETATM    8  N   UNL     1     -10.409   6.228  71.828  1.00  0.00    -0.203 NA 
HETATM    9  N   UNL     1      -7.402   6.585  74.472  1.00  0.00    -0.099 NA 
HETATM   10  C   UNL     1      -9.508   6.491  72.822  1.00  0.00    -0.142 A  
HETATM   11  N   UNL     1      -9.562   7.445  73.767  1.00  0.00    -0.277 NA 
HETATM   12  C   UNL     1      -8.470   7.403  74.559  1.00  0.00    -0.196 A  
ENDROOT
BRANCH   8  13
HETATM   13  C   UNL     1     -11.685   6.857  71.559  1.00  0.00    -0.311 C  
HETATM   14  C   UNL     1     -11.278   8.773  70.283  1.00  0.00    -0.195 C  
HETATM   15  C   UNL     1     -11.706   9.279  71.663  1.00  0.00    -0.392 C  
HETATM   16  O   UNL     1     -13.640   8.071  72.451  1.00  0.00    -0.530 OA 
HETATM   17  O   UNL     1     -11.640   7.376  70.217  1.00  0.00    -0.232 OA 
HETATM   18  C   UNL     1     -12.189   8.033  72.410  1.00  0.00    -0.287 C  
HETATM   19  H   UNL     1     -13.951   8.798  72.977  1.00  0.00     0.000 HD 
HETATM   20  O   UNL     1     -12.743  10.257  71.519  1.00  0.00    -0.378 OA 
HETATM   21  H   UNL     1     -13.009  10.572  72.375  1.00  0.00     0.000 HD 
BRANCH  14  22
HETATM   22  C   UNL     1      -9.769   8.973  70.084  1.00  0.00    -0.188 C  
BRANCH  22  23
HETATM   23  O   UNL     1      -9.497   9.584  68.828  1.00  0.00    -0.144 OA 
HETATM   24  P   UNL     1     -10.827  10.533  68.256  1.00  0.00    -0.284 P  
HETATM   25  O   UNL     1     -12.016  11.381  67.744  1.00  0.00    -0.637 OA 
HETATM   26  O   UNL     1     -10.171  11.739  69.137  1.00  0.00    -0.083 OA 
HETATM   27  O   UNL     1      -9.943  10.722  66.894  1.00  0.00    -0.188 OA 
ENDBRANCH  22  23
ENDBRANCH  14  22
ENDBRANCH   8  13
TORSDOF 3
ENDMDL
MODEL      141
REMARK 921   NORMALIZED FREE ENERGY PREDICTED BY IDOCK:   -4.48 KCAL/MOL
REMARK 922        TOTAL FREE ENERGY PREDICTED BY IDOCK:   -5.74 KCAL/MOL
REMARK 923 INTER-LIGAND FREE ENERGY PREDICTED BY IDOCK:   -5.05 KCAL/MOL
REMARK 924 INTRA-LIGAND FREE ENERGY PREDICTED BY IDOCK:   -0.68 KCAL/MOL
REMARK 927      BINDING AFFINITY PREDICTED BY RF-SCORE:    0.00 PKD
ROOT
HETATM    1  N   UNL     1     -14.245   7.065  72.136  1.00  0.00    -0.622 NA 
HETATM    2  C   UNL     1     -13.143   7.885  71.944  1.00  0.00    -0.289 A  
HETATM    3  H1  UNL     1     -15.204   7.385  72.008  1.00  0.00     0.000 HD 
HETATM    4  H2  UNL     1     -14.176   6.677  73.077  1.00  0.00     0.000 HD 
HETATM    5  C   UNL     1     -11.821   7.445  72.121  1.00  0.00    -0.286 A  
HETATM    6  N   UNL     1     -11.299   6.231  72.500  1.00  0.00    -0.276 NA 
HETATM    7  C   UNL     1      -9.997   6.426  72.546  1.00  0.00    -0.171 A  
HETATM    8  N   UNL     1      -9.655   7.706  72.173  1.00  0.00    -0.154 NA 
HETATM    9  N   UNL     1     -13.352   9.176  71.600  1.00  0.00    -0.366 NA 
HETATM   10  C   UNL     1     -10.816   8.379  71.914  1.00  0.00    -0.302 A  
HETATM   11  N   UNL     1     -10.974   9.669  71.572  1.00  0.00    -0.301 NA 
HETATM   12  C   UNL     1     -12.280   9.972  71.419  1.00  0.00    -0.416 A  
ENDROOT
BRANCH   8  13
HETATM   13  C   UNL     1      -8.288   8.174  72.095  1.00  0.00    -0.157 C  
HETATM   14  C   UNL     1      -7.586   7.952  69.876  1.00  0.00    -0.089 C  
HETATM   15  C   UNL     1      -6.816   6.888  70.660  1.00  0.00    -0.058 C  
HETATM   16  O   UNL     1      -5.923   7.812  72.702  1.00  0.00    -0.040 OA 
HETATM   17  O   UNL     1      -8.137   8.872  70.845  1.00  0.00    -0.135 OA 
HETATM   18  C   UNL     1      -7.106   7.192  72.132  1.00  0.00    -0.068 C  
HETATM   19  H   UNL     1      -5.193   7.205  72.724  1.00  0.00     0.000 HD 
HETATM   20  O   UNL     1      -5.420   6.978  70.355  1.00  0.00    -0.022 OA 
HETATM   21  H   UNL     1      -4.942   6.316  70.842  1.00  0.00     0.000 HD 
BRANCH  14  22
HETATM   22  C   UNL     1      -8.688   7.302  69.029  1.00  0.00    -0.132 C  
BRANCH  22  23
HETATM   23  O   UNL     1      -9.775   8.198  68.830  1.00  0.00    -0.152 OA 
HETATM   24  P   UNL     1      -9.693   9.004  67.301  1.00  0.00    -0.211 P  
HETATM   25  O   UNL     1      -9.620   9.725  65.933  1.00  0.00    -0.209 OA 
HETATM   26  O   UNL     1     -10.486   7.700  66.723  1.00  0.00    -0.314 OA 
HETATM   27  O   UNL     1     -10.986   9.858  67.823  1.00  0.00    -0.282 OA 
ENDBRANCH  22  23
ENDBRANCH  14  22
ENDBRANCH   8  13
TORSDOF 3
ENDMDL
MODEL      142
REMARK 921   NORMALIZED FREE ENERGY PREDICTED BY IDOCK:   -4.48 KCAL/MOL
REMARK 922        TOTAL FREE ENERGY PREDICTED BY IDOCK:   -5.73 KCAL/MOL
REMARK 923 INTER-LIGAND FREE ENERGY PREDICTED BY IDOCK:   -5.09 KCAL/MOL
REMARK 924 INTRA-LIGAND FREE ENERGY PREDICTED BY IDOCK:   -0.65 KCAL/MOL
REMARK 927      BINDING AFFINITY PREDICTED BY RF-SCORE:    0.00 PKD
ROOT
HETATM    1  N   UNL     1     -13.383  12.593  64.785  1.00  0.00    -0.588 NA 
HETATM    2  C   UNL     1     -12.150  13.045  65.230  1.00  0.00    -0.441 A  
HETATM    3  H1  UNL     1     -13.935  13.086  64.084  1.00  0.00     0.000 HD 
HETATM    4  H2  UNL     1     -13.976  12.464  65.605  1.00  0.00     0.000 HD 
HETATM    5  C   UNL     1     -11.389  12.366  66.196  1.00  0.00    -0.352 A  
HETATM    6  N   UNL     1     -11.619  11.209  66.901  1.00  0.00    -0.382 NA 
HETATM    7  C   UNL     1     -10.579  11.093  67.703  1.00  0.00    -0.211 A  
HETATM    8  N   UNL     1      -9.670  12.108  67.515  1.00  0.00    -0.183 NA 
HETATM    9  N   UNL     1     -11.673  14.209  64.735  1.00  0.00    -0.388 NA 
HETATM   10  C   UNL     1     -10.182  12.944  66.563  1.00  0.00    -0.259 A  
HETATM   11  N   UNL     1      -9.667  14.096  66.101  1.00  0.00    -0.300 NA 
HETATM   12  C   UNL     1     -10.477  14.650  65.174  1.00  0.00    -0.416 A  
ENDROOT
BRANCH   8  13
HETATM   13  C   UNL     1      -8.419  12.198  68.237  1.00  0.00    -0.176 C  
HETATM   14  C   UNL     1      -6.748  11.285  66.881  1.00  0.00    -0.135 C  
HETATM   15  C   UNL     1      -6.942  10.287  68.026  1.00  0.00    -0.082 C  
HETATM   16  O   UNL     1      -7.053  11.434  70.145  1.00  0.00    -0.429 OA 
HETATM   17  O   UNL     1      -7.388  12.516  67.283  1.00  0.00    -0.144 OA 
HETATM   18  C   UNL     1      -7.861  10.999  69.020  1.00  0.00    -0.126 C  
HETATM   19  H   UNL     1      -6.709  10.692  70.629  1.00  0.00     0.000 HD 
HETATM   20  O   UNL     1      -5.672   9.961  68.603  1.00  0.00    -0.039 OA 
HETATM   21  H   UNL     1      -5.792   9.342  69.313  1.00  0.00     0.000 HD 
BRANCH  14  22
HETATM   22  C   UNL     1      -7.354  10.734  65.583  1.00  0.00    -0.026 C  
BRANCH  22  23
HETATM   23  O   UNL     1      -7.147   9.331  65.479  1.00  0.00    -0.083 OA 
HETATM   24  P   UNL     1      -7.291   8.763  63.850  1.00  0.00    -0.107 P  
HETATM   25  O   UNL     1      -7.420   8.255  62.394  1.00  0.00    -0.095 OA 
HETATM   26  O   UNL     1      -5.709   9.141  63.721  1.00  0.00    -0.073 OA 
HETATM   27  O   UNL     1      -7.128   7.267  64.490  1.00  0.00    -0.053 OA 
ENDBRANCH  22  23
ENDBRANCH  14  22
ENDBRANCH   8  13
TORSDOF 3
ENDMDL
MODEL      143
REMARK 921   NORMALIZED FREE ENERGY PREDICTED BY IDOCK:   -4.46 KCAL/MOL
REMARK 922        TOTAL FREE ENERGY PREDICTED BY IDOCK:   -5.72 KCAL/MOL
REMARK 923 INTER-LIGAND FREE ENERGY PREDICTED BY IDOCK:   -5.13 KCAL/MOL
REMARK 924 INTRA-LIGAND FREE ENERGY PREDICTED BY IDOCK:   -0.58 KCAL/MOL
REMARK 927      BINDING AFFINITY PREDICTED BY RF-SCORE:    0.00 PKD
ROOT
HETATM    1  N   UNL     1      -7.415   3.929  74.561  1.00  0.00    -0.072 NA 
HETATM    2  C   UNL     1      -8.703   4.176  74.110  1.00  0.00    -0.096 A  
HETATM    3  H1  UNL     1      -7.077   2.996  74.793  1.00  0.00     0.000 HD 
HETATM    4  H2  UNL     1      -7.259   4.521  75.378  1.00  0.00     0.000 HD 
HETATM    5  C   UNL     1      -9.169   5.462  73.791  1.00  0.00    -0.125 A  
HETATM    6  N   UNL     1      -8.567   6.696  73.839  1.00  0.00    -0.133 NA 
HETATM    7  C   UNL     1      -9.509   7.543  73.475  1.00  0.00    -0.273 A  
HETATM    8  N   UNL     1     -10.682   6.901  73.156  1.00  0.00    -0.287 NA 
HETATM    9  N   UNL     1      -9.558   3.135  74.000  1.00  0.00    -0.091 NA 
HETATM   10  C   UNL     1     -10.488   5.565  73.370  1.00  0.00    -0.237 A  
HETATM   11  N   UNL     1     -11.374   4.562  73.246  1.00  0.00    -0.300 NA 
HETATM   12  C   UNL     1     -10.811   3.377  73.567  1.00  0.00    -0.227 A  
ENDROOT
BRANCH   8  13
HETATM   13  C   UNL     1     -11.865   7.590  72.685  1.00  0.00    -0.174 C  
HETATM   14  C   UNL     1     -11.829   7.544  70.347  1.00  0.00    -0.036 C  
HETATM   15  C   UNL     1     -11.554   8.999  70.736  1.00  0.00    -0.265 C  
HETATM   16  O   UNL     1     -13.080   9.725  72.457  1.00  0.00    -0.488 OA 
HETATM   17  O   UNL     1     -12.346   6.885  71.525  1.00  0.00    -0.343 OA 
HETATM   18  C   UNL     1     -11.807   9.061  72.244  1.00  0.00    -0.236 C  
HETATM   19  H   UNL     1     -13.045  10.635  72.185  1.00  0.00     0.000 HD 
HETATM   20  O   UNL     1     -12.427   9.868  70.006  1.00  0.00    -0.491 OA 
HETATM   21  H   UNL     1     -12.255  10.771  70.247  1.00  0.00     0.000 HD 
BRANCH  14  22
HETATM   22  C   UNL     1     -10.545   6.872  69.844  1.00  0.00    -0.228 C  
BRANCH  22  23
HETATM   23  O   UNL     1     -10.806   6.061  68.705  1.00  0.00    -0.285 OA 
HETATM   24  P   UNL     1      -9.915   6.573  67.313  1.00  0.00    -0.186 P  
HETATM   25  O   UNL     1      -9.118   7.032  66.068  1.00  0.00    -0.148 OA 
HETATM   26  O   UNL     1      -8.725   5.617  67.889  1.00  0.00    -0.108 OA 
HETATM   27  O   UNL     1     -10.766   5.436  66.504  1.00  0.00    -0.301 OA 
ENDBRANCH  22  23
ENDBRANCH  14  22
ENDBRANCH   8  13
TORSDOF 3
ENDMDL
MODEL      144
REMARK 921   NORMALIZED FREE ENERGY PREDICTED BY IDOCK:   -4.46 KCAL/MOL
REMARK 922        TOTAL FREE ENERGY PREDICTED BY IDOCK:   -5.71 KCAL/MOL
REMARK 923 INTER-LIGAND FREE ENERGY PREDICTED BY IDOCK:   -5.16 KCAL/MOL
REMARK 924 INTRA-LIGAND FREE ENERGY PREDICTED BY IDOCK:   -0.55 KCAL/MOL
REMARK 927      BINDING AFFINITY PREDICTED BY RF-SCORE:    0.00 PKD
ROOT
HETATM    1  N   UNL     1      -8.941   5.842  65.204  1.00  0.00    -0.367 NA 
HETATM    2  C   UNL     1      -8.589   6.019  66.534  1.00  0.00    -0.124 A  
HETATM    3  H1  UNL     1      -8.255   5.771  64.453  1.00  0.00     0.000 HD 
HETATM    4  H2  UNL     1      -9.587   6.592  64.957  1.00  0.00     0.000 HD 
HETATM    5  C   UNL     1      -9.533   6.118  67.568  1.00  0.00    -0.112 A  
HETATM    6  N   UNL     1     -10.907   6.084  67.566  1.00  0.00    -0.308 NA 
HETATM    7  C   UNL     1     -11.249   6.279  68.824  1.00  0.00    -0.273 A  
HETATM    8  N   UNL     1     -10.150   6.398  69.643  1.00  0.00    -0.170 NA 
HETATM    9  N   UNL     1      -7.278   6.133  66.844  1.00  0.00    -0.073 NA 
HETATM   10  C   UNL     1      -9.040   6.314  68.851  1.00  0.00    -0.124 A  
HETATM   11  N   UNL     1      -7.749   6.433  69.208  1.00  0.00    -0.099 NA 
HETATM   12  C   UNL     1      -6.938   6.311  68.136  1.00  0.00    -0.080 A  
ENDROOT
BRANCH   8  13
HETATM   13  C   UNL     1     -10.242   6.577  71.077  1.00  0.00    -0.189 C  
HETATM   14  C   UNL     1     -10.001   8.859  71.525  1.00  0.00    -0.320 C  
HETATM   15  C   UNL     1      -8.717   8.200  72.034  1.00  0.00    -0.164 C  
HETATM   16  O   UNL     1      -9.222   6.205  73.292  1.00  0.00    -0.133 OA 
HETATM   17  O   UNL     1     -10.963   7.800  71.317  1.00  0.00    -0.231 OA 
HETATM   18  C   UNL     1      -8.982   6.695  71.947  1.00  0.00    -0.136 C  
HETATM   19  H   UNL     1      -8.442   6.278  73.831  1.00  0.00     0.000 HD 
HETATM   20  O   UNL     1      -8.453   8.625  73.376  1.00  0.00    -0.385 OA 
HETATM   21  H   UNL     1      -7.656   8.216  73.691  1.00  0.00     0.000 HD 
BRANCH  14  22
HETATM   22  C   UNL     1      -9.729   9.633  70.229  1.00  0.00    -0.259 C  
BRANCH  22  23
HETATM   23  O   UNL     1     -10.943  10.085  69.640  1.00  0.00    -0.237 OA 
HETATM   24  P   UNL     1     -10.676  10.962  68.172  1.00  0.00    -0.259 P  
HETATM   25  O   UNL     1     -10.438  11.746  66.859  1.00  0.00    -0.212 OA 
HETATM   26  O   UNL     1     -10.712   9.499  67.450  1.00  0.00    -0.279 OA 
HETATM   27  O   UNL     1     -12.284  11.254  68.201  1.00  0.00    -0.622 OA 
ENDBRANCH  22  23
ENDBRANCH  14  22
ENDBRANCH   8  13
TORSDOF 3
ENDMDL
MODEL      145
REMARK 921   NORMALIZED FREE ENERGY PREDICTED BY IDOCK:   -4.45 KCAL/MOL
REMARK 922        TOTAL FREE ENERGY PREDICTED BY IDOCK:   -5.70 KCAL/MOL
REMARK 923 INTER-LIGAND FREE ENERGY PREDICTED BY IDOCK:   -5.21 KCAL/MOL
REMARK 924 INTRA-LIGAND FREE ENERGY PREDICTED BY IDOCK:   -0.49 KCAL/MOL
REMARK 927      BINDING AFFINITY PREDICTED BY RF-SCORE:    0.00 PKD
ROOT
HETATM    1  N   UNL     1     -10.655  18.033  67.421  1.00  0.00    -0.386 NA 
HETATM    2  C   UNL     1     -10.791  16.775  67.989  1.00  0.00    -0.341 A  
HETATM    3  H1  UNL     1     -11.285  18.807  67.628  1.00  0.00     0.000 HD 
HETATM    4  H2  UNL     1     -10.643  17.911  66.409  1.00  0.00     0.000 HD 
HETATM    5  C   UNL     1      -9.923  15.709  67.704  1.00  0.00    -0.237 A  
HETATM    6  N   UNL     1      -8.830  15.608  66.876  1.00  0.00    -0.229 NA 
HETATM    7  C   UNL     1      -8.449  14.351  66.976  1.00  0.00    -0.181 A  
HETATM    8  N   UNL     1      -9.227  13.647  67.865  1.00  0.00    -0.194 NA 
HETATM    9  N   UNL     1     -11.825  16.557  68.832  1.00  0.00     0.028 NA 
HETATM   10  C   UNL     1     -10.190  14.498  68.329  1.00  0.00    -0.234 A  
HETATM   11  N   UNL     1     -11.202  14.234  69.172  1.00  0.00    -0.260 NA 
HETATM   12  C   UNL     1     -11.959  15.332  69.379  1.00  0.00    -0.315 A  
ENDROOT
BRANCH   8  13
HETATM   13  C   UNL     1      -8.999  12.255  68.194  1.00  0.00    -0.192 C  
HETATM   14  C   UNL     1     -10.231  10.958  66.689  1.00  0.00    -0.234 C  
HETATM   15  C   UNL     1     -10.937  10.807  68.038  1.00  0.00    -0.283 C  
HETATM   16  O   UNL     1      -9.335  10.411  69.798  1.00  0.00    -0.391 OA 
HETATM   17  O   UNL     1      -8.928  11.521  66.957  1.00  0.00    -0.164 OA 
HETATM   18  C   UNL     1      -9.999  11.465  69.052  1.00  0.00    -0.067 C  
HETATM   19  H   UNL     1      -9.953   9.923  70.330  1.00  0.00     0.000 HD 
HETATM   20  O   UNL     1     -11.148   9.418  68.321  1.00  0.00    -0.481 OA 
HETATM   21  H   UNL     1     -11.586   9.324  69.159  1.00  0.00     0.000 HD 
BRANCH  14  22
HETATM   22  C   UNL     1     -11.051  11.857  65.753  1.00  0.00    -0.317 C  
BRANCH  22  23
HETATM   23  O   UNL     1     -10.272  12.281  64.641  1.00  0.00    -0.282 OA 
HETATM   24  P   UNL     1      -9.965  10.996  63.524  1.00  0.00    -0.389 P  
HETATM   25  O   UNL     1      -9.689   9.847  62.525  1.00  0.00    -0.141 OA 
HETATM   26  O   UNL     1     -11.392  11.416  62.856  1.00  0.00     0.087 OA 
HETATM   27  O   UNL     1      -9.010  12.070  62.745  1.00  0.00    -0.007 OA 
ENDBRANCH  22  23
ENDBRANCH  14  22
ENDBRANCH   8  13
TORSDOF 3
ENDMDL
MODEL      146
REMARK 921   NORMALIZED FREE ENERGY PREDICTED BY IDOCK:   -4.43 KCAL/MOL
REMARK 922        TOTAL FREE ENERGY PREDICTED BY IDOCK:   -5.68 KCAL/MOL
REMARK 923 INTER-LIGAND FREE ENERGY PREDICTED BY IDOCK:   -5.29 KCAL/MOL
REMARK 924 INTRA-LIGAND FREE ENERGY PREDICTED BY IDOCK:   -0.39 KCAL/MOL
REMARK 927      BINDING AFFINITY PREDICTED BY RF-SCORE:    0.00 PKD
ROOT
HETATM    1  N   UNL     1     -12.327  15.175  68.596  1.00  0.00    -0.579 NA 
HETATM    2  C   UNL     1     -11.217  14.456  68.178  1.00  0.00    -0.281 A  
HETATM    3  H1  UNL     1     -12.301  15.836  69.371  1.00  0.00     0.000 HD 
HETATM    4  H2  UNL     1     -13.069  14.504  68.792  1.00  0.00     0.000 HD 
HETATM    5  C   UNL     1     -11.252  13.545  67.110  1.00  0.00    -0.305 A  
HETATM    6  N   UNL     1     -12.270  13.141  66.279  1.00  0.00    -0.393 NA 
HETATM    7  C   UNL     1     -11.725  12.227  65.502  1.00  0.00    -0.377 A  
HETATM    8  N   UNL     1     -10.388  12.054  65.772  1.00  0.00    -0.245 NA 
HETATM    9  N   UNL     1     -10.055  14.618  68.850  1.00  0.00    -0.236 NA 
HETATM   10  C   UNL     1     -10.071  12.880  66.814  1.00  0.00    -0.238 A  
HETATM   11  N   UNL     1      -8.894  13.006  67.451  1.00  0.00    -0.193 NA 
HETATM   12  C   UNL     1      -8.978  13.914  68.446  1.00  0.00    -0.178 A  
ENDROOT
BRANCH   8  13
HETATM   13  C   UNL     1      -9.539  11.140  65.036  1.00  0.00    -0.239 C  
HETATM   14  C   UNL     1      -9.436   9.139  66.241  1.00  0.00    -0.237 C  
HETATM   15  C   UNL     1      -8.051   9.776  66.378  1.00  0.00    -0.116 C  
HETATM   16  O   UNL     1      -7.269  10.585  64.244  1.00  0.00    -0.331 OA 
HETATM   17  O   UNL     1     -10.108   9.823  65.160  1.00  0.00    -0.262 OA 
HETATM   18  C   UNL     1      -8.059  10.956  65.404  1.00  0.00     0.015 C  
HETATM   19  H   UNL     1      -6.354  10.471  64.472  1.00  0.00     0.000 HD 
HETATM   20  O   UNL     1      -7.042   8.813  66.051  1.00  0.00    -0.081 OA 
HETATM   21  H   UNL     1      -6.182   9.208  66.136  1.00  0.00     0.000 HD 
BRANCH  14  22
HETATM   22  C   UNL     1     -10.216   9.266  67.557  1.00  0.00    -0.242 C  
BRANCH  22  23
HETATM   23  O   UNL     1     -10.725   8.004  67.971  1.00  0.00    -0.158 OA 
HETATM   24  P   UNL     1      -9.571   6.730  67.768  1.00  0.00    -0.128 P  
HETATM   25  O   UNL     1      -8.539   5.591  67.587  1.00  0.00    -0.109 OA 
HETATM   26  O   UNL     1      -9.042   7.155  69.252  1.00  0.00    -0.139 OA 
HETATM   27  O   UNL     1     -10.782   5.730  68.223  1.00  0.00    -0.236 OA 
ENDBRANCH  22  23
ENDBRANCH  14  22
ENDBRANCH   8  13
TORSDOF 3
ENDMDL
MODEL      147
REMARK 921   NORMALIZED FREE ENERGY PREDICTED BY IDOCK:   -4.41 KCAL/MOL
REMARK 922        TOTAL FREE ENERGY PREDICTED BY IDOCK:   -5.65 KCAL/MOL
REMARK 923 INTER-LIGAND FREE ENERGY PREDICTED BY IDOCK:   -4.92 KCAL/MOL
REMARK 924 INTRA-LIGAND FREE ENERGY PREDICTED BY IDOCK:   -0.73 KCAL/MOL
REMARK 927      BINDING AFFINITY PREDICTED BY RF-SCORE:    0.00 PKD
ROOT
HETATM    1  N   UNL     1      -8.029   6.970  65.302  1.00  0.00    -0.121 NA 
HETATM    2  C   UNL     1      -7.934   7.666  66.498  1.00  0.00    -0.106 A  
HETATM    3  H1  UNL     1      -7.275   6.386  64.938  1.00  0.00     0.000 HD 
HETATM    4  H2  UNL     1      -8.271   7.643  64.575  1.00  0.00     0.000 HD 
HETATM    5  C   UNL     1      -8.971   8.469  66.999  1.00  0.00    -0.137 A  
HETATM    6  N   UNL     1     -10.219   8.773  66.509  1.00  0.00    -0.281 NA 
HETATM    7  C   UNL     1     -10.726   9.618  67.383  1.00  0.00    -0.241 A  
HETATM    8  N   UNL     1      -9.872   9.841  68.438  1.00  0.00    -0.149 NA 
HETATM    9  N   UNL     1      -6.781   7.591  67.198  1.00  0.00    -0.065 NA 
HETATM   10  C   UNL     1      -8.733   9.125  68.199  1.00  0.00    -0.129 A  
HETATM   11  N   UNL     1      -7.605   9.082  68.930  1.00  0.00    -0.082 NA 
HETATM   12  C   UNL     1      -6.689   8.272  68.357  1.00  0.00    -0.064 A  
ENDROOT
BRANCH   8  13
HETATM   13  C   UNL     1     -10.199  10.696  69.560  1.00  0.00    -0.158 C  
HETATM   14  C   UNL     1     -11.154   9.354  71.219  1.00  0.00    -0.376 C  
HETATM   15  C   UNL     1     -12.297  10.212  70.673  1.00  0.00    -0.293 C  
HETATM   16  O   UNL     1     -11.607  12.513  70.455  1.00  0.00    -0.532 OA 
HETATM   17  O   UNL     1      -9.922   9.956  70.764  1.00  0.00    -0.178 OA 
HETATM   18  C   UNL     1     -11.622  11.238  69.760  1.00  0.00    -0.333 C  
HETATM   19  H   UNL     1     -12.487  12.849  70.578  1.00  0.00     0.000 HD 
HETATM   20  O   UNL     1     -12.997  10.833  71.758  1.00  0.00    -0.446 OA 
HETATM   21  H   UNL     1     -13.707  11.365  71.419  1.00  0.00     0.000 HD 
BRANCH  14  22
HETATM   22  C   UNL     1     -11.287   7.907  70.727  1.00  0.00    -0.274 C  
BRANCH  22  23
HETATM   23  O   UNL     1     -10.707   6.997  71.654  1.00  0.00    -0.219 OA 
HETATM   24  P   UNL     1     -10.304   5.481  70.923  1.00  0.00    -0.230 P  
HETATM   25  O   UNL     1      -9.943   4.125  70.270  1.00  0.00    -0.201 OA 
HETATM   26  O   UNL     1      -8.890   6.197  70.534  1.00  0.00    -0.143 OA 
HETATM   27  O   UNL     1      -9.919   4.997  72.437  1.00  0.00    -0.167 OA 
ENDBRANCH  22  23
ENDBRANCH  14  22
ENDBRANCH   8  13
TORSDOF 3
ENDMDL
MODEL      148
REMARK 921   NORMALIZED FREE ENERGY PREDICTED BY IDOCK:   -4.40 KCAL/MOL
REMARK 922        TOTAL FREE ENERGY PREDICTED BY IDOCK:   -5.64 KCAL/MOL
REMARK 923 INTER-LIGAND FREE ENERGY PREDICTED BY IDOCK:   -5.41 KCAL/MOL
REMARK 924 INTRA-LIGAND FREE ENERGY PREDICTED BY IDOCK:   -0.23 KCAL/MOL
REMARK 927      BINDING AFFINITY PREDICTED BY RF-SCORE:    0.00 PKD
ROOT
HETATM    1  N   UNL     1     -10.288   5.921  71.806  1.00  0.00    -0.210 NA 
HETATM    2  C   UNL     1     -10.354   6.519  70.556  1.00  0.00    -0.201 A  
HETATM    3  H1  UNL     1     -10.585   4.961  71.978  1.00  0.00     0.000 HD 
HETATM    4  H2  UNL     1     -10.797   6.518  72.458  1.00  0.00     0.000 HD 
HETATM    5  C   UNL     1      -9.947   7.842  70.319  1.00  0.00    -0.189 A  
HETATM    6  N   UNL     1      -9.439   8.811  71.151  1.00  0.00    -0.216 NA 
HETATM    7  C   UNL     1      -9.293   9.871  70.381  1.00  0.00    -0.004 A  
HETATM    8  N   UNL     1      -9.649   9.612  69.078  1.00  0.00    -0.162 NA 
HETATM    9  N   UNL     1     -10.862   5.806  69.526  1.00  0.00    -0.346 NA 
HETATM   10  C   UNL     1     -10.087   8.319  69.023  1.00  0.00    -0.202 A  
HETATM   11  N   UNL     1     -10.586   7.650  67.969  1.00  0.00    -0.186 NA 
HETATM   12  C   UNL     1     -10.931   6.392  68.314  1.00  0.00    -0.312 A  
ENDROOT
BRANCH   8  13
HETATM   13  C   UNL     1      -9.545  10.590  68.015  1.00  0.00    -0.148 C  
HETATM   14  C   UNL     1     -10.983  12.359  68.534  1.00  0.00    -0.245 C  
HETATM   15  C   UNL     1     -11.625  11.640  67.345  1.00  0.00    -0.254 C  
HETATM   16  O   UNL     1      -9.977  11.153  65.652  1.00  0.00    -0.226 OA 
HETATM   17  O   UNL     1      -9.617  11.896  68.618  1.00  0.00    -0.178 OA 
HETATM   18  C   UNL     1     -10.570  10.637  66.872  1.00  0.00    -0.254 C  
HETATM   19  H   UNL     1     -10.611  11.182  64.945  1.00  0.00     0.000 HD 
HETATM   20  O   UNL     1     -11.960  12.591  66.328  1.00  0.00    -0.508 OA 
HETATM   21  H   UNL     1     -12.359  12.145  65.590  1.00  0.00     0.000 HD 
BRANCH  14  22
HETATM   22  C   UNL     1     -11.758  12.058  69.824  1.00  0.00    -0.319 C  
BRANCH  22  23
HETATM   23  O   UNL     1     -12.783  13.020  70.040  1.00  0.00     0.021 OA 
HETATM   24  P   UNL     1     -13.006  13.381  71.717  1.00  0.00    -0.252 P  
HETATM   25  O   UNL     1     -13.205  13.704  73.218  1.00  0.00    -0.409 OA 
HETATM   26  O   UNL     1     -11.827  14.487  71.498  1.00  0.00    -0.333 OA 
HETATM   27  O   UNL     1     -14.276  14.285  71.226  1.00  0.00    -0.280 OA 
ENDBRANCH  22  23
ENDBRANCH  14  22
ENDBRANCH   8  13
TORSDOF 3
ENDMDL
MODEL      149
REMARK 921   NORMALIZED FREE ENERGY PREDICTED BY IDOCK:   -4.39 KCAL/MOL
REMARK 922        TOTAL FREE ENERGY PREDICTED BY IDOCK:   -5.64 KCAL/MOL
REMARK 923 INTER-LIGAND FREE ENERGY PREDICTED BY IDOCK:   -5.00 KCAL/MOL
REMARK 924 INTRA-LIGAND FREE ENERGY PREDICTED BY IDOCK:   -0.64 KCAL/MOL
REMARK 927      BINDING AFFINITY PREDICTED BY RF-SCORE:    0.00 PKD
ROOT
HETATM    1  N   UNL     1      -9.825  14.752  66.701  1.00  0.00    -0.250 NA 
HETATM    2  C   UNL     1     -10.471  13.708  67.345  1.00  0.00    -0.251 A  
HETATM    3  H1  UNL     1      -9.995  15.733  66.924  1.00  0.00     0.000 HD 
HETATM    4  H2  UNL     1      -9.979  14.636  65.700  1.00  0.00     0.000 HD 
HETATM    5  C   UNL     1     -10.237  12.358  67.039  1.00  0.00    -0.220 A  
HETATM    6  N   UNL     1      -9.413  11.753  66.121  1.00  0.00    -0.223 NA 
HETATM    7  C   UNL     1      -9.655  10.464  66.251  1.00  0.00    -0.182 A  
HETATM    8  N   UNL     1     -10.572  10.212  67.244  1.00  0.00    -0.257 NA 
HETATM    9  N   UNL     1     -11.391  14.005  68.290  1.00  0.00    -0.271 NA 
HETATM   10  C   UNL     1     -10.970  11.417  67.750  1.00  0.00    -0.247 A  
HETATM   11  N   UNL     1     -11.893  11.663  68.695  1.00  0.00    -0.393 NA 
HETATM   12  C   UNL     1     -12.023  12.989  68.911  1.00  0.00    -0.263 A  
ENDROOT
BRANCH   8  13
HETATM   13  C   UNL     1     -10.987   8.877  67.625  1.00  0.00     0.112 C  
HETATM   14  C   UNL     1      -9.326   7.985  69.008  1.00  0.00    -0.147 C  
HETATM   15  C   UNL     1      -9.229   7.209  67.692  1.00  0.00    -0.125 C  
HETATM   16  O   UNL     1     -11.419   6.551  66.926  1.00  0.00    -0.762 OA 
HETATM   17  O   UNL     1     -10.596   8.675  68.996  1.00  0.00    -0.217 OA 
HETATM   18  C   UNL     1     -10.458   7.638  66.887  1.00  0.00    -0.318 C  
HETATM   19  H   UNL     1     -11.092   5.784  66.469  1.00  0.00     0.000 HD 
HETATM   20  O   UNL     1      -9.222   5.802  67.959  1.00  0.00    -0.110 OA 
HETATM   21  H   UNL     1      -9.161   5.321  67.143  1.00  0.00     0.000 HD 
BRANCH  14  22
HETATM   22  C   UNL     1      -8.154   8.967  69.139  1.00  0.00    -0.117 C  
BRANCH  22  23
HETATM   23  O   UNL     1      -7.047   8.355  69.789  1.00  0.00    -0.050 OA 
HETATM   24  P   UNL     1      -6.263   9.424  70.902  1.00  0.00    -0.073 P  
HETATM   25  O   UNL     1      -5.562  10.380  71.896  1.00  0.00    -0.308 OA 
HETATM   26  O   UNL     1      -7.364   8.891  71.981  1.00  0.00    -0.301 OA 
HETATM   27  O   UNL     1      -5.159   8.231  71.076  1.00  0.00    -0.025 OA 
ENDBRANCH  22  23
ENDBRANCH  14  22
ENDBRANCH   8  13
TORSDOF 3
ENDMDL
MODEL      150
REMARK 921   NORMALIZED FREE ENERGY PREDICTED BY IDOCK:   -4.38 KCAL/MOL
REMARK 922        TOTAL FREE ENERGY PREDICTED BY IDOCK:   -5.62 KCAL/MOL
REMARK 923 INTER-LIGAND FREE ENERGY PREDICTED BY IDOCK:   -5.26 KCAL/MOL
REMARK 924 INTRA-LIGAND FREE ENERGY PREDICTED BY IDOCK:   -0.36 KCAL/MOL
REMARK 927      BINDING AFFINITY PREDICTED BY RF-SCORE:    0.00 PKD
ROOT
HETATM    1  N   UNL     1     -11.371   4.388  65.077  1.00  0.00    -1.102 NA 
HETATM    2  C   UNL     1     -10.237   5.089  65.457  1.00  0.00     0.022 A  
HETATM    3  H1  UNL     1     -11.377   3.710  64.315  1.00  0.00     0.000 HD 
HETATM    4  H2  UNL     1     -12.102   5.073  64.880  1.00  0.00     0.000 HD 
HETATM    5  C   UNL     1     -10.230   6.023  66.505  1.00  0.00    -0.143 A  
HETATM    6  N   UNL     1     -11.220   6.468  67.347  1.00  0.00    -0.316 NA 
HETATM    7  C   UNL     1     -10.639   7.386  68.093  1.00  0.00    -0.162 A  
HETATM    8  N   UNL     1      -9.304   7.522  67.793  1.00  0.00    -0.141 NA 
HETATM    9  N   UNL     1      -9.092   4.886  64.766  1.00  0.00    -0.134 NA 
HETATM   10  C   UNL     1      -9.027   6.666  66.764  1.00  0.00    -0.133 A  
HETATM   11  N   UNL     1      -7.867   6.499  66.107  1.00  0.00    -0.102 NA 
HETATM   12  C   UNL     1      -7.992   5.573  65.133  1.00  0.00    -0.110 A  
ENDROOT
BRANCH   8  13
HETATM   13  C   UNL     1      -8.419   8.430  68.492  1.00  0.00    -0.132 C  
HETATM   14  C   UNL     1      -8.969  10.605  67.833  1.00  0.00    -0.138 C  
HETATM   15  C   UNL     1      -7.608  10.312  67.197  1.00  0.00    -0.092 C  
HETATM   16  O   UNL     1      -6.124   9.283  68.796  1.00  0.00    -0.043 OA 
HETATM   17  O   UNL     1      -9.185   9.597  68.846  1.00  0.00    -0.140 OA 
HETATM   18  C   UNL     1      -7.156   8.989  67.819  1.00  0.00    -0.079 C  
HETATM   19  H   UNL     1      -5.343   9.628  68.379  1.00  0.00     0.000 HD 
HETATM   20  O   UNL     1      -6.700  11.382  67.486  1.00  0.00    -0.067 OA 
HETATM   21  H   UNL     1      -5.855  11.200  67.091  1.00  0.00     0.000 HD 
BRANCH  14  22
HETATM   22  C   UNL     1     -10.075  10.579  66.769  1.00  0.00    -0.219 C  
BRANCH  22  23
HETATM   23  O   UNL     1     -10.000  11.724  65.928  1.00  0.00    -0.222 OA 
HETATM   24  P   UNL     1     -11.560  12.253  65.397  1.00  0.00    -0.304 P  
HETATM   25  O   UNL     1     -12.954  12.726  64.922  1.00  0.00    -0.805 OA 
HETATM   26  O   UNL     1     -11.594  13.108  66.786  1.00  0.00    -0.329 OA 
HETATM   27  O   UNL     1     -10.742  13.327  64.474  1.00  0.00    -0.368 OA 
ENDBRANCH  22  23
ENDBRANCH  14  22
ENDBRANCH   8  13
TORSDOF 3
ENDMDL
MODEL      151
REMARK 921   NORMALIZED FREE ENERGY PREDICTED BY IDOCK:   -4.38 KCAL/MOL
REMARK 922        TOTAL FREE ENERGY PREDICTED BY IDOCK:   -5.62 KCAL/MOL
REMARK 923 INTER-LIGAND FREE ENERGY PREDICTED BY IDOCK:   -4.88 KCAL/MOL
REMARK 924 INTRA-LIGAND FREE ENERGY PREDICTED BY IDOCK:   -0.74 KCAL/MOL
REMARK 927      BINDING AFFINITY PREDICTED BY RF-SCORE:    0.00 PKD
ROOT
HETATM    1  N   UNL     1      -6.463   5.548  67.227  1.00  0.00    -0.046 NA 
HETATM    2  C   UNL     1      -7.834   5.637  67.416  1.00  0.00    -0.101 A  
HETATM    3  H1  UNL     1      -6.037   5.394  66.314  1.00  0.00     0.000 HD 
HETATM    4  H2  UNL     1      -6.116   4.820  67.852  1.00  0.00     0.000 HD 
HETATM    5  C   UNL     1      -8.421   5.849  68.673  1.00  0.00    -0.111 A  
HETATM    6  N   UNL     1      -7.880   5.998  69.928  1.00  0.00    -0.102 NA 
HETATM    7  C   UNL     1      -8.919   6.113  70.730  1.00  0.00    -0.143 A  
HETATM    8  N   UNL     1     -10.108   6.084  70.039  1.00  0.00    -0.176 NA 
HETATM    9  N   UNL     1      -8.643   5.484  66.344  1.00  0.00    -0.118 NA 
HETATM   10  C   UNL     1      -9.808   5.898  68.718  1.00  0.00    -0.140 A  
HETATM   11  N   UNL     1     -10.652   5.751  67.683  1.00  0.00    -0.241 NA 
HETATM   12  C   UNL     1      -9.976   5.566  66.530  1.00  0.00    -0.185 A  
ENDROOT
BRANCH   8  13
HETATM   13  C   UNL     1     -11.401   6.233  70.672  1.00  0.00    -0.343 C  
HETATM   14  C   UNL     1     -11.812   8.521  70.920  1.00  0.00    -0.217 C  
HETATM   15  C   UNL     1     -11.562   7.991  72.333  1.00  0.00    -0.390 C  
HETATM   16  O   UNL     1     -12.774   5.938  72.701  1.00  0.00    -0.514 OA 
HETATM   17  O   UNL     1     -12.049   7.372  70.076  1.00  0.00     0.140 OA 
HETATM   18  C   UNL     1     -11.525   6.468  72.185  1.00  0.00    -0.292 C  
HETATM   19  H   UNL     1     -12.850   6.083  73.637  1.00  0.00     0.000 HD 
HETATM   20  O   UNL     1     -12.613   8.423  73.205  1.00  0.00    -0.643 OA 
HETATM   21  H   UNL     1     -12.458   8.094  74.083  1.00  0.00     0.000 HD 
BRANCH  14  22
HETATM   22  C   UNL     1     -10.607   9.337  70.433  1.00  0.00    -0.248 C  
BRANCH  22  23
HETATM   23  O   UNL     1     -10.586   9.417  69.012  1.00  0.00    -0.217 OA 
HETATM   24  P   UNL     1     -10.319  11.031  68.448  1.00  0.00    -0.205 P  
HETATM   25  O   UNL     1     -10.080  12.475  67.943  1.00  0.00    -0.202 OA 
HETATM   26  O   UNL     1      -8.733  10.674  68.586  1.00  0.00    -0.133 OA 
HETATM   27  O   UNL     1     -10.573  10.417  66.954  1.00  0.00    -0.248 OA 
ENDBRANCH  22  23
ENDBRANCH  14  22
ENDBRANCH   8  13
TORSDOF 3
ENDMDL
MODEL      152
REMARK 921   NORMALIZED FREE ENERGY PREDICTED BY IDOCK:   -4.36 KCAL/MOL
REMARK 922        TOTAL FREE ENERGY PREDICTED BY IDOCK:   -5.60 KCAL/MOL
REMARK 923 INTER-LIGAND FREE ENERGY PREDICTED BY IDOCK:   -5.00 KCAL/MOL
REMARK 924 INTRA-LIGAND FREE ENERGY PREDICTED BY IDOCK:   -0.60 KCAL/MOL
REMARK 927      BINDING AFFINITY PREDICTED BY RF-SCORE:    0.00 PKD
ROOT
HETATM    1  N   UNL     1      -9.373  13.219  68.808  1.00  0.00    -0.398 NA 
HETATM    2  C   UNL     1      -9.756  12.232  67.912  1.00  0.00    -0.202 A  
HETATM    3  H1  UNL     1      -9.688  14.186  68.737  1.00  0.00     0.000 HD 
HETATM    4  H2  UNL     1      -8.353  13.232  68.832  1.00  0.00     0.000 HD 
HETATM    5  C   UNL     1      -9.322  10.900  68.009  1.00  0.00    -0.160 A  
HETATM    6  N   UNL     1      -8.488  10.267  68.900  1.00  0.00    -0.129 NA 
HETATM    7  C   UNL     1      -8.406   9.028  68.461  1.00  0.00    -0.124 A  
HETATM    8  N   UNL     1      -9.186   8.826  67.345  1.00  0.00    -0.135 NA 
HETATM    9  N   UNL     1     -10.559  12.575  66.880  1.00  0.00    -0.234 NA 
HETATM   10  C   UNL     1      -9.767  10.022  67.031  1.00  0.00    -0.181 A  
HETATM   11  N   UNL     1     -10.564  10.315  65.989  1.00  0.00    -0.105 NA 
HETATM   12  C   UNL     1     -10.925  11.615  66.006  1.00  0.00    -0.286 A  
ENDROOT
BRANCH   8  13
HETATM   13  C   UNL     1      -9.313   7.544  66.685  1.00  0.00    -0.174 C  
HETATM   14  C   UNL     1     -10.717   6.207  67.991  1.00  0.00    -0.295 C  
HETATM   15  C   UNL     1      -9.317   5.606  68.141  1.00  0.00    -0.111 C  
HETATM   16  O   UNL     1      -8.227   5.438  65.996  1.00  0.00    -0.112 OA 
HETATM   17  O   UNL     1     -10.672   7.099  66.855  1.00  0.00    -0.330 OA 
HETATM   18  C   UNL     1      -8.458   6.340  67.109  1.00  0.00    -0.108 C  
HETATM   19  H   UNL     1      -7.698   4.693  66.259  1.00  0.00     0.000 HD 
HETATM   20  O   UNL     1      -9.368   4.196  67.896  1.00  0.00    -0.141 OA 
HETATM   21  H   UNL     1      -8.499   3.822  67.990  1.00  0.00     0.000 HD 
BRANCH  14  22
HETATM   22  C   UNL     1     -11.122   6.948  69.273  1.00  0.00    -0.184 C  
BRANCH  22  23
HETATM   23  O   UNL     1     -11.176   6.058  70.381  1.00  0.00    -0.337 OA 
HETATM   24  P   UNL     1     -11.184   6.894  71.897  1.00  0.00    -0.279 P  
HETATM   25  O   UNL     1     -11.191   7.641  73.252  1.00  0.00    -0.358 OA 
HETATM   26  O   UNL     1     -12.802   6.961  71.698  1.00  0.00    -0.373 OA 
HETATM   27  O   UNL     1     -11.087   5.409  72.573  1.00  0.00    -0.246 OA 
ENDBRANCH  22  23
ENDBRANCH  14  22
ENDBRANCH   8  13
TORSDOF 3
ENDMDL
MODEL      153
REMARK 921   NORMALIZED FREE ENERGY PREDICTED BY IDOCK:   -4.36 KCAL/MOL
REMARK 922        TOTAL FREE ENERGY PREDICTED BY IDOCK:   -5.59 KCAL/MOL
REMARK 923 INTER-LIGAND FREE ENERGY PREDICTED BY IDOCK:   -5.25 KCAL/MOL
REMARK 924 INTRA-LIGAND FREE ENERGY PREDICTED BY IDOCK:   -0.34 KCAL/MOL
REMARK 927      BINDING AFFINITY PREDICTED BY RF-SCORE:    0.00 PKD
ROOT
HETATM    1  N   UNL     1      -7.728   3.183  73.364  1.00  0.00    -0.059 NA 
HETATM    2  C   UNL     1      -8.821   4.036  73.343  1.00  0.00    -0.097 A  
HETATM    3  H1  UNL     1      -7.341   2.797  74.225  1.00  0.00     0.000 HD 
HETATM    4  H2  UNL     1      -6.967   3.649  72.870  1.00  0.00     0.000 HD 
HETATM    5  C   UNL     1      -9.354   4.567  72.157  1.00  0.00    -0.133 A  
HETATM    6  N   UNL     1      -8.988   4.426  70.840  1.00  0.00    -0.107 NA 
HETATM    7  C   UNL     1      -9.820   5.202  70.176  1.00  0.00    -0.230 A  
HETATM    8  N   UNL     1     -10.733   5.807  71.007  1.00  0.00    -0.259 NA 
HETATM    9  N   UNL     1      -9.381   4.396  74.520  1.00  0.00    -0.109 NA 
HETATM   10  C   UNL     1     -10.438   5.424  72.286  1.00  0.00    -0.219 A  
HETATM   11  N   UNL     1     -11.027   5.812  73.430  1.00  0.00    -0.259 NA 
HETATM   12  C   UNL     1     -10.439   5.230  74.497  1.00  0.00    -0.199 A  
ENDROOT
BRANCH   8  13
HETATM   13  C   UNL     1     -11.788   6.678  70.532  1.00  0.00    -0.370 C  
HETATM   14  C   UNL     1     -11.060   8.884  70.796  1.00  0.00    -0.261 C  
HETATM   15  C   UNL     1     -12.162   8.686  71.839  1.00  0.00    -0.355 C  
HETATM   16  O   UNL     1     -14.065   7.567  70.866  1.00  0.00    -0.647 OA 
HETATM   17  O   UNL     1     -11.165   7.789  69.860  1.00  0.00    -0.190 OA 
HETATM   18  C   UNL     1     -12.784   7.328  71.505  1.00  0.00    -0.384 C  
HETATM   19  H   UNL     1     -14.681   7.969  71.468  1.00  0.00     0.000 HD 
HETATM   20  O   UNL     1     -13.113   9.752  71.747  1.00  0.00    -0.369 OA 
HETATM   21  H   UNL     1     -13.797   9.629  72.395  1.00  0.00     0.000 HD 
BRANCH  14  22
HETATM   22  C   UNL     1      -9.682   8.916  71.472  1.00  0.00    -0.302 C  
BRANCH  22  23
HETATM   23  O   UNL     1      -8.658   8.534  70.561  1.00  0.00    -0.130 OA 
HETATM   24  P   UNL     1      -8.458   9.678  69.279  1.00  0.00    -0.178 P  
HETATM   25  O   UNL     1      -8.278  10.702  68.132  1.00  0.00    -0.110 OA 
HETATM   26  O   UNL     1      -7.446  10.447  70.303  1.00  0.00    -0.206 OA 
HETATM   27  O   UNL     1      -7.395   8.604  68.655  1.00  0.00    -0.078 OA 
ENDBRANCH  22  23
ENDBRANCH  14  22
ENDBRANCH   8  13
TORSDOF 3
ENDMDL
MODEL      154
REMARK 921   NORMALIZED FREE ENERGY PREDICTED BY IDOCK:   -4.35 KCAL/MOL
REMARK 922        TOTAL FREE ENERGY PREDICTED BY IDOCK:   -5.59 KCAL/MOL
REMARK 923 INTER-LIGAND FREE ENERGY PREDICTED BY IDOCK:   -5.10 KCAL/MOL
REMARK 924 INTRA-LIGAND FREE ENERGY PREDICTED BY IDOCK:   -0.49 KCAL/MOL
REMARK 927      BINDING AFFINITY PREDICTED BY RF-SCORE:    0.00 PKD
ROOT
HETATM    1  N   UNL     1      -5.556  12.536  70.217  1.00  0.00    -0.140 NA 
HETATM    2  C   UNL     1      -6.241  11.385  69.859  1.00  0.00    -0.143 A  
HETATM    3  H1  UNL     1      -5.266  12.735  71.174  1.00  0.00     0.000 HD 
HETATM    4  H2  UNL     1      -6.106  13.332  69.893  1.00  0.00     0.000 HD 
HETATM    5  C   UNL     1      -6.641  11.111  68.541  1.00  0.00    -0.060 A  
HETATM    6  N   UNL     1      -6.499  11.818  67.371  1.00  0.00    -0.102 NA 
HETATM    7  C   UNL     1      -7.119  11.092  66.463  1.00  0.00    -0.136 A  
HETATM    8  N   UNL     1      -7.620   9.926  66.992  1.00  0.00    -0.092 NA 
HETATM    9  N   UNL     1      -6.566  10.500  70.828  1.00  0.00    -0.341 NA 
HETATM   10  C   UNL     1      -7.338   9.929  68.329  1.00  0.00    -0.079 A  
HETATM   11  N   UNL     1      -7.683   9.021  69.258  1.00  0.00    -0.088 NA 
HETATM   12  C   UNL     1      -7.237   9.385  70.479  1.00  0.00    -0.123 A  
ENDROOT
BRANCH   8  13
HETATM   13  C   UNL     1      -8.310   8.926  66.204  1.00  0.00    -0.122 C  
HETATM   14  C   UNL     1     -10.603   9.359  66.356  1.00  0.00     0.005 C  
HETATM   15  C   UNL     1     -10.371   8.075  67.156  1.00  0.00    -0.325 C  
HETATM   16  O   UNL     1      -8.946   6.557  65.938  1.00  0.00    -0.225 OA 
HETATM   17  O   UNL     1      -9.420   9.574  65.554  1.00  0.00    -0.236 OA 
HETATM   18  C   UNL     1      -8.923   7.679  66.859  1.00  0.00    -0.138 C  
HETATM   19  H   UNL     1      -9.325   5.785  66.344  1.00  0.00     0.000 HD 
HETATM   20  O   UNL     1     -11.303   7.071  66.738  1.00  0.00    -0.570 OA 
HETATM   21  H   UNL     1     -11.159   6.274  67.235  1.00  0.00     0.000 HD 
BRANCH  14  22
HETATM   22  C   UNL     1     -10.863  10.540  67.301  1.00  0.00    -0.279 C  
BRANCH  22  23
HETATM   23  O   UNL     1     -10.518  11.774  66.682  1.00  0.00    -0.213 OA 
HETATM   24  P   UNL     1     -11.758  12.347  65.620  1.00  0.00    -0.339 P  
HETATM   25  O   UNL     1     -12.867  12.859  64.670  1.00  0.00    -0.705 OA 
HETATM   26  O   UNL     1     -12.395  13.038  66.954  1.00  0.00    -0.351 OA 
HETATM   27  O   UNL     1     -10.698  13.526  65.221  1.00  0.00    -0.298 OA 
ENDBRANCH  22  23
ENDBRANCH  14  22
ENDBRANCH   8  13
TORSDOF 3
ENDMDL
MODEL      155
REMARK 921   NORMALIZED FREE ENERGY PREDICTED BY IDOCK:   -4.33 KCAL/MOL
REMARK 922        TOTAL FREE ENERGY PREDICTED BY IDOCK:   -5.56 KCAL/MOL
REMARK 923 INTER-LIGAND FREE ENERGY PREDICTED BY IDOCK:   -5.29 KCAL/MOL
REMARK 924 INTRA-LIGAND FREE ENERGY PREDICTED BY IDOCK:   -0.28 KCAL/MOL
REMARK 927      BINDING AFFINITY PREDICTED BY RF-SCORE:    0.00 PKD
ROOT
HETATM    1  N   UNL     1      -9.414   4.407  69.566  1.00  0.00    -0.164 NA 
HETATM    2  C   UNL     1      -9.715   5.460  68.716  1.00  0.00    -0.142 A  
HETATM    3  H1  UNL     1      -9.877   3.500  69.513  1.00  0.00     0.000 HD 
HETATM    4  H2  UNL     1      -9.519   4.747  70.522  1.00  0.00     0.000 HD 
HETATM    5  C   UNL     1      -9.077   6.709  68.790  1.00  0.00    -0.131 A  
HETATM    6  N   UNL     1      -8.102   7.196  69.627  1.00  0.00    -0.127 NA 
HETATM    7  C   UNL     1      -7.939   8.451  69.258  1.00  0.00    -0.113 A  
HETATM    8  N   UNL     1      -8.742   8.781  68.191  1.00  0.00    -0.134 NA 
HETATM    9  N   UNL     1     -10.687   5.286  67.793  1.00  0.00    -0.044 NA 
HETATM   10  C   UNL     1      -9.492   7.679  67.888  1.00  0.00    -0.143 A  
HETATM   11  N   UNL     1     -10.452   7.554  66.955  1.00  0.00    -0.322 NA 
HETATM   12  C   UNL     1     -10.982   6.313  66.971  1.00  0.00    -0.364 A  
ENDROOT
BRANCH   8  13
HETATM   13  C   UNL     1      -8.731  10.084  67.560  1.00  0.00    -0.125 C  
HETATM   14  C   UNL     1     -10.637  11.235  68.274  1.00  0.00    -0.197 C  
HETATM   15  C   UNL     1     -10.883  10.902  66.801  1.00  0.00    -0.224 C  
HETATM   16  O   UNL     1      -8.927  11.392  65.477  1.00  0.00    -0.322 OA 
HETATM   17  O   UNL     1      -9.227  11.036  68.520  1.00  0.00    -0.164 OA 
HETATM   18  C   UNL     1      -9.547  10.360  66.288  1.00  0.00    -0.182 C  
HETATM   19  H   UNL     1      -9.431  11.563  64.690  1.00  0.00     0.000 HD 
HETATM   20  O   UNL     1     -11.291  12.083  66.100  1.00  0.00    -0.331 OA 
HETATM   21  H   UNL     1     -11.444  11.876  65.185  1.00  0.00     0.000 HD 
BRANCH  14  22
HETATM   22  C   UNL     1     -11.496  10.339  69.177  1.00  0.00    -0.147 C  
BRANCH  22  23
HETATM   23  O   UNL     1     -11.963  11.058  70.312  1.00  0.00    -0.302 OA 
HETATM   24  P   UNL     1     -13.000  10.102  71.315  1.00  0.00    -0.419 P  
HETATM   25  O   UNL     1     -13.928   9.248  72.212  1.00  0.00    -0.440 OA 
HETATM   26  O   UNL     1     -11.622   9.600  72.030  1.00  0.00    -0.246 OA 
HETATM   27  O   UNL     1     -13.228  11.475  72.173  1.00  0.00    -0.505 OA 
ENDBRANCH  22  23
ENDBRANCH  14  22
ENDBRANCH   8  13
TORSDOF 3
ENDMDL
MODEL      156
REMARK 921   NORMALIZED FREE ENERGY PREDICTED BY IDOCK:   -4.33 KCAL/MOL
REMARK 922        TOTAL FREE ENERGY PREDICTED BY IDOCK:   -5.56 KCAL/MOL
REMARK 923 INTER-LIGAND FREE ENERGY PREDICTED BY IDOCK:   -5.04 KCAL/MOL
REMARK 924 INTRA-LIGAND FREE ENERGY PREDICTED BY IDOCK:   -0.52 KCAL/MOL
REMARK 927      BINDING AFFINITY PREDICTED BY RF-SCORE:    0.00 PKD
ROOT
HETATM    1  N   UNL     1      -7.856   8.162  71.297  1.00  0.00    -0.089 NA 
HETATM    2  C   UNL     1      -7.950   9.284  70.487  1.00  0.00    -0.167 A  
HETATM    3  H1  UNL     1      -6.966   7.775  71.609  1.00  0.00     0.000 HD 
HETATM    4  H2  UNL     1      -8.371   7.410  70.838  1.00  0.00     0.000 HD 
HETATM    5  C   UNL     1      -9.175   9.817  70.057  1.00  0.00    -0.229 A  
HETATM    6  N   UNL     1     -10.475   9.427  70.274  1.00  0.00    -0.231 NA 
HETATM    7  C   UNL     1     -11.202  10.275  69.575  1.00  0.00    -0.261 A  
HETATM    8  N   UNL     1     -10.425  11.221  68.948  1.00  0.00    -0.207 NA 
HETATM    9  N   UNL     1      -6.807   9.873  70.068  1.00  0.00    -0.092 NA 
HETATM   10  C   UNL     1      -9.120  10.932  69.232  1.00  0.00     0.023 A  
HETATM   11  N   UNL     1      -8.012  11.552  68.790  1.00  0.00    -0.135 NA 
HETATM   12  C   UNL     1      -6.900  10.960  69.276  1.00  0.00    -0.105 A  
ENDROOT
BRANCH   8  13
HETATM   13  C   UNL     1     -10.971  12.298  68.149  1.00  0.00    -0.231 C  
HETATM   14  C   UNL     1     -10.874  11.641  65.908  1.00  0.00    -0.287 C  
HETATM   15  C   UNL     1      -9.825  12.745  66.060  1.00  0.00    -0.255 C  
HETATM   16  O   UNL     1     -10.720  14.605  67.309  1.00  0.00    -0.281 OA 
HETATM   17  O   UNL     1     -11.724  11.704  67.075  1.00  0.00    -0.564 OA 
HETATM   18  C   UNL     1     -10.057  13.322  67.459  1.00  0.00    -0.223 C  
HETATM   19  H   UNL     1     -10.155  15.238  66.882  1.00  0.00     0.000 HD 
HETATM   20  O   UNL     1     -10.005  13.728  65.034  1.00  0.00    -0.557 OA 
HETATM   21  H   UNL     1      -9.354  14.413  65.129  1.00  0.00     0.000 HD 
BRANCH  14  22
HETATM   22  C   UNL     1     -10.195  10.271  65.781  1.00  0.00    -0.219 C  
BRANCH  22  23
HETATM   23  O   UNL     1      -8.891  10.397  65.228  1.00  0.00    -0.169 OA 
HETATM   24  P   UNL     1      -8.716   9.522  63.745  1.00  0.00    -0.161 P  
HETATM   25  O   UNL     1      -8.560   8.738  62.420  1.00  0.00    -0.212 OA 
HETATM   26  O   UNL     1      -9.295  10.872  63.036  1.00  0.00    -0.266 OA 
HETATM   27  O   UNL     1      -7.140   9.949  63.824  1.00  0.00    -0.119 OA 
ENDBRANCH  22  23
ENDBRANCH  14  22
ENDBRANCH   8  13
TORSDOF 3
ENDMDL
MODEL      157
REMARK 921   NORMALIZED FREE ENERGY PREDICTED BY IDOCK:   -4.33 KCAL/MOL
REMARK 922        TOTAL FREE ENERGY PREDICTED BY IDOCK:   -5.55 KCAL/MOL
REMARK 923 INTER-LIGAND FREE ENERGY PREDICTED BY IDOCK:   -5.50 KCAL/MOL
REMARK 924 INTRA-LIGAND FREE ENERGY PREDICTED BY IDOCK:   -0.05 KCAL/MOL
REMARK 927      BINDING AFFINITY PREDICTED BY RF-SCORE:    0.00 PKD
ROOT
HETATM    1  N   UNL     1     -12.304  14.797  67.975  1.00  0.00    -0.559 NA 
HETATM    2  C   UNL     1     -11.966  13.955  66.927  1.00  0.00    -0.433 A  
HETATM    3  H1  UNL     1     -13.180  15.319  68.008  1.00  0.00     0.000 HD 
HETATM    4  H2  UNL     1     -11.544  15.469  68.085  1.00  0.00     0.000 HD 
HETATM    5  C   UNL     1     -10.760  13.236  66.881  1.00  0.00    -0.271 A  
HETATM    6  N   UNL     1      -9.693  13.174  67.745  1.00  0.00    -0.211 NA 
HETATM    7  C   UNL     1      -8.827  12.376  67.153  1.00  0.00    -0.197 A  
HETATM    8  N   UNL     1      -9.310  11.891  65.960  1.00  0.00    -0.226 NA 
HETATM    9  N   UNL     1     -12.822  13.844  65.887  1.00  0.00    -0.432 NA 
HETATM   10  C   UNL     1     -10.543  12.446  65.761  1.00  0.00    -0.256 A  
HETATM   11  N   UNL     1     -11.362  12.304  64.705  1.00  0.00    -0.313 NA 
HETATM   12  C   UNL     1     -12.489  13.029  64.866  1.00  0.00    -0.455 A  
ENDROOT
BRANCH   8  13
HETATM   13  C   UNL     1      -8.579  10.960  65.125  1.00  0.00    -0.078 C  
HETATM   14  C   UNL     1      -9.027   8.802  65.906  1.00  0.00    -0.195 C  
HETATM   15  C   UNL     1      -7.570   9.082  66.280  1.00  0.00    -0.092 C  
HETATM   16  O   UNL     1      -6.388  10.069  64.423  1.00  0.00    -0.118 OA 
HETATM   17  O   UNL     1      -9.411   9.801  64.934  1.00  0.00    -0.264 OA 
HETATM   18  C   UNL     1      -7.222  10.391  65.567  1.00  0.00    -0.138 C  
HETATM   19  H   UNL     1      -5.549   9.717  64.695  1.00  0.00     0.000 HD 
HETATM   20  O   UNL     1      -6.743   7.995  65.848  1.00  0.00    -0.048 OA 
HETATM   21  H   UNL     1      -5.838   8.169  66.080  1.00  0.00     0.000 HD 
BRANCH  14  22
HETATM   22  C   UNL     1      -9.920   8.859  67.153  1.00  0.00    -0.226 C  
BRANCH  22  23
HETATM   23  O   UNL     1      -9.813   7.660  67.912  1.00  0.00    -0.147 OA 
HETATM   24  P   UNL     1     -10.426   6.285  67.059  1.00  0.00    -0.325 P  
HETATM   25  O   UNL     1     -10.974   5.054  66.297  1.00  0.00    -0.216 OA 
HETATM   26  O   UNL     1      -8.926   6.178  66.426  1.00  0.00    -0.141 OA 
HETATM   27  O   UNL     1     -10.159   5.463  68.447  1.00  0.00    -0.161 OA 
ENDBRANCH  22  23
ENDBRANCH  14  22
ENDBRANCH   8  13
TORSDOF 3
ENDMDL
MODEL      158
REMARK 921   NORMALIZED FREE ENERGY PREDICTED BY IDOCK:   -4.31 KCAL/MOL
REMARK 922        TOTAL FREE ENERGY PREDICTED BY IDOCK:   -5.54 KCAL/MOL
REMARK 923 INTER-LIGAND FREE ENERGY PREDICTED BY IDOCK:   -5.13 KCAL/MOL
REMARK 924 INTRA-LIGAND FREE ENERGY PREDICTED BY IDOCK:   -0.41 KCAL/MOL
REMARK 927      BINDING AFFINITY PREDICTED BY RF-SCORE:    0.00 PKD
ROOT
HETATM    1  N   UNL     1     -12.085  15.338  72.747  1.00  0.00    -0.399 NA 
HETATM    2  C   UNL     1     -12.228  14.342  71.793  1.00  0.00    -0.278 A  
HETATM    3  H1  UNL     1     -12.123  15.157  73.750  1.00  0.00     0.000 HD 
HETATM    4  H2  UNL     1     -12.777  16.060  72.542  1.00  0.00     0.000 HD 
HETATM    5  C   UNL     1     -12.176  14.592  70.412  1.00  0.00    -0.329 A  
HETATM    6  N   UNL     1     -12.003  15.751  69.693  1.00  0.00    -0.350 NA 
HETATM    7  C   UNL     1     -12.098  15.380  68.432  1.00  0.00     0.004 A  
HETATM    8  N   UNL     1     -12.285  14.023  68.308  1.00  0.00    -0.267 NA 
HETATM    9  N   UNL     1     -12.458  13.077  72.211  1.00  0.00     0.274 NA 
HETATM   10  C   UNL     1     -12.356  13.503  69.570  1.00  0.00    -0.147 A  
HETATM   11  N   UNL     1     -12.586  12.231  69.938  1.00  0.00     0.122 NA 
HETATM   12  C   UNL     1     -12.603  12.112  71.282  1.00  0.00    -0.238 A  
ENDROOT
BRANCH   8  13
HETATM   13  C   UNL     1     -12.380  13.345  67.032  1.00  0.00    -0.177 C  
HETATM   14  C   UNL     1     -10.453  12.047  66.773  1.00  0.00    -0.214 C  
HETATM   15  C   UNL     1     -10.317  13.193  65.768  1.00  0.00    -0.289 C  
HETATM   16  O   UNL     1     -12.385  13.527  64.571  1.00  0.00    -0.489 OA 
HETATM   17  O   UNL     1     -11.833  12.024  67.200  1.00  0.00    -0.565 OA 
HETATM   18  C   UNL     1     -11.676  13.897  65.783  1.00  0.00    -0.359 C  
HETATM   19  H   UNL     1     -11.949  13.869  63.799  1.00  0.00     0.000 HD 
HETATM   20  O   UNL     1      -9.996  12.667  64.475  1.00  0.00    -0.504 OA 
HETATM   21  H   UNL     1      -9.911  13.378  63.851  1.00  0.00     0.000 HD 
BRANCH  14  22
HETATM   22  C   UNL     1      -9.501  12.259  67.958  1.00  0.00    -0.206 C  
BRANCH  22  23
HETATM   23  O   UNL     1      -9.707  11.270  68.961  1.00  0.00    -0.160 OA 
HETATM   24  P   UNL     1      -8.791   9.832  68.665  1.00  0.00    -0.134 P  
HETATM   25  O   UNL     1      -7.973   8.545  68.400  1.00  0.00    -0.114 OA 
HETATM   26  O   UNL     1      -7.592  10.591  69.469  1.00  0.00    -0.138 OA 
HETATM   27  O   UNL     1      -9.587   9.211  69.951  1.00  0.00    -0.172 OA 
ENDBRANCH  22  23
ENDBRANCH  14  22
ENDBRANCH   8  13
TORSDOF 3
ENDMDL
MODEL      159
REMARK 921   NORMALIZED FREE ENERGY PREDICTED BY IDOCK:   -4.31 KCAL/MOL
REMARK 922        TOTAL FREE ENERGY PREDICTED BY IDOCK:   -5.54 KCAL/MOL
REMARK 923 INTER-LIGAND FREE ENERGY PREDICTED BY IDOCK:   -4.80 KCAL/MOL
REMARK 924 INTRA-LIGAND FREE ENERGY PREDICTED BY IDOCK:   -0.73 KCAL/MOL
REMARK 927      BINDING AFFINITY PREDICTED BY RF-SCORE:    0.00 PKD
ROOT
HETATM    1  N   UNL     1     -10.628  16.359  67.448  1.00  0.00    -0.317 NA 
HETATM    2  C   UNL     1     -11.044  15.188  68.063  1.00  0.00    -0.308 A  
HETATM    3  H1  UNL     1     -10.895  17.286  67.780  1.00  0.00     0.000 HD 
HETATM    4  H2  UNL     1     -10.895  16.299  66.465  1.00  0.00     0.000 HD 
HETATM    5  C   UNL     1     -10.677  13.912  67.607  1.00  0.00    -0.249 A  
HETATM    6  N   UNL     1      -9.908  13.501  66.545  1.00  0.00    -0.284 NA 
HETATM    7  C   UNL     1      -9.960  12.185  66.582  1.00  0.00    -0.206 A  
HETATM    8  N   UNL     1     -10.700  11.730  67.648  1.00  0.00    -0.206 NA 
HETATM    9  N   UNL     1     -11.865  15.279  69.134  1.00  0.00    -0.327 NA 
HETATM   10  C   UNL     1     -11.183  12.826  68.307  1.00  0.00    -0.271 A  
HETATM   11  N   UNL     1     -12.000  12.865  69.374  1.00  0.00    -0.295 NA 
HETATM   12  C   UNL     1     -12.272  14.139  69.727  1.00  0.00    -0.344 A  
ENDROOT
BRANCH   8  13
HETATM   13  C   UNL     1     -10.884  10.326  67.948  1.00  0.00    -0.284 C  
HETATM   14  C   UNL     1      -9.067   9.633  69.246  1.00  0.00    -0.172 C  
HETATM   15  C   UNL     1      -8.879   8.965  67.882  1.00  0.00    -0.133 C  
HETATM   16  O   UNL     1     -10.953   8.007  67.108  1.00  0.00    -0.486 OA 
HETATM   17  O   UNL     1     -10.431  10.106  69.298  1.00  0.00    -0.196 OA 
HETATM   18  C   UNL     1     -10.181   9.236  67.125  1.00  0.00    -0.257 C  
HETATM   19  H   UNL     1     -10.518   7.333  66.598  1.00  0.00     0.000 HD 
HETATM   20  O   UNL     1      -8.638   7.564  68.058  1.00  0.00    -0.123 OA 
HETATM   21  H   UNL     1      -8.521   7.149  67.211  1.00  0.00     0.000 HD 
BRANCH  14  22
HETATM   22  C   UNL     1      -8.065  10.782  69.422  1.00  0.00    -0.043 C  
BRANCH  22  23
HETATM   23  O   UNL     1      -6.909  10.579  68.619  1.00  0.00    -0.052 OA 
HETATM   24  P   UNL     1      -6.502  11.977  67.684  1.00  0.00    -0.140 P  
HETATM   25  O   UNL     1      -6.139  13.228  66.848  1.00  0.00    -0.001 OA 
HETATM   26  O   UNL     1      -5.668  12.451  69.004  1.00  0.00    -0.062 OA 
HETATM   27  O   UNL     1      -5.355  11.033  67.002  1.00  0.00    -0.045 OA 
ENDBRANCH  22  23
ENDBRANCH  14  22
ENDBRANCH   8  13
TORSDOF 3
ENDMDL
MODEL      160
REMARK 921   NORMALIZED FREE ENERGY PREDICTED BY IDOCK:   -4.31 KCAL/MOL
REMARK 922        TOTAL FREE ENERGY PREDICTED BY IDOCK:   -5.53 KCAL/MOL
REMARK 923 INTER-LIGAND FREE ENERGY PREDICTED BY IDOCK:   -4.72 KCAL/MOL
REMARK 924 INTRA-LIGAND FREE ENERGY PREDICTED BY IDOCK:   -0.82 KCAL/MOL
REMARK 927      BINDING AFFINITY PREDICTED BY RF-SCORE:    0.00 PKD
ROOT
HETATM    1  N   UNL     1     -11.825   7.311  73.001  1.00  0.00    -0.504 NA 
HETATM    2  C   UNL     1     -11.072   6.322  72.387  1.00  0.00    -0.270 A  
HETATM    3  H1  UNL     1     -11.896   7.407  74.014  1.00  0.00     0.000 HD 
HETATM    4  H2  UNL     1     -12.775   7.244  72.634  1.00  0.00     0.000 HD 
HETATM    5  C   UNL     1     -10.974   6.189  70.993  1.00  0.00    -0.293 A  
HETATM    6  N   UNL     1     -11.534   6.902  69.959  1.00  0.00    -0.298 NA 
HETATM    7  C   UNL     1     -11.128   6.285  68.868  1.00  0.00    -0.362 A  
HETATM    8  N   UNL     1     -10.297   5.227  69.154  1.00  0.00    -0.216 NA 
HETATM    9  N   UNL     1     -10.426   5.426  73.167  1.00  0.00    -0.200 NA 
HETATM   10  C   UNL     1     -10.201   5.140  70.515  1.00  0.00    -0.260 A  
HETATM   11  N   UNL     1      -9.543   4.226  71.248  1.00  0.00    -0.160 NA 
HETATM   12  C   UNL     1      -9.700   4.461  72.568  1.00  0.00    -0.153 A  
ENDROOT
BRANCH   8  13
HETATM   13  C   UNL     1      -9.676   4.404  68.137  1.00  0.00    -0.119 C  
HETATM   14  C   UNL     1      -7.809   5.559  67.332  1.00  0.00    -0.101 C  
HETATM   15  C   UNL     1      -8.835   5.589  66.197  1.00  0.00    -0.139 C  
HETATM   16  O   UNL     1      -9.824   3.411  65.884  1.00  0.00    -0.395 OA 
HETATM   17  O   UNL     1      -8.250   4.551  68.270  1.00  0.00    -0.089 OA 
HETATM   18  C   UNL     1      -9.950   4.641  66.644  1.00  0.00    -0.236 C  
HETATM   19  H   UNL     1      -9.993   3.557  64.960  1.00  0.00     0.000 HD 
HETATM   20  O   UNL     1      -8.218   5.159  64.977  1.00  0.00    -0.117 OA 
HETATM   21  H   UNL     1      -8.855   5.178  64.272  1.00  0.00     0.000 HD 
BRANCH  14  22
HETATM   22  C   UNL     1      -7.705   6.938  67.997  1.00  0.00    -0.113 C  
BRANCH  22  23
HETATM   23  O   UNL     1      -8.434   7.914  67.262  1.00  0.00    -0.120 OA 
HETATM   24  P   UNL     1      -8.879   9.274  68.235  1.00  0.00    -0.128 P  
HETATM   25  O   UNL     1      -9.278  10.490  69.105  1.00  0.00    -0.181 OA 
HETATM   26  O   UNL     1      -7.415   9.870  67.835  1.00  0.00    -0.088 OA 
HETATM   27  O   UNL     1      -9.712   9.782  66.923  1.00  0.00    -0.174 OA 
ENDBRANCH  22  23
ENDBRANCH  14  22
ENDBRANCH   8  13
TORSDOF 3
ENDMDL
MODEL      161
REMARK 921   NORMALIZED FREE ENERGY PREDICTED BY IDOCK:   -4.26 KCAL/MOL
REMARK 922        TOTAL FREE ENERGY PREDICTED BY IDOCK:   -5.48 KCAL/MOL
REMARK 923 INTER-LIGAND FREE ENERGY PREDICTED BY IDOCK:   -4.78 KCAL/MOL
REMARK 924 INTRA-LIGAND FREE ENERGY PREDICTED BY IDOCK:   -0.70 KCAL/MOL
REMARK 927      BINDING AFFINITY PREDICTED BY RF-SCORE:    0.00 PKD
ROOT
HETATM    1  N   UNL     1      -8.649   2.580  71.683  1.00  0.00    -0.063 NA 
HETATM    2  C   UNL     1      -8.682   3.860  72.216  1.00  0.00    -0.105 A  
HETATM    3  H1  UNL     1      -8.848   1.744  72.232  1.00  0.00     0.000 HD 
HETATM    4  H2  UNL     1      -7.733   2.452  71.253  1.00  0.00     0.000 HD 
HETATM    5  C   UNL     1      -8.409   5.011  71.460  1.00  0.00    -0.119 A  
HETATM    6  N   UNL     1      -8.062   5.184  70.141  1.00  0.00    -0.081 NA 
HETATM    7  C   UNL     1      -7.879   6.483  70.011  1.00  0.00    -0.111 A  
HETATM    8  N   UNL     1      -8.134   7.158  71.182  1.00  0.00    -0.103 NA 
HETATM    9  N   UNL     1      -8.961   4.003  73.531  1.00  0.00    -0.099 NA 
HETATM   10  C   UNL     1      -8.459   6.227  72.128  1.00  0.00    -0.112 A  
HETATM   11  N   UNL     1      -8.730   6.419  73.430  1.00  0.00    -0.124 NA 
HETATM   12  C   UNL     1      -8.987   5.247  74.049  1.00  0.00    -0.119 A  
ENDROOT
BRANCH   8  13
HETATM   13  C   UNL     1      -8.051   8.598  71.304  1.00  0.00    -0.147 C  
HETATM   14  C   UNL     1     -10.181   9.470  70.889  1.00  0.00    -0.286 C  
HETATM   15  C   UNL     1      -9.329   9.867  69.681  1.00  0.00    -0.228 C  
HETATM   16  O   UNL     1      -7.188  10.721  70.391  1.00  0.00    -0.467 OA 
HETATM   17  O   UNL     1      -9.267   9.052  71.928  1.00  0.00    -0.353 OA 
HETATM   18  C   UNL     1      -7.895   9.496  70.067  1.00  0.00    -0.151 C  
HETATM   19  H   UNL     1      -7.091  11.276  69.626  1.00  0.00     0.000 HD 
HETATM   20  O   UNL     1      -9.474  11.269  69.427  1.00  0.00    -0.399 OA 
HETATM   21  H   UNL     1      -8.945  11.515  68.676  1.00  0.00     0.000 HD 
BRANCH  14  22
HETATM   22  C   UNL     1     -11.155   8.346  70.511  1.00  0.00    -0.252 C  
BRANCH  22  23
HETATM   23  O   UNL     1     -12.362   8.446  71.258  1.00  0.00    -0.305 OA 
HETATM   24  P   UNL     1     -12.796  10.088  71.592  1.00  0.00    -0.476 P  
HETATM   25  O   UNL     1     -13.183  11.556  71.891  1.00  0.00    -0.485 OA 
HETATM   26  O   UNL     1     -13.538  10.046  70.140  1.00  0.00     0.226 OA 
HETATM   27  O   UNL     1     -14.001   9.454  72.496  1.00  0.00    -0.419 OA 
ENDBRANCH  22  23
ENDBRANCH  14  22
ENDBRANCH   8  13
TORSDOF 3
ENDMDL
MODEL      162
REMARK 921   NORMALIZED FREE ENERGY PREDICTED BY IDOCK:   -4.25 KCAL/MOL
REMARK 922        TOTAL FREE ENERGY PREDICTED BY IDOCK:   -5.46 KCAL/MOL
REMARK 923 INTER-LIGAND FREE ENERGY PREDICTED BY IDOCK:   -4.91 KCAL/MOL
REMARK 924 INTRA-LIGAND FREE ENERGY PREDICTED BY IDOCK:   -0.55 KCAL/MOL
REMARK 927      BINDING AFFINITY PREDICTED BY RF-SCORE:    0.00 PKD
ROOT
HETATM    1  N   UNL     1      -9.656   9.187  65.094  1.00  0.00    -0.446 NA 
HETATM    2  C   UNL     1      -9.255   8.854  66.379  1.00  0.00    -0.189 A  
HETATM    3  H1  UNL     1      -9.576  10.131  64.714  1.00  0.00     0.000 HD 
HETATM    4  H2  UNL     1     -10.629   8.899  64.993  1.00  0.00     0.000 HD 
HETATM    5  C   UNL     1      -9.365   7.556  66.902  1.00  0.00    -0.157 A  
HETATM    6  N   UNL     1      -9.850   6.387  66.367  1.00  0.00    -0.113 NA 
HETATM    7  C   UNL     1      -9.748   5.504  67.341  1.00  0.00    -0.135 A  
HETATM    8  N   UNL     1      -9.180   6.048  68.469  1.00  0.00    -0.115 NA 
HETATM    9  N   UNL     1      -8.765   9.831  67.174  1.00  0.00    -0.132 NA 
HETATM   10  C   UNL     1      -8.943   7.369  68.211  1.00  0.00    -0.130 A  
HETATM   11  N   UNL     1      -8.450   8.306  69.039  1.00  0.00    -0.130 NA 
HETATM   12  C   UNL     1      -8.381   9.506  68.425  1.00  0.00    -0.118 A  
ENDROOT
BRANCH   8  13
HETATM   13  C   UNL     1      -8.913   5.288  69.672  1.00  0.00    -0.107 C  
HETATM   14  C   UNL     1     -10.721   5.594  71.122  1.00  0.00    -0.241 C  
HETATM   15  C   UNL     1      -9.552   6.354  71.753  1.00  0.00    -0.152 C  
HETATM   16  O   UNL     1      -7.544   5.018  71.706  1.00  0.00    -0.097 OA 
HETATM   17  O   UNL     1     -10.162   4.722  70.115  1.00  0.00    -0.249 OA 
HETATM   18  C   UNL     1      -8.328   5.957  70.925  1.00  0.00    -0.126 C  
HETATM   19  H   UNL     1      -7.182   5.432  72.481  1.00  0.00     0.000 HD 
HETATM   20  O   UNL     1      -9.418   5.977  73.129  1.00  0.00    -0.143 OA 
HETATM   21  H   UNL     1      -8.692   6.449  73.521  1.00  0.00     0.000 HD 
BRANCH  14  22
HETATM   22  C   UNL     1     -11.733   6.577  70.516  1.00  0.00    -0.375 C  
BRANCH  22  23
HETATM   23  O   UNL     1     -11.389   7.921  70.829  1.00  0.00    -0.273 OA 
HETATM   24  P   UNL     1     -12.634   8.729  71.719  1.00  0.00    -0.403 P  
HETATM   25  O   UNL     1     -13.748   9.452  72.514  1.00  0.00    -0.448 OA 
HETATM   26  O   UNL     1     -11.917   8.095  73.039  1.00  0.00    -0.269 OA 
HETATM   27  O   UNL     1     -11.707  10.066  71.560  1.00  0.00    -0.365 OA 
ENDBRANCH  22  23
ENDBRANCH  14  22
ENDBRANCH   8  13
TORSDOF 3
ENDMDL
MODEL      163
REMARK 921   NORMALIZED FREE ENERGY PREDICTED BY IDOCK:   -4.24 KCAL/MOL
REMARK 922        TOTAL FREE ENERGY PREDICTED BY IDOCK:   -5.45 KCAL/MOL
REMARK 923 INTER-LIGAND FREE ENERGY PREDICTED BY IDOCK:   -5.33 KCAL/MOL
REMARK 924 INTRA-LIGAND FREE ENERGY PREDICTED BY IDOCK:   -0.12 KCAL/MOL
REMARK 927      BINDING AFFINITY PREDICTED BY RF-SCORE:    0.00 PKD
ROOT
HETATM    1  N   UNL     1     -11.936  16.199  63.745  1.00  0.00    -1.338 NA 
HETATM    2  C   UNL     1     -11.792  14.842  63.989  1.00  0.00    -0.071 A  
HETATM    3  H1  UNL     1     -12.667  16.582  63.146  1.00  0.00     0.000 HD 
HETATM    4  H2  UNL     1     -11.042  16.542  63.391  1.00  0.00     0.000 HD 
HETATM    5  C   UNL     1     -10.785  14.315  64.814  1.00  0.00    -0.416 A  
HETATM    6  N   UNL     1      -9.769  14.913  65.521  1.00  0.00    -0.302 NA 
HETATM    7  C   UNL     1      -9.106  13.913  66.066  1.00  0.00     0.213 A  
HETATM    8  N   UNL     1      -9.678  12.697  65.771  1.00  0.00    -0.220 NA 
HETATM    9  N   UNL     1     -12.643  13.984  63.382  1.00  0.00    -0.736 NA 
HETATM   10  C   UNL     1     -10.747  12.935  64.954  1.00  0.00    -0.312 A  
HETATM   11  N   UNL     1     -11.568  12.044  64.372  1.00  0.00    -0.346 NA 
HETATM   12  C   UNL     1     -12.498  12.665  63.616  1.00  0.00    -0.427 A  
ENDROOT
BRANCH   8  13
HETATM   13  C   UNL     1      -9.175  11.437  66.278  1.00  0.00    -0.208 C  
HETATM   14  C   UNL     1      -8.926  11.652  68.593  1.00  0.00    -0.084 C  
HETATM   15  C   UNL     1      -7.505  11.600  68.028  1.00  0.00    -0.100 C  
HETATM   16  O   UNL     1      -7.300   9.837  66.394  1.00  0.00    -0.093 OA 
HETATM   17  O   UNL     1      -9.811  11.194  67.547  1.00  0.00    -0.174 OA 
HETATM   18  C   UNL     1      -7.677  11.230  66.553  1.00  0.00    -0.125 C  
HETATM   19  H   UNL     1      -6.374   9.709  66.564  1.00  0.00     0.000 HD 
HETATM   20  O   UNL     1      -6.735  10.625  68.743  1.00  0.00    -0.052 OA 
HETATM   21  H   UNL     1      -5.853  10.593  68.392  1.00  0.00     0.000 HD 
BRANCH  14  22
HETATM   22  C   UNL     1      -9.274  13.078  69.039  1.00  0.00     0.484 C  
BRANCH  22  23
HETATM   23  O   UNL     1     -10.675  13.311  68.959  1.00  0.00    -0.214 OA 
HETATM   24  P   UNL     1     -11.185  14.618  69.972  1.00  0.00    -0.111 P  
HETATM   25  O   UNL     1     -11.641  15.787  70.878  1.00  0.00    -0.336 OA 
HETATM   26  O   UNL     1     -10.817  15.570  68.699  1.00  0.00    -0.246 OA 
HETATM   27  O   UNL     1     -12.703  14.203  69.530  1.00  0.00    -0.119 OA 
ENDBRANCH  22  23
ENDBRANCH  14  22
ENDBRANCH   8  13
TORSDOF 3
ENDMDL
MODEL      164
REMARK 921   NORMALIZED FREE ENERGY PREDICTED BY IDOCK:   -4.22 KCAL/MOL
REMARK 922        TOTAL FREE ENERGY PREDICTED BY IDOCK:   -5.44 KCAL/MOL
REMARK 923 INTER-LIGAND FREE ENERGY PREDICTED BY IDOCK:   -4.67 KCAL/MOL
REMARK 924 INTRA-LIGAND FREE ENERGY PREDICTED BY IDOCK:   -0.76 KCAL/MOL
REMARK 927      BINDING AFFINITY PREDICTED BY RF-SCORE:    0.00 PKD
ROOT
HETATM    1  N   UNL     1     -10.487  18.756  67.559  1.00  0.00    -0.414 NA 
HETATM    2  C   UNL     1     -10.042  17.602  68.186  1.00  0.00    -0.347 A  
HETATM    3  H1  UNL     1     -11.323  19.261  67.853  1.00  0.00     0.000 HD 
HETATM    4  H2  UNL     1     -10.592  18.544  66.567  1.00  0.00     0.000 HD 
HETATM    5  C   UNL     1      -8.891  16.907  67.782  1.00  0.00    -0.217 A  
HETATM    6  N   UNL     1      -7.989  17.131  66.768  1.00  0.00    -0.213 NA 
HETATM    7  C   UNL     1      -7.148  16.120  66.839  1.00  0.00    -0.187 A  
HETATM    8  N   UNL     1      -7.447  15.274  67.881  1.00  0.00    -0.131 NA 
HETATM    9  N   UNL     1     -10.766  17.107  69.215  1.00  0.00    -0.245 NA 
HETATM   10  C   UNL     1      -8.573  15.755  68.487  1.00  0.00    -0.183 A  
HETATM   11  N   UNL     1      -9.260  15.224  69.513  1.00  0.00    -0.230 NA 
HETATM   12  C   UNL     1     -10.335  15.982  69.819  1.00  0.00    -0.265 A  
ENDROOT
BRANCH   8  13
HETATM   13  C   UNL     1      -6.657  14.106  68.210  1.00  0.00    -0.114 C  
HETATM   14  C   UNL     1      -7.586  12.279  67.086  1.00  0.00    -0.118 C  
HETATM   15  C   UNL     1      -7.905  12.058  68.566  1.00  0.00    -0.129 C  
HETATM   16  O   UNL     1      -5.960  12.478  69.929  1.00  0.00    -0.122 OA 
HETATM   17  O   UNL     1      -6.561  13.296  67.023  1.00  0.00    -0.102 OA 
HETATM   18  C   UNL     1      -7.100  13.127  69.309  1.00  0.00     0.086 C  
HETATM   19  H   UNL     1      -6.234  11.873  70.608  1.00  0.00     0.000 HD 
HETATM   20  O   UNL     1      -7.524  10.732  68.950  1.00  0.00    -0.097 OA 
HETATM   21  H   UNL     1      -7.722  10.595  69.869  1.00  0.00     0.000 HD 
BRANCH  14  22
HETATM   22  C   UNL     1      -8.849  12.706  66.324  1.00  0.00     0.106 C  
BRANCH  22  23
HETATM   23  O   UNL     1      -9.950  12.865  67.210  1.00  0.00    -0.219 OA 
HETATM   24  P   UNL     1     -11.288  13.665  66.459  1.00  0.00    -0.346 P  
HETATM   25  O   UNL     1     -12.486  14.380  65.788  1.00  0.00    -0.396 OA 
HETATM   26  O   UNL     1     -11.729  12.174  65.965  1.00  0.00    -0.434 OA 
HETATM   27  O   UNL     1     -11.975  13.638  67.943  1.00  0.00    -0.358 OA 
ENDBRANCH  22  23
ENDBRANCH  14  22
ENDBRANCH   8  13
TORSDOF 3
ENDMDL
MODEL      165
REMARK 921   NORMALIZED FREE ENERGY PREDICTED BY IDOCK:   -4.22 KCAL/MOL
REMARK 922        TOTAL FREE ENERGY PREDICTED BY IDOCK:   -5.43 KCAL/MOL
REMARK 923 INTER-LIGAND FREE ENERGY PREDICTED BY IDOCK:   -6.28 KCAL/MOL
REMARK 924 INTRA-LIGAND FREE ENERGY PREDICTED BY IDOCK:    0.85 KCAL/MOL
REMARK 927      BINDING AFFINITY PREDICTED BY RF-SCORE:    0.00 PKD
ROOT
HETATM    1  N   UNL     1     -13.895   8.440  72.780  1.00  0.00    -0.628 NA 
HETATM    2  C   UNL     1     -12.861   8.127  71.910  1.00  0.00    -0.335 A  
HETATM    3  H1  UNL     1     -14.371   7.742  73.351  1.00  0.00     0.000 HD 
HETATM    4  H2  UNL     1     -14.608   8.932  72.242  1.00  0.00     0.000 HD 
HETATM    5  C   UNL     1     -12.205   9.088  71.124  1.00  0.00    -0.275 A  
HETATM    6  N   UNL     1     -12.381  10.444  70.993  1.00  0.00    -0.351 NA 
HETATM    7  C   UNL     1     -11.513  10.807  70.069  1.00  0.00    -0.331 A  
HETATM    8  N   UNL     1     -10.758   9.746  69.628  1.00  0.00    -0.229 NA 
HETATM    9  N   UNL     1     -12.488   6.833  71.792  1.00  0.00    -0.363 NA 
HETATM   10  C   UNL     1     -11.200   8.630  70.282  1.00  0.00    -0.184 A  
HETATM   11  N   UNL     1     -10.795   7.358  70.130  1.00  0.00    -0.252 NA 
HETATM   12  C   UNL     1     -11.487   6.530  70.942  1.00  0.00    -0.351 A  
ENDROOT
BRANCH   8  13
HETATM   13  C   UNL     1      -9.703   9.873  68.646  1.00  0.00    -0.157 C  
HETATM   14  C   UNL     1      -9.776  12.053  67.803  1.00  0.00    -0.192 C  
HETATM   15  C   UNL     1     -10.260  11.154  66.664  1.00  0.00    -0.232 C  
HETATM   16  O   UNL     1      -8.827   9.227  66.431  1.00  0.00    -0.137 OA 
HETATM   17  O   UNL     1      -9.143  11.194  68.778  1.00  0.00    -0.177 OA 
HETATM   18  C   UNL     1      -9.990   9.726  67.144  1.00  0.00    -0.198 C  
HETATM   19  H   UNL     1      -9.005   9.135  65.502  1.00  0.00     0.000 HD 
HETATM   20  O   UNL     1      -9.543  11.465  65.464  1.00  0.00    -0.218 OA 
HETATM   21  H   UNL     1      -9.843  10.906  64.756  1.00  0.00     0.000 HD 
BRANCH  14  22
HETATM   22  C   UNL     1     -10.954  12.824  68.415  1.00  0.00    -0.254 C  
BRANCH  22  23
HETATM   23  O   UNL     1     -10.892  14.204  68.074  1.00  0.00    -0.240 OA 
HETATM   24  P   UNL     1     -11.019  15.231  69.462  1.00  0.00    -0.321 P  
HETATM   25  O   UNL     1     -11.133  16.149  70.702  1.00  0.00    -0.349 OA 
HETATM   26  O   UNL     1      -9.402  15.048  69.578  1.00  0.00    -0.164 OA 
HETATM   27  O   UNL     1     -11.044  16.465  68.390  1.00  0.00    -0.343 OA 
ENDBRANCH  22  23
ENDBRANCH  14  22
ENDBRANCH   8  13
TORSDOF 3
ENDMDL
MODEL      166
REMARK 921   NORMALIZED FREE ENERGY PREDICTED BY IDOCK:   -4.20 KCAL/MOL
REMARK 922        TOTAL FREE ENERGY PREDICTED BY IDOCK:   -5.40 KCAL/MOL
REMARK 923 INTER-LIGAND FREE ENERGY PREDICTED BY IDOCK:   -6.19 KCAL/MOL
REMARK 924 INTRA-LIGAND FREE ENERGY PREDICTED BY IDOCK:    0.79 KCAL/MOL
REMARK 927      BINDING AFFINITY PREDICTED BY RF-SCORE:    0.00 PKD
ROOT
HETATM    1  N   UNL     1     -12.624  14.930  63.781  1.00  0.00    -0.981 NA 
HETATM    2  C   UNL     1     -11.535  14.954  64.639  1.00  0.00    -0.379 A  
HETATM    3  H1  UNL     1     -13.110  15.773  63.476  1.00  0.00     0.000 HD 
HETATM    4  H2  UNL     1     -13.321  14.307  64.189  1.00  0.00     0.000 HD 
HETATM    5  C   UNL     1     -10.866  13.793  65.058  1.00  0.00    -0.371 A  
HETATM    6  N   UNL     1     -11.074  12.462  64.786  1.00  0.00    -0.294 NA 
HETATM    7  C   UNL     1     -10.168  11.827  65.502  1.00  0.00    -0.252 A  
HETATM    8  N   UNL     1      -9.359  12.697  66.195  1.00  0.00    -0.168 NA 
HETATM    9  N   UNL     1     -11.117  16.147  65.117  1.00  0.00    -0.299 NA 
HETATM   10  C   UNL     1      -9.803  13.963  65.935  1.00  0.00    -0.267 A  
HETATM   11  N   UNL     1      -9.352  15.126  66.437  1.00  0.00    -0.281 NA 
HETATM   12  C   UNL     1     -10.062  16.168  65.956  1.00  0.00    -0.351 A  
ENDROOT
BRANCH   8  13
HETATM   13  C   UNL     1      -8.255  12.266  67.026  1.00  0.00    -0.155 C  
HETATM   14  C   UNL     1      -8.621  10.027  67.590  1.00  0.00    -0.118 C  
HETATM   15  C   UNL     1      -8.838  10.819  68.882  1.00  0.00    -0.150 C  
HETATM   16  O   UNL     1      -7.082  12.445  69.190  1.00  0.00    -0.232 OA 
HETATM   17  O   UNL     1      -7.943  10.907  66.666  1.00  0.00    -0.135 OA 
HETATM   18  C   UNL     1      -8.373  12.241  68.558  1.00  0.00    -0.084 C  
HETATM   19  H   UNL     1      -7.156  12.429  70.137  1.00  0.00     0.000 HD 
HETATM   20  O   UNL     1      -8.077  10.231  69.943  1.00  0.00    -0.292 OA 
HETATM   21  H   UNL     1      -8.212  10.723  70.745  1.00  0.00     0.000 HD 
BRANCH  14  22
HETATM   22  C   UNL     1      -9.965   9.546  67.025  1.00  0.00    -0.213 C  
BRANCH  22  23
HETATM   23  O   UNL     1     -10.567   8.589  67.888  1.00  0.00    -0.220 OA 
HETATM   24  P   UNL     1     -10.441   6.976  67.274  1.00  0.00    -0.351 P  
HETATM   25  O   UNL     1     -10.329   5.534  66.724  1.00  0.00    -0.214 OA 
HETATM   26  O   UNL     1      -8.995   6.946  68.028  1.00  0.00    -0.123 OA 
HETATM   27  O   UNL     1     -11.382   6.553  68.542  1.00  0.00    -0.258 OA 
ENDBRANCH  22  23
ENDBRANCH  14  22
ENDBRANCH   8  13
TORSDOF 3
ENDMDL
MODEL      167
REMARK 921   NORMALIZED FREE ENERGY PREDICTED BY IDOCK:   -4.19 KCAL/MOL
REMARK 922        TOTAL FREE ENERGY PREDICTED BY IDOCK:   -5.39 KCAL/MOL
REMARK 923 INTER-LIGAND FREE ENERGY PREDICTED BY IDOCK:   -5.97 KCAL/MOL
REMARK 924 INTRA-LIGAND FREE ENERGY PREDICTED BY IDOCK:    0.58 KCAL/MOL
REMARK 927      BINDING AFFINITY PREDICTED BY RF-SCORE:    0.00 PKD
ROOT
HETATM    1  N   UNL     1     -13.574  11.618  72.454  1.00  0.00    -0.427 NA 
HETATM    2  C   UNL     1     -13.199  12.756  71.755  1.00  0.00    -0.374 A  
HETATM    3  H1  UNL     1     -14.046  11.651  73.357  1.00  0.00     0.000 HD 
HETATM    4  H2  UNL     1     -12.741  11.040  72.566  1.00  0.00     0.000 HD 
HETATM    5  C   UNL     1     -12.549  12.711  70.512  1.00  0.00    -0.100 A  
HETATM    6  N   UNL     1     -12.135  11.661  69.728  1.00  0.00    -0.303 NA 
HETATM    7  C   UNL     1     -11.536  12.226  68.699  1.00  0.00    -0.323 A  
HETATM    8  N   UNL     1     -11.582  13.599  68.768  1.00  0.00    -0.299 NA 
HETATM    9  N   UNL     1     -13.444  13.963  72.312  1.00  0.00    -0.477 NA 
HETATM   10  C   UNL     1     -12.214  13.928  69.935  1.00  0.00    -0.333 A  
HETATM   11  N   UNL     1     -12.436  15.150  70.448  1.00  0.00    -0.358 NA 
HETATM   12  C   UNL     1     -13.074  15.068  71.634  1.00  0.00    -0.364 A  
ENDROOT
BRANCH   8  13
HETATM   13  C   UNL     1     -11.037  14.466  67.746  1.00  0.00    -0.287 C  
HETATM   14  C   UNL     1      -9.402  13.260  66.588  1.00  0.00    -0.242 C  
HETATM   15  C   UNL     1      -8.642  14.310  67.402  1.00  0.00    -0.213 C  
HETATM   16  O   UNL     1      -9.700  16.469  67.208  1.00  0.00    -0.240 OA 
HETATM   17  O   UNL     1     -10.791  13.661  66.577  1.00  0.00    -0.282 OA 
HETATM   18  C   UNL     1      -9.724  15.233  67.968  1.00  0.00    -0.211 C  
HETATM   19  H   UNL     1      -8.888  16.943  67.345  1.00  0.00     0.000 HD 
HETATM   20  O   UNL     1      -7.726  15.010  66.552  1.00  0.00    -0.211 OA 
HETATM   21  H   UNL     1      -7.254  15.662  67.057  1.00  0.00     0.000 HD 
BRANCH  14  22
HETATM   22  C   UNL     1      -9.223  11.868  67.210  1.00  0.00    -0.179 C  
BRANCH  22  23
HETATM   23  O   UNL     1      -8.188  11.146  66.554  1.00  0.00    -0.158 OA 
HETATM   24  P   UNL     1      -8.506   9.446  66.496  1.00  0.00    -0.136 P  
HETATM   25  O   UNL     1      -8.790   7.925  66.445  1.00  0.00    -0.142 OA 
HETATM   26  O   UNL     1      -9.325   9.782  65.126  1.00  0.00    -0.225 OA 
HETATM   27  O   UNL     1      -7.008   9.315  65.854  1.00  0.00    -0.086 OA 
ENDBRANCH  22  23
ENDBRANCH  14  22
ENDBRANCH   8  13
TORSDOF 3
ENDMDL
MODEL      168
REMARK 921   NORMALIZED FREE ENERGY PREDICTED BY IDOCK:   -4.19 KCAL/MOL
REMARK 922        TOTAL FREE ENERGY PREDICTED BY IDOCK:   -5.39 KCAL/MOL
REMARK 923 INTER-LIGAND FREE ENERGY PREDICTED BY IDOCK:   -5.08 KCAL/MOL
REMARK 924 INTRA-LIGAND FREE ENERGY PREDICTED BY IDOCK:   -0.31 KCAL/MOL
REMARK 927      BINDING AFFINITY PREDICTED BY RF-SCORE:    0.00 PKD
ROOT
HETATM    1  N   UNL     1     -10.865  11.113  63.084  1.00  0.00    -0.820 NA 
HETATM    2  C   UNL     1      -9.830  10.552  63.817  1.00  0.00    -0.300 A  
HETATM    3  H1  UNL     1     -11.045  10.879  62.108  1.00  0.00     0.000 HD 
HETATM    4  H2  UNL     1     -10.766  12.127  63.142  1.00  0.00     0.000 HD 
HETATM    5  C   UNL     1      -9.581  10.874  65.160  1.00  0.00    -0.243 A  
HETATM    6  N   UNL     1     -10.204  11.737  66.030  1.00  0.00    -0.222 NA 
HETATM    7  C   UNL     1      -9.499  11.661  67.141  1.00  0.00    -0.176 A  
HETATM    8  N   UNL     1      -8.470  10.754  67.035  1.00  0.00    -0.126 NA 
HETATM    9  N   UNL     1      -9.003   9.678  63.199  1.00  0.00    -0.246 NA 
HETATM   10  C   UNL     1      -8.497  10.251  65.765  1.00  0.00    -0.157 A  
HETATM   11  N   UNL     1      -7.649   9.378  65.194  1.00  0.00    -0.106 NA 
HETATM   12  C   UNL     1      -7.994   9.139  63.911  1.00  0.00    -0.142 A  
ENDROOT
BRANCH   8  13
HETATM   13  C   UNL     1      -7.567  10.444  68.124  1.00  0.00    -0.091 C  
HETATM   14  C   UNL     1      -8.335   8.489  69.150  1.00  0.00    -0.120 C  
HETATM   15  C   UNL     1      -8.608   9.614  70.150  1.00  0.00    -0.214 C  
HETATM   16  O   UNL     1      -6.691  11.065  70.345  1.00  0.00    -0.450 OA 
HETATM   17  O   UNL     1      -7.413   9.013  68.168  1.00  0.00    -0.083 OA 
HETATM   18  C   UNL     1      -7.898  10.840  69.571  1.00  0.00    -0.035 C  
HETATM   19  H   UNL     1      -6.895  11.310  71.240  1.00  0.00     0.000 HD 
HETATM   20  O   UNL     1      -8.096   9.252  71.437  1.00  0.00    -0.330 OA 
HETATM   21  H   UNL     1      -8.265   9.951  72.059  1.00  0.00     0.000 HD 
BRANCH  14  22
HETATM   22  C   UNL     1      -9.644   8.021  68.499  1.00  0.00    -0.155 C  
BRANCH  22  23
HETATM   23  O   UNL     1     -10.539   7.497  69.473  1.00  0.00    -0.233 OA 
HETATM   24  P   UNL     1     -10.252   5.822  69.797  1.00  0.00    -0.289 P  
HETATM   25  O   UNL     1      -9.996   4.323  70.086  1.00  0.00    -0.220 OA 
HETATM   26  O   UNL     1      -9.164   6.357  70.888  1.00  0.00    -0.156 OA 
HETATM   27  O   UNL     1     -11.590   5.903  70.733  1.00  0.00    -0.168 OA 
ENDBRANCH  22  23
ENDBRANCH  14  22
ENDBRANCH   8  13
TORSDOF 3
ENDMDL
MODEL      169
REMARK 921   NORMALIZED FREE ENERGY PREDICTED BY IDOCK:   -4.16 KCAL/MOL
REMARK 922        TOTAL FREE ENERGY PREDICTED BY IDOCK:   -5.36 KCAL/MOL
REMARK 923 INTER-LIGAND FREE ENERGY PREDICTED BY IDOCK:   -5.36 KCAL/MOL
REMARK 924 INTRA-LIGAND FREE ENERGY PREDICTED BY IDOCK:   -0.01 KCAL/MOL
REMARK 927      BINDING AFFINITY PREDICTED BY RF-SCORE:    0.00 PKD
ROOT
HETATM    1  N   UNL     1     -14.410   8.328  71.945  1.00  0.00    -0.454 NA 
HETATM    2  C   UNL     1     -13.103   7.983  71.636  1.00  0.00    -0.329 A  
HETATM    3  H1  UNL     1     -15.095   7.657  72.291  1.00  0.00     0.000 HD 
HETATM    4  H2  UNL     1     -14.812   8.775  71.120  1.00  0.00     0.000 HD 
HETATM    5  C   UNL     1     -12.160   8.908  71.159  1.00  0.00    -0.277 A  
HETATM    6  N   UNL     1     -12.248  10.251  70.882  1.00  0.00    -0.334 NA 
HETATM    7  C   UNL     1     -11.060  10.575  70.411  1.00  0.00    -0.244 A  
HETATM    8  N   UNL     1     -10.199   9.502  70.410  1.00  0.00    -0.260 NA 
HETATM    9  N   UNL     1     -12.729   6.691  71.771  1.00  0.00    -0.315 NA 
HETATM   10  C   UNL     1     -10.893   8.419  70.870  1.00  0.00    -0.231 A  
HETATM   11  N   UNL     1     -10.475   7.148  70.988  1.00  0.00    -0.215 NA 
HETATM   12  C   UNL     1     -11.460   6.357  71.464  1.00  0.00    -0.306 A  
ENDROOT
BRANCH   8  13
HETATM   13  C   UNL     1      -8.818   9.591  69.982  1.00  0.00    -0.223 C  
HETATM   14  C   UNL     1      -8.799  10.493  67.825  1.00  0.00    -0.125 C  
HETATM   15  C   UNL     1      -8.398   9.026  67.662  1.00  0.00    -0.117 C  
HETATM   16  O   UNL     1      -6.761   8.400  69.320  1.00  0.00    -0.045 OA 
HETATM   17  O   UNL     1      -8.673  10.810  69.230  1.00  0.00    -0.131 OA 
HETATM   18  C   UNL     1      -8.190   8.511  69.089  1.00  0.00    -0.119 C  
HETATM   19  H   UNL     1      -6.372   7.732  68.768  1.00  0.00     0.000 HD 
HETATM   20  O   UNL     1      -7.204   8.935  66.876  1.00  0.00    -0.081 OA 
HETATM   21  H   UNL     1      -6.955   8.024  66.775  1.00  0.00     0.000 HD 
BRANCH  14  22
HETATM   22  C   UNL     1     -10.233  10.716  67.325  1.00  0.00    -0.208 C  
BRANCH  22  23
HETATM   23  O   UNL     1     -10.280  11.760  66.360  1.00  0.00    -0.207 OA 
HETATM   24  P   UNL     1     -11.024  13.195  66.979  1.00  0.00    -0.282 P  
HETATM   25  O   UNL     1     -11.690  14.478  67.533  1.00  0.00    -0.360 OA 
HETATM   26  O   UNL     1      -9.532  13.575  67.517  1.00  0.00    -0.209 OA 
HETATM   27  O   UNL     1     -10.885  13.773  65.457  1.00  0.00    -0.287 OA 
ENDBRANCH  22  23
ENDBRANCH  14  22
ENDBRANCH   8  13
TORSDOF 3
ENDMDL
MODEL      170
REMARK 921   NORMALIZED FREE ENERGY PREDICTED BY IDOCK:   -4.15 KCAL/MOL
REMARK 922        TOTAL FREE ENERGY PREDICTED BY IDOCK:   -5.35 KCAL/MOL
REMARK 923 INTER-LIGAND FREE ENERGY PREDICTED BY IDOCK:   -4.94 KCAL/MOL
REMARK 924 INTRA-LIGAND FREE ENERGY PREDICTED BY IDOCK:   -0.41 KCAL/MOL
REMARK 927      BINDING AFFINITY PREDICTED BY RF-SCORE:    0.00 PKD
ROOT
HETATM    1  N   UNL     1      -9.651  14.506  69.222  1.00  0.00    -0.410 NA 
HETATM    2  C   UNL     1      -9.138  13.515  68.399  1.00  0.00    -0.155 A  
HETATM    3  H1  UNL     1      -9.104  15.308  69.534  1.00  0.00     0.000 HD 
HETATM    4  H2  UNL     1     -10.024  14.049  70.054  1.00  0.00     0.000 HD 
HETATM    5  C   UNL     1      -9.892  12.411  67.969  1.00  0.00    -0.205 A  
HETATM    6  N   UNL     1     -11.189  12.031  68.216  1.00  0.00    -0.239 NA 
HETATM    7  C   UNL     1     -11.326  10.879  67.591  1.00  0.00    -0.270 A  
HETATM    8  N   UNL     1     -10.182  10.520  66.918  1.00  0.00    -0.220 NA 
HETATM    9  N   UNL     1      -7.844  13.600  68.017  1.00  0.00    -0.135 NA 
HETATM   10  C   UNL     1      -9.244  11.484  67.164  1.00  0.00    -0.169 A  
HETATM   11  N   UNL     1      -7.963  11.525  66.760  1.00  0.00    -0.160 NA 
HETATM   12  C   UNL     1      -7.345  12.632  67.223  1.00  0.00    -0.104 A  
ENDROOT
BRANCH   8  13
HETATM   13  C   UNL     1     -10.073   9.321  66.114  1.00  0.00    -0.233 C  
HETATM   14  C   UNL     1      -9.607   7.540  67.555  1.00  0.00    -0.142 C  
HETATM   15  C   UNL     1      -8.320   7.776  66.761  1.00  0.00    -0.125 C  
HETATM   16  O   UNL     1      -8.805   8.058  64.415  1.00  0.00    -0.370 OA 
HETATM   17  O   UNL     1     -10.664   8.241  66.862  1.00  0.00    -0.299 OA 
HETATM   18  C   UNL     1      -8.705   8.779  65.671  1.00  0.00    -0.184 C  
HETATM   19  H   UNL     1      -7.959   7.723  64.141  1.00  0.00     0.000 HD 
HETATM   20  O   UNL     1      -7.855   6.537  66.215  1.00  0.00    -0.100 OA 
HETATM   21  H   UNL     1      -7.055   6.684  65.722  1.00  0.00     0.000 HD 
BRANCH  14  22
HETATM   22  C   UNL     1      -9.448   8.044  68.996  1.00  0.00    -0.151 C  
BRANCH  22  23
HETATM   23  O   UNL     1      -9.575   6.976  69.927  1.00  0.00    -0.160 OA 
HETATM   24  P   UNL     1     -10.806   7.273  71.106  1.00  0.00    -0.251 P  
HETATM   25  O   UNL     1     -11.907   7.539  72.162  1.00  0.00    -0.287 OA 
HETATM   26  O   UNL     1     -11.824   6.620  70.012  1.00  0.00    -0.372 OA 
HETATM   27  O   UNL     1     -10.291   5.891  71.810  1.00  0.00    -0.204 OA 
ENDBRANCH  22  23
ENDBRANCH  14  22
ENDBRANCH   8  13
TORSDOF 3
ENDMDL
MODEL      171
REMARK 921   NORMALIZED FREE ENERGY PREDICTED BY IDOCK:   -4.14 KCAL/MOL
REMARK 922        TOTAL FREE ENERGY PREDICTED BY IDOCK:   -5.33 KCAL/MOL
REMARK 923 INTER-LIGAND FREE ENERGY PREDICTED BY IDOCK:   -4.82 KCAL/MOL
REMARK 924 INTRA-LIGAND FREE ENERGY PREDICTED BY IDOCK:   -0.52 KCAL/MOL
REMARK 927      BINDING AFFINITY PREDICTED BY RF-SCORE:    0.00 PKD
ROOT
HETATM    1  N   UNL     1     -12.438  13.861  69.922  1.00  0.00    -0.314 NA 
HETATM    2  C   UNL     1     -11.985  12.952  68.977  1.00  0.00    -0.251 A  
HETATM    3  H1  UNL     1     -12.744  14.804  69.683  1.00  0.00     0.000 HD 
HETATM    4  H2  UNL     1     -11.713  13.948  70.635  1.00  0.00     0.000 HD 
HETATM    5  C   UNL     1     -11.562  11.654  69.306  1.00  0.00    -0.320 A  
HETATM    6  N   UNL     1     -11.474  10.992  70.507  1.00  0.00    -0.246 NA 
HETATM    7  C   UNL     1     -10.958   9.817  70.206  1.00  0.00    -0.298 A  
HETATM    8  N   UNL     1     -10.748   9.681  68.853  1.00  0.00    -0.219 NA 
HETATM    9  N   UNL     1     -11.918  13.345  67.685  1.00  0.00    -0.344 NA 
HETATM   10  C   UNL     1     -11.114  10.857  68.262  1.00  0.00    -0.266 A  
HETATM   11  N   UNL     1     -11.030  11.202  66.965  1.00  0.00    -0.288 NA 
HETATM   12  C   UNL     1     -11.472  12.462  66.770  1.00  0.00    -0.362 A  
ENDROOT
BRANCH   8  13
HETATM   13  C   UNL     1     -10.230   8.473  68.246  1.00  0.00    -0.205 C  
HETATM   14  C   UNL     1      -7.900   8.527  68.433  1.00  0.00    -0.106 C  
HETATM   15  C   UNL     1      -8.200   8.736  66.947  1.00  0.00    -0.108 C  
HETATM   16  O   UNL     1      -9.866   7.167  66.184  1.00  0.00    -0.425 OA 
HETATM   17  O   UNL     1      -9.113   8.031  69.042  1.00  0.00    -0.144 OA 
HETATM   18  C   UNL     1      -9.700   8.470  66.804  1.00  0.00    -0.236 C  
HETATM   19  H   UNL     1      -9.538   7.165  65.292  1.00  0.00     0.000 HD 
HETATM   20  O   UNL     1      -7.413   7.832  66.163  1.00  0.00    -0.076 OA 
HETATM   21  H   UNL     1      -7.599   7.962  65.241  1.00  0.00     0.000 HD 
BRANCH  14  22
HETATM   22  C   UNL     1      -7.445   9.843  69.079  1.00  0.00    -0.083 C  
BRANCH  22  23
HETATM   23  O   UNL     1      -6.867  10.712  68.112  1.00  0.00    -0.067 OA 
HETATM   24  P   UNL     1      -6.911  12.370  68.607  1.00  0.00    -0.094 P  
HETATM   25  O   UNL     1      -6.950  13.852  69.049  1.00  0.00    -0.108 OA 
HETATM   26  O   UNL     1      -5.499  12.044  69.356  1.00  0.00    -0.060 OA 
HETATM   27  O   UNL     1      -6.321  12.699  67.118  1.00  0.00    -0.195 OA 
ENDBRANCH  22  23
ENDBRANCH  14  22
ENDBRANCH   8  13
TORSDOF 3
ENDMDL
MODEL      172
REMARK 921   NORMALIZED FREE ENERGY PREDICTED BY IDOCK:   -4.12 KCAL/MOL
REMARK 922        TOTAL FREE ENERGY PREDICTED BY IDOCK:   -5.32 KCAL/MOL
REMARK 923 INTER-LIGAND FREE ENERGY PREDICTED BY IDOCK:   -6.22 KCAL/MOL
REMARK 924 INTRA-LIGAND FREE ENERGY PREDICTED BY IDOCK:    0.91 KCAL/MOL
REMARK 927      BINDING AFFINITY PREDICTED BY RF-SCORE:    0.00 PKD
ROOT
HETATM    1  N   UNL     1     -11.994  10.221  70.448  1.00  0.00    -0.304 NA 
HETATM    2  C   UNL     1     -11.926  11.435  69.781  1.00  0.00    -0.353 A  
HETATM    3  H1  UNL     1     -12.279  10.139  71.424  1.00  0.00     0.000 HD 
HETATM    4  H2  UNL     1     -11.084   9.771  70.357  1.00  0.00     0.000 HD 
HETATM    5  C   UNL     1     -11.534  11.549  68.438  1.00  0.00    -0.298 A  
HETATM    6  N   UNL     1     -11.142  10.612  67.511  1.00  0.00    -0.312 NA 
HETATM    7  C   UNL     1     -10.842  11.310  66.435  1.00  0.00    -0.251 A  
HETATM    8  N   UNL     1     -11.063  12.656  66.617  1.00  0.00    -0.263 NA 
HETATM    9  N   UNL     1     -12.220  12.564  70.465  1.00  0.00    -0.352 NA 
HETATM   10  C   UNL     1     -11.491  12.829  67.903  1.00  0.00    -0.317 A  
HETATM   11  N   UNL     1     -11.773  13.978  68.541  1.00  0.00    -0.332 NA 
HETATM   12  C   UNL     1     -12.147  13.743  69.817  1.00  0.00    -0.340 A  
ENDROOT
BRANCH   8  13
HETATM   13  C   UNL     1     -10.855  13.644  65.579  1.00  0.00    -0.294 C  
HETATM   14  C   UNL     1      -9.411  15.274  66.430  1.00  0.00    -0.298 C  
HETATM   15  C   UNL     1     -10.780  15.950  66.323  1.00  0.00    -0.261 C  
HETATM   16  O   UNL     1     -11.814  15.452  64.202  1.00  0.00    -0.791 OA 
HETATM   17  O   UNL     1      -9.479  14.062  65.646  1.00  0.00    -0.118 OA 
HETATM   18  C   UNL     1     -11.655  14.955  65.556  1.00  0.00    -0.263 C  
HETATM   19  H   UNL     1     -12.309  16.263  64.188  1.00  0.00     0.000 HD 
HETATM   20  O   UNL     1     -10.651  17.199  65.634  1.00  0.00    -0.492 OA 
HETATM   21  H   UNL     1     -11.501  17.618  65.568  1.00  0.00     0.000 HD 
BRANCH  14  22
HETATM   22  C   UNL     1      -9.073  14.977  67.897  1.00  0.00    -0.180 C  
BRANCH  22  23
HETATM   23  O   UNL     1      -7.744  14.483  68.024  1.00  0.00    -0.113 OA 
HETATM   24  P   UNL     1      -7.700  12.867  68.643  1.00  0.00     0.058 P  
HETATM   25  O   UNL     1      -7.659  11.423  69.196  1.00  0.00    -0.113 OA 
HETATM   26  O   UNL     1      -7.865  12.410  67.086  1.00  0.00    -0.170 OA 
HETATM   27  O   UNL     1      -6.076  13.055  68.666  1.00  0.00    -0.066 OA 
ENDBRANCH  22  23
ENDBRANCH  14  22
ENDBRANCH   8  13
TORSDOF 3
ENDMDL
MODEL      173
REMARK 921   NORMALIZED FREE ENERGY PREDICTED BY IDOCK:   -4.12 KCAL/MOL
REMARK 922        TOTAL FREE ENERGY PREDICTED BY IDOCK:   -5.31 KCAL/MOL
REMARK 923 INTER-LIGAND FREE ENERGY PREDICTED BY IDOCK:   -4.67 KCAL/MOL
REMARK 924 INTRA-LIGAND FREE ENERGY PREDICTED BY IDOCK:   -0.64 KCAL/MOL
REMARK 927      BINDING AFFINITY PREDICTED BY RF-SCORE:    0.00 PKD
ROOT
HETATM    1  N   UNL     1      -8.774   5.655  69.440  1.00  0.00    -0.108 NA 
HETATM    2  C   UNL     1      -8.198   6.461  68.469  1.00  0.00    -0.113 A  
HETATM    3  H1  UNL     1      -8.235   5.012  70.020  1.00  0.00     0.000 HD 
HETATM    4  H2  UNL     1      -9.511   5.113  68.988  1.00  0.00     0.000 HD 
HETATM    5  C   UNL     1      -8.940   7.345  67.670  1.00  0.00    -0.126 A  
HETATM    6  N   UNL     1     -10.284   7.627  67.614  1.00  0.00    -0.197 NA 
HETATM    7  C   UNL     1     -10.402   8.500  66.633  1.00  0.00    -0.233 A  
HETATM    8  N   UNL     1      -9.184   8.822  66.082  1.00  0.00    -0.200 NA 
HETATM    9  N   UNL     1      -6.865   6.368  68.263  1.00  0.00    -0.068 NA 
HETATM   10  C   UNL     1      -8.235   8.077  66.724  1.00  0.00    -0.111 A  
HETATM   11  N   UNL     1      -6.914   8.019  66.482  1.00  0.00    -0.070 NA 
HETATM   12  C   UNL     1      -6.308   7.148  67.315  1.00  0.00    -0.049 A  
ENDROOT
BRANCH   8  13
HETATM   13  C   UNL     1      -9.023   9.789  65.016  1.00  0.00    -0.207 C  
HETATM   14  C   UNL     1      -9.042  11.919  65.980  1.00  0.00    -0.119 C  
HETATM   15  C   UNL     1     -10.361  11.801  65.212  1.00  0.00    -0.274 C  
HETATM   16  O   UNL     1      -9.989  10.868  63.019  1.00  0.00    -0.401 OA 
HETATM   17  O   UNL     1      -8.188  10.851  65.515  1.00  0.00    -0.143 OA 
HETATM   18  C   UNL     1     -10.235  10.508  64.403  1.00  0.00    -0.267 C  
HETATM   19  H   UNL     1     -10.739  11.313  62.640  1.00  0.00     0.000 HD 
HETATM   20  O   UNL     1     -10.535  12.948  64.372  1.00  0.00    -0.362 OA 
HETATM   21  H   UNL     1     -11.353  12.876  63.895  1.00  0.00     0.000 HD 
BRANCH  14  22
HETATM   22  C   UNL     1      -9.293  11.820  67.492  1.00  0.00    -0.174 C  
BRANCH  22  23
HETATM   23  O   UNL     1     -10.631  11.421  67.762  1.00  0.00    -0.182 OA 
HETATM   24  P   UNL     1     -11.331  12.310  69.071  1.00  0.00    -0.284 P  
HETATM   25  O   UNL     1     -11.957  13.104  70.243  1.00  0.00    -0.335 OA 
HETATM   26  O   UNL     1     -11.744  13.403  67.932  1.00  0.00    -0.320 OA 
HETATM   27  O   UNL     1     -12.607  11.301  68.909  1.00  0.00    -0.327 OA 
ENDBRANCH  22  23
ENDBRANCH  14  22
ENDBRANCH   8  13
TORSDOF 3
ENDMDL
MODEL      174
REMARK 921   NORMALIZED FREE ENERGY PREDICTED BY IDOCK:   -4.11 KCAL/MOL
REMARK 922        TOTAL FREE ENERGY PREDICTED BY IDOCK:   -5.30 KCAL/MOL
REMARK 923 INTER-LIGAND FREE ENERGY PREDICTED BY IDOCK:   -5.13 KCAL/MOL
REMARK 924 INTRA-LIGAND FREE ENERGY PREDICTED BY IDOCK:   -0.18 KCAL/MOL
REMARK 927      BINDING AFFINITY PREDICTED BY RF-SCORE:    0.00 PKD
ROOT
HETATM    1  N   UNL     1     -13.244   9.524  71.239  1.00  0.00    -0.472 NA 
HETATM    2  C   UNL     1     -12.871  10.799  70.840  1.00  0.00    -0.351 A  
HETATM    3  H1  UNL     1     -13.665   9.328  72.147  1.00  0.00     0.000 HD 
HETATM    4  H2  UNL     1     -12.425   8.923  71.146  1.00  0.00     0.000 HD 
HETATM    5  C   UNL     1     -12.291  11.070  69.590  1.00  0.00    -0.234 A  
HETATM    6  N   UNL     1     -11.954  10.254  68.536  1.00  0.00    -0.064 NA 
HETATM    7  C   UNL     1     -11.394  11.059  67.655  1.00  0.00    -0.281 A  
HETATM    8  N   UNL     1     -11.391  12.366  68.082  1.00  0.00    -0.267 NA 
HETATM    9  N   UNL     1     -13.046  11.823  71.705  1.00  0.00    -0.445 NA 
HETATM   10  C   UNL     1     -11.948  12.390  69.331  1.00  0.00    -0.260 A  
HETATM   11  N   UNL     1     -12.101  13.439  70.157  1.00  0.00    -0.350 NA 
HETATM   12  C   UNL     1     -12.677  13.060  71.317  1.00  0.00    -0.293 A  
ENDROOT
BRANCH   8  13
HETATM   13  C   UNL     1     -10.874  13.462  67.290  1.00  0.00    -0.269 C  
HETATM   14  C   UNL     1      -8.796  12.807  66.443  1.00  0.00     0.046 C  
HETATM   15  C   UNL     1      -8.494  13.876  67.495  1.00  0.00    -0.196 C  
HETATM   16  O   UNL     1      -9.979  15.761  67.244  1.00  0.00    -0.233 OA 
HETATM   17  O   UNL     1     -10.207  12.894  66.146  1.00  0.00    -0.266 OA 
HETATM   18  C   UNL     1      -9.859  14.457  67.872  1.00  0.00    -0.224 C  
HETATM   19  H   UNL     1      -9.352  16.376  67.605  1.00  0.00     0.000 HD 
HETATM   20  O   UNL     1      -7.621  14.867  66.941  1.00  0.00    -0.289 OA 
HETATM   21  H   UNL     1      -7.433  15.531  67.594  1.00  0.00     0.000 HD 
BRANCH  14  22
HETATM   22  C   UNL     1      -8.417  11.415  66.970  1.00  0.00    -0.159 C  
BRANCH  22  23
HETATM   23  O   UNL     1      -7.921  11.492  68.301  1.00  0.00    -0.126 OA 
HETATM   24  P   UNL     1      -7.127  10.035  68.792  1.00  0.00    -0.076 P  
HETATM   25  O   UNL     1      -6.417   8.732  69.231  1.00  0.00    -0.041 OA 
HETATM   26  O   UNL     1      -5.796  10.691  68.114  1.00  0.00    -0.043 OA 
HETATM   27  O   UNL     1      -7.018  10.739  70.263  1.00  0.00    -0.233 OA 
ENDBRANCH  22  23
ENDBRANCH  14  22
ENDBRANCH   8  13
TORSDOF 3
ENDMDL
MODEL      175
REMARK 921   NORMALIZED FREE ENERGY PREDICTED BY IDOCK:   -4.11 KCAL/MOL
REMARK 922        TOTAL FREE ENERGY PREDICTED BY IDOCK:   -5.30 KCAL/MOL
REMARK 923 INTER-LIGAND FREE ENERGY PREDICTED BY IDOCK:   -4.45 KCAL/MOL
REMARK 924 INTRA-LIGAND FREE ENERGY PREDICTED BY IDOCK:   -0.85 KCAL/MOL
REMARK 927      BINDING AFFINITY PREDICTED BY RF-SCORE:    0.00 PKD
ROOT
HETATM    1  N   UNL     1     -10.837   9.122  68.004  1.00  0.00    -0.473 NA 
HETATM    2  C   UNL     1     -10.910   8.843  69.360  1.00  0.00    -0.119 A  
HETATM    3  H1  UNL     1     -10.930  10.063  67.624  1.00  0.00     0.000 HD 
HETATM    4  H2  UNL     1     -11.527   8.535  67.534  1.00  0.00     0.000 HD 
HETATM    5  C   UNL     1     -10.782   7.547  69.883  1.00  0.00    -0.246 A  
HETATM    6  N   UNL     1     -10.586   6.327  69.281  1.00  0.00    -0.241 NA 
HETATM    7  C   UNL     1     -10.602   5.457  70.271  1.00  0.00    -0.259 A  
HETATM    8  N   UNL     1     -10.761   6.071  71.491  1.00  0.00    -0.246 NA 
HETATM    9  N   UNL     1     -11.143   9.864  70.216  1.00  0.00    -0.285 NA 
HETATM   10  C   UNL     1     -10.896   7.411  71.260  1.00  0.00    -0.238 A  
HETATM   11  N   UNL     1     -11.128   8.392  72.149  1.00  0.00    -0.321 NA 
HETATM   12  C   UNL     1     -11.219   9.590  71.533  1.00  0.00    -0.367 A  
ENDROOT
BRANCH   8  13
HETATM   13  C   UNL     1     -10.771   5.353  72.748  1.00  0.00    -0.247 C  
HETATM   14  C   UNL     1      -8.562   5.204  73.499  1.00  0.00    -0.112 C  
HETATM   15  C   UNL     1      -8.952   3.785  73.078  1.00  0.00    -0.096 C  
HETATM   16  O   UNL     1     -11.138   3.214  73.923  1.00  0.00    -0.205 OA 
HETATM   17  O   UNL     1      -9.788   5.962  73.605  1.00  0.00    -0.158 OA 
HETATM   18  C   UNL     1     -10.457   3.850  72.810  1.00  0.00    -0.153 C  
HETATM   19  H   UNL     1     -10.944   2.285  73.961  1.00  0.00     0.000 HD 
HETATM   20  O   UNL     1      -8.629   2.863  74.126  1.00  0.00    -0.072 OA 
HETATM   21  H   UNL     1      -8.871   1.982  73.864  1.00  0.00     0.000 HD 
BRANCH  14  22
HETATM   22  C   UNL     1      -7.605   5.823  72.472  1.00  0.00    -0.101 C  
BRANCH  22  23
HETATM   23  O   UNL     1      -7.574   7.240  72.594  1.00  0.00    -0.082 OA 
HETATM   24  P   UNL     1      -6.369   7.962  71.583  1.00  0.00    -0.044 P  
HETATM   25  O   UNL     1      -5.291   8.608  70.679  1.00  0.00    -0.027 OA 
HETATM   26  O   UNL     1      -7.523   7.952  70.430  1.00  0.00    -0.073 OA 
HETATM   27  O   UNL     1      -6.774   9.366  72.315  1.00  0.00    -0.288 OA 
ENDBRANCH  22  23
ENDBRANCH  14  22
ENDBRANCH   8  13
TORSDOF 3
ENDMDL
MODEL      176
REMARK 921   NORMALIZED FREE ENERGY PREDICTED BY IDOCK:   -4.09 KCAL/MOL
REMARK 922        TOTAL FREE ENERGY PREDICTED BY IDOCK:   -5.28 KCAL/MOL
REMARK 923 INTER-LIGAND FREE ENERGY PREDICTED BY IDOCK:   -4.88 KCAL/MOL
REMARK 924 INTRA-LIGAND FREE ENERGY PREDICTED BY IDOCK:   -0.40 KCAL/MOL
REMARK 927      BINDING AFFINITY PREDICTED BY RF-SCORE:    0.00 PKD
ROOT
HETATM    1  N   UNL     1      -5.978   8.423  65.963  1.00  0.00    -0.044 NA 
HETATM    2  C   UNL     1      -6.880   8.657  66.990  1.00  0.00    -0.067 A  
HETATM    3  H1  UNL     1      -5.023   8.102  66.125  1.00  0.00     0.000 HD 
HETATM    4  H2  UNL     1      -5.922   9.275  65.405  1.00  0.00     0.000 HD 
HETATM    5  C   UNL     1      -8.194   9.100  66.767  1.00  0.00    -0.119 A  
HETATM    6  N   UNL     1      -8.879   9.404  65.615  1.00  0.00    -0.162 NA 
HETATM    7  C   UNL     1     -10.061   9.818  66.027  1.00  0.00    -0.251 A  
HETATM    8  N   UNL     1     -10.178   9.756  67.396  1.00  0.00    -0.215 NA 
HETATM    9  N   UNL     1      -6.466   8.480  68.265  1.00  0.00    -0.058 NA 
HETATM   10  C   UNL     1      -8.983   9.313  67.889  1.00  0.00    -0.127 A  
HETATM   11  N   UNL     1      -8.617   9.152  69.173  1.00  0.00    -0.130 NA 
HETATM   12  C   UNL     1      -7.343   8.714  69.261  1.00  0.00    -0.074 A  
ENDROOT
BRANCH   8  13
HETATM   13  C   UNL     1     -11.387  10.112  68.108  1.00  0.00    -0.099 C  
HETATM   14  C   UNL     1     -11.411  12.437  68.349  1.00  0.00    -0.310 C  
HETATM   15  C   UNL     1     -11.158  11.879  69.752  1.00  0.00     0.048 C  
HETATM   16  O   UNL     1     -12.655  10.048  70.224  1.00  0.00    -0.510 OA 
HETATM   17  O   UNL     1     -11.883  11.338  67.538  1.00  0.00    -0.613 OA 
HETATM   18  C   UNL     1     -11.373  10.370  69.623  1.00  0.00    -0.272 C  
HETATM   19  H   UNL     1     -12.646  10.207  71.161  1.00  0.00     0.000 HD 
HETATM   20  O   UNL     1     -12.068  12.477  70.682  1.00  0.00    -0.457 OA 
HETATM   21  H   UNL     1     -11.911  12.131  71.553  1.00  0.00     0.000 HD 
BRANCH  14  22
HETATM   22  C   UNL     1     -10.126  13.048  67.775  1.00  0.00    -0.229 C  
BRANCH  22  23
HETATM   23  O   UNL     1     -10.386  14.310  67.173  1.00  0.00    -0.259 OA 
HETATM   24  P   UNL     1      -9.913  15.633  68.184  1.00  0.00    -0.221 P  
HETATM   25  O   UNL     1      -9.490  16.815  69.089  1.00  0.00    -0.243 OA 
HETATM   26  O   UNL     1      -8.443  15.457  67.498  1.00  0.00    -0.158 OA 
HETATM   27  O   UNL     1     -10.596  16.585  67.045  1.00  0.00    -0.310 OA 
ENDBRANCH  22  23
ENDBRANCH  14  22
ENDBRANCH   8  13
TORSDOF 3
ENDMDL
MODEL      177
REMARK 921   NORMALIZED FREE ENERGY PREDICTED BY IDOCK:   -4.06 KCAL/MOL
REMARK 922        TOTAL FREE ENERGY PREDICTED BY IDOCK:   -5.25 KCAL/MOL
REMARK 923 INTER-LIGAND FREE ENERGY PREDICTED BY IDOCK:   -4.67 KCAL/MOL
REMARK 924 INTRA-LIGAND FREE ENERGY PREDICTED BY IDOCK:   -0.58 KCAL/MOL
REMARK 927      BINDING AFFINITY PREDICTED BY RF-SCORE:    0.00 PKD
ROOT
HETATM    1  N   UNL     1      -7.255  11.318  69.991  1.00  0.00    -0.404 NA 
HETATM    2  C   UNL     1      -7.344  10.094  69.344  1.00  0.00    -0.106 A  
HETATM    3  H1  UNL     1      -6.406  11.641  70.453  1.00  0.00     0.000 HD 
HETATM    4  H2  UNL     1      -8.009  11.356  70.677  1.00  0.00     0.000 HD 
HETATM    5  C   UNL     1      -8.513   9.649  68.707  1.00  0.00    -0.123 A  
HETATM    6  N   UNL     1      -9.757  10.216  68.567  1.00  0.00    -0.150 NA 
HETATM    7  C   UNL     1     -10.466   9.313  67.920  1.00  0.00    -0.236 A  
HETATM    8  N   UNL     1      -9.719   8.203  67.603  1.00  0.00    -0.152 NA 
HETATM    9  N   UNL     1      -6.264   9.281  69.352  1.00  0.00    -0.040 NA 
HETATM   10  C   UNL     1      -8.466   8.394  68.116  1.00  0.00    -0.132 A  
HETATM   11  N   UNL     1      -7.419   7.551  68.098  1.00  0.00    -0.102 NA 
HETATM   12  C   UNL     1      -6.354   8.090  68.728  1.00  0.00    -0.044 A  
ENDROOT
BRANCH   8  13
HETATM   13  C   UNL     1     -10.241   7.078  66.856  1.00  0.00    -0.248 C  
HETATM   14  C   UNL     1     -10.783   5.397  68.389  1.00  0.00    -0.001 C  
HETATM   15  C   UNL     1      -9.552   4.888  67.635  1.00  0.00    -0.151 C  
HETATM   16  O   UNL     1      -9.796   5.248  65.262  1.00  0.00    -0.368 OA 
HETATM   17  O   UNL     1     -11.314   6.504  67.627  1.00  0.00    -0.268 OA 
HETATM   18  C   UNL     1      -9.349   5.882  66.490  1.00  0.00    -0.153 C  
HETATM   19  H   UNL     1      -9.244   4.508  65.036  1.00  0.00     0.000 HD 
HETATM   20  O   UNL     1      -9.793   3.558  67.160  1.00  0.00    -0.336 OA 
HETATM   21  H   UNL     1      -9.029   3.241  66.692  1.00  0.00     0.000 HD 
BRANCH  14  22
HETATM   22  C   UNL     1     -10.400   5.827  69.812  1.00  0.00    -0.263 C  
BRANCH  22  23
HETATM   23  O   UNL     1     -11.316   6.791  70.317  1.00  0.00    -0.305 OA 
HETATM   24  P   UNL     1     -11.133   7.043  72.019  1.00  0.00    -0.263 P  
HETATM   25  O   UNL     1     -10.970   7.269  73.542  1.00  0.00    -0.345 OA 
HETATM   26  O   UNL     1     -10.001   8.140  71.599  1.00  0.00    -0.172 OA 
HETATM   27  O   UNL     1     -12.453   8.000  71.892  1.00  0.00    -0.308 OA 
ENDBRANCH  22  23
ENDBRANCH  14  22
ENDBRANCH   8  13
TORSDOF 3
ENDMDL
MODEL      178
REMARK 921   NORMALIZED FREE ENERGY PREDICTED BY IDOCK:   -4.06 KCAL/MOL
REMARK 922        TOTAL FREE ENERGY PREDICTED BY IDOCK:   -5.24 KCAL/MOL
REMARK 923 INTER-LIGAND FREE ENERGY PREDICTED BY IDOCK:   -4.78 KCAL/MOL
REMARK 924 INTRA-LIGAND FREE ENERGY PREDICTED BY IDOCK:   -0.46 KCAL/MOL
REMARK 927      BINDING AFFINITY PREDICTED BY RF-SCORE:    0.00 PKD
ROOT
HETATM    1  N   UNL     1     -11.427  11.856  70.033  1.00  0.00    -0.516 NA 
HETATM    2  C   UNL     1     -11.036  10.580  69.655  1.00  0.00    -0.283 A  
HETATM    3  H1  UNL     1     -11.332  12.669  69.425  1.00  0.00     0.000 HD 
HETATM    4  H2  UNL     1     -10.951  12.074  70.909  1.00  0.00     0.000 HD 
HETATM    5  C   UNL     1     -11.166   9.461  70.492  1.00  0.00    -0.275 A  
HETATM    6  N   UNL     1     -11.645   9.321  71.773  1.00  0.00    -0.385 NA 
HETATM    7  C   UNL     1     -11.469   8.046  72.059  1.00  0.00    -0.309 A  
HETATM    8  N   UNL     1     -10.932   7.351  71.001  1.00  0.00    -0.247 NA 
HETATM    9  N   UNL     1     -10.477  10.412  68.435  1.00  0.00    -0.178 NA 
HETATM   10  C   UNL     1     -10.715   8.247  69.992  1.00  0.00    -0.239 A  
HETATM   11  N   UNL     1     -10.154   8.031  68.790  1.00  0.00    -0.190 NA 
HETATM   12  C   UNL     1     -10.093   9.173  68.072  1.00  0.00    -0.196 A  
ENDROOT
BRANCH   8  13
HETATM   13  C   UNL     1     -10.676   5.927  71.032  1.00  0.00    -0.267 C  
HETATM   14  C   UNL     1      -8.836   5.566  72.428  1.00  0.00    -0.135 C  
HETATM   15  C   UNL     1      -8.340   5.278  71.009  1.00  0.00    -0.121 C  
HETATM   16  O   UNL     1      -9.931   3.916  69.811  1.00  0.00    -0.145 OA 
HETATM   17  O   UNL     1     -10.280   5.585  72.374  1.00  0.00    -0.185 OA 
HETATM   18  C   UNL     1      -9.599   5.291  70.139  1.00  0.00    -0.178 C  
HETATM   19  H   UNL     1      -9.265   3.523  69.259  1.00  0.00     0.000 HD 
HETATM   20  O   UNL     1      -7.676   4.009  70.978  1.00  0.00    -0.053 OA 
HETATM   21  H   UNL     1      -7.368   3.830  70.097  1.00  0.00     0.000 HD 
BRANCH  14  22
HETATM   22  C   UNL     1      -8.275   6.903  72.931  1.00  0.00    -0.107 C  
BRANCH  22  23
HETATM   23  O   UNL     1      -6.985   7.152  72.384  1.00  0.00    -0.064 OA 
HETATM   24  P   UNL     1      -6.887   8.696  71.607  1.00  0.00    -0.048 P  
HETATM   25  O   UNL     1      -6.798  10.076  70.913  1.00  0.00    -0.322 OA 
HETATM   26  O   UNL     1      -6.517   9.268  73.090  1.00  0.00    -0.304 OA 
HETATM   27  O   UNL     1      -5.388   8.230  71.150  1.00  0.00    -0.029 OA 
ENDBRANCH  22  23
ENDBRANCH  14  22
ENDBRANCH   8  13
TORSDOF 3
ENDMDL
MODEL      179
REMARK 921   NORMALIZED FREE ENERGY PREDICTED BY IDOCK:   -4.03 KCAL/MOL
REMARK 922        TOTAL FREE ENERGY PREDICTED BY IDOCK:   -5.20 KCAL/MOL
REMARK 923 INTER-LIGAND FREE ENERGY PREDICTED BY IDOCK:   -4.51 KCAL/MOL
REMARK 924 INTRA-LIGAND FREE ENERGY PREDICTED BY IDOCK:   -0.70 KCAL/MOL
REMARK 927      BINDING AFFINITY PREDICTED BY RF-SCORE:    0.00 PKD
ROOT
HETATM    1  N   UNL     1     -11.312   4.400  65.157  1.00  0.00    -1.082 NA 
HETATM    2  C   UNL     1     -10.267   4.545  66.056  1.00  0.00    -0.260 A  
HETATM    3  H1  UNL     1     -11.321   3.690  64.425  1.00  0.00     0.000 HD 
HETATM    4  H2  UNL     1     -11.455   5.304  64.706  1.00  0.00     0.000 HD 
HETATM    5  C   UNL     1     -10.255   5.523  67.064  1.00  0.00    -0.224 A  
HETATM    6  N   UNL     1     -11.154   6.505  67.403  1.00  0.00    -0.367 NA 
HETATM    7  C   UNL     1     -10.583   7.154  68.397  1.00  0.00    -0.186 A  
HETATM    8  N   UNL     1      -9.369   6.605  68.739  1.00  0.00    -0.132 NA 
HETATM    9  N   UNL     1      -9.197   3.727  65.938  1.00  0.00    -0.151 NA 
HETATM   10  C   UNL     1      -9.134   5.567  67.882  1.00  0.00    -0.107 A  
HETATM   11  N   UNL     1      -8.049   4.778  67.804  1.00  0.00    -0.093 NA 
HETATM   12  C   UNL     1      -8.179   3.874  66.810  1.00  0.00    -0.100 A  
ENDROOT
BRANCH   8  13
HETATM   13  C   UNL     1      -8.550   7.098  69.826  1.00  0.00    -0.141 C  
HETATM   14  C   UNL     1      -9.129   5.903  71.751  1.00  0.00    -0.142 C  
HETATM   15  C   UNL     1      -9.667   7.320  71.967  1.00  0.00    -0.157 C  
HETATM   16  O   UNL     1      -8.012   8.963  71.350  1.00  0.00    -0.190 OA 
HETATM   17  O   UNL     1      -8.195   5.971  70.650  1.00  0.00    -0.116 OA 
HETATM   18  C   UNL     1      -9.085   8.144  70.816  1.00  0.00    -0.146 C  
HETATM   19  H   UNL     1      -8.343   9.610  71.962  1.00  0.00     0.000 HD 
HETATM   20  O   UNL     1      -9.246   7.807  73.246  1.00  0.00    -0.203 OA 
HETATM   21  H   UNL     1      -9.579   8.686  73.381  1.00  0.00     0.000 HD 
BRANCH  14  22
HETATM   22  C   UNL     1     -10.281   4.933  71.452  1.00  0.00    -0.187 C  
BRANCH  22  23
HETATM   23  O   UNL     1      -9.808   3.771  70.781  1.00  0.00    -0.181 OA 
HETATM   24  P   UNL     1      -8.802   2.791  71.792  1.00  0.00    -0.084 P  
HETATM   25  O   UNL     1      -7.902   1.915  72.696  1.00  0.00    -0.049 OA 
HETATM   26  O   UNL     1     -10.196   2.104  72.285  1.00  0.00    -0.155 OA 
HETATM   27  O   UNL     1      -8.549   1.889  70.453  1.00  0.00    -0.051 OA 
ENDBRANCH  22  23
ENDBRANCH  14  22
ENDBRANCH   8  13
TORSDOF 3
ENDMDL
MODEL      180
REMARK 921   NORMALIZED FREE ENERGY PREDICTED BY IDOCK:   -4.02 KCAL/MOL
REMARK 922        TOTAL FREE ENERGY PREDICTED BY IDOCK:   -5.20 KCAL/MOL
REMARK 923 INTER-LIGAND FREE ENERGY PREDICTED BY IDOCK:   -4.36 KCAL/MOL
REMARK 924 INTRA-LIGAND FREE ENERGY PREDICTED BY IDOCK:   -0.84 KCAL/MOL
REMARK 927      BINDING AFFINITY PREDICTED BY RF-SCORE:    0.00 PKD
ROOT
HETATM    1  N   UNL     1     -11.236   5.905  71.544  1.00  0.00    -0.257 NA 
HETATM    2  C   UNL     1     -10.903   7.115  70.955  1.00  0.00    -0.244 A  
HETATM    3  H1  UNL     1     -11.257   5.766  72.554  1.00  0.00     0.000 HD 
HETATM    4  H2  UNL     1     -10.618   5.194  71.152  1.00  0.00     0.000 HD 
HETATM    5  C   UNL     1     -10.872   7.307  69.564  1.00  0.00    -0.209 A  
HETATM    6  N   UNL     1     -11.120   6.457  68.513  1.00  0.00    -0.322 NA 
HETATM    7  C   UNL     1     -10.883   7.177  67.435  1.00  0.00    -0.276 A  
HETATM    8  N   UNL     1     -10.530   8.469  67.749  1.00  0.00    -0.239 NA 
HETATM    9  N   UNL     1     -10.562   8.150  71.756  1.00  0.00    -0.235 NA 
HETATM   10  C   UNL     1     -10.502   8.566  69.112  1.00  0.00    -0.205 A  
HETATM   11  N   UNL     1     -10.155   9.622  69.867  1.00  0.00    -0.229 NA 
HETATM   12  C   UNL     1     -10.233   9.324  71.181  1.00  0.00    -0.317 A  
ENDROOT
BRANCH   8  13
HETATM   13  C   UNL     1     -10.257   9.484  66.753  1.00  0.00    -0.243 C  
HETATM   14  C   UNL     1      -8.101   9.108  65.929  1.00  0.00    -0.111 C  
HETATM   15  C   UNL     1      -8.007  10.388  66.763  1.00  0.00    -0.117 C  
HETATM   16  O   UNL     1      -9.846  11.867  66.264  1.00  0.00    -0.214 OA 
HETATM   17  O   UNL     1      -9.506   8.862  65.693  1.00  0.00    -0.229 OA 
HETATM   18  C   UNL     1      -9.456  10.748  67.102  1.00  0.00    -0.160 C  
HETATM   19  H   UNL     1      -9.351  12.649  66.480  1.00  0.00     0.000 HD 
HETATM   20  O   UNL     1      -7.360  11.414  66.002  1.00  0.00    -0.366 OA 
HETATM   21  H   UNL     1      -7.301  12.209  66.520  1.00  0.00     0.000 HD 
BRANCH  14  22
HETATM   22  C   UNL     1      -7.442   7.936  66.669  1.00  0.00    -0.089 C  
BRANCH  22  23
HETATM   23  O   UNL     1      -7.202   8.265  68.032  1.00  0.00    -0.090 OA 
HETATM   24  P   UNL     1      -7.112   6.862  69.042  1.00  0.00    -0.093 P  
HETATM   25  O   UNL     1      -7.032   5.607  69.945  1.00  0.00    -0.057 OA 
HETATM   26  O   UNL     1      -5.534   6.832  68.630  1.00  0.00    -0.015 OA 
HETATM   27  O   UNL     1      -7.015   7.918  70.286  1.00  0.00    -0.048 OA 
ENDBRANCH  22  23
ENDBRANCH  14  22
ENDBRANCH   8  13
TORSDOF 3
ENDMDL
MODEL      181
REMARK 921   NORMALIZED FREE ENERGY PREDICTED BY IDOCK:   -4.02 KCAL/MOL
REMARK 922        TOTAL FREE ENERGY PREDICTED BY IDOCK:   -5.20 KCAL/MOL
REMARK 923 INTER-LIGAND FREE ENERGY PREDICTED BY IDOCK:   -4.81 KCAL/MOL
REMARK 924 INTRA-LIGAND FREE ENERGY PREDICTED BY IDOCK:   -0.39 KCAL/MOL
REMARK 927      BINDING AFFINITY PREDICTED BY RF-SCORE:    0.00 PKD
ROOT
HETATM    1  N   UNL     1     -12.398  14.600  67.685  1.00  0.00    -0.554 NA 
HETATM    2  C   UNL     1     -11.160  13.977  67.627  1.00  0.00    -0.282 A  
HETATM    3  H1  UNL     1     -12.524  15.555  68.019  1.00  0.00     0.000 HD 
HETATM    4  H2  UNL     1     -13.015  14.001  68.233  1.00  0.00     0.000 HD 
HETATM    5  C   UNL     1     -10.986  12.662  67.167  1.00  0.00    -0.261 A  
HETATM    6  N   UNL     1     -11.879  11.722  66.709  1.00  0.00    -0.568 NA 
HETATM    7  C   UNL     1     -11.146  10.653  66.470  1.00  0.00     0.058 A  
HETATM    8  N   UNL     1      -9.812  10.878  66.717  1.00  0.00    -0.190 NA 
HETATM    9  N   UNL     1     -10.075  14.657  68.061  1.00  0.00    -0.225 NA 
HETATM   10  C   UNL     1      -9.693  12.158  67.182  1.00  0.00    -0.199 A  
HETATM   11  N   UNL     1      -8.586  12.793  67.603  1.00  0.00    -0.169 NA 
HETATM   12  C   UNL     1      -8.874  14.048  68.009  1.00  0.00    -0.181 A  
ENDROOT
BRANCH   8  13
HETATM   13  C   UNL     1      -8.783   9.884  66.497  1.00  0.00    -0.128 C  
HETATM   14  C   UNL     1      -8.368   8.825  68.540  1.00  0.00    -0.129 C  
HETATM   15  C   UNL     1      -7.128   9.676  68.256  1.00  0.00    -0.078 C  
HETATM   16  O   UNL     1      -6.420   9.414  65.965  1.00  0.00    -0.067 OA 
HETATM   17  O   UNL     1      -9.108   8.735  67.302  1.00  0.00    -0.130 OA 
HETATM   18  C   UNL     1      -7.310  10.176  66.821  1.00  0.00    -0.104 C  
HETATM   19  H   UNL     1      -5.509   9.595  66.165  1.00  0.00     0.000 HD 
HETATM   20  O   UNL     1      -5.949   8.876  68.403  1.00  0.00    -0.044 OA 
HETATM   21  H   UNL     1      -5.179   9.404  68.227  1.00  0.00     0.000 HD 
BRANCH  14  22
HETATM   22  C   UNL     1      -9.211   9.462  69.653  1.00  0.00    -0.185 C  
BRANCH  22  23
HETATM   23  O   UNL     1      -8.855   8.936  70.926  1.00  0.00    -0.180 OA 
HETATM   24  P   UNL     1     -10.239   8.542  71.887  1.00  0.00    -0.335 P  
HETATM   25  O   UNL     1     -11.477   8.190  72.746  1.00  0.00    -0.408 OA 
HETATM   26  O   UNL     1     -10.190   7.100  71.126  1.00  0.00    -0.192 OA 
HETATM   27  O   UNL     1      -9.166   8.222  73.078  1.00  0.00    -0.260 OA 
ENDBRANCH  22  23
ENDBRANCH  14  22
ENDBRANCH   8  13
TORSDOF 3
ENDMDL
MODEL      182
REMARK 921   NORMALIZED FREE ENERGY PREDICTED BY IDOCK:   -3.94 KCAL/MOL
REMARK 922        TOTAL FREE ENERGY PREDICTED BY IDOCK:   -5.10 KCAL/MOL
REMARK 923 INTER-LIGAND FREE ENERGY PREDICTED BY IDOCK:   -4.62 KCAL/MOL
REMARK 924 INTRA-LIGAND FREE ENERGY PREDICTED BY IDOCK:   -0.48 KCAL/MOL
REMARK 927      BINDING AFFINITY PREDICTED BY RF-SCORE:    0.00 PKD
ROOT
HETATM    1  N   UNL     1     -11.688  11.915  63.247  1.00  0.00    -0.758 NA 
HETATM    2  C   UNL     1     -11.513  11.974  64.622  1.00  0.00    -0.308 A  
HETATM    3  H1  UNL     1     -12.311  12.542  62.739  1.00  0.00     0.000 HD 
HETATM    4  H2  UNL     1     -11.961  10.960  63.014  1.00  0.00     0.000 HD 
HETATM    5  C   UNL     1     -10.655  11.110  65.321  1.00  0.00    -0.238 A  
HETATM    6  N   UNL     1      -9.849  10.078  64.904  1.00  0.00    -0.318 NA 
HETATM    7  C   UNL     1      -9.320   9.597  66.011  1.00  0.00    -0.207 A  
HETATM    8  N   UNL     1      -9.721  10.304  67.121  1.00  0.00    -0.168 NA 
HETATM    9  N   UNL     1     -12.224  12.884  65.323  1.00  0.00    -0.452 NA 
HETATM   10  C   UNL     1     -10.592  11.268  66.699  1.00  0.00    -0.262 A  
HETATM   11  N   UNL     1     -11.278  12.156  67.439  1.00  0.00    -0.282 NA 
HETATM   12  C   UNL     1     -12.057  12.936  66.660  1.00  0.00    -0.289 A  
ENDROOT
BRANCH   8  13
HETATM   13  C   UNL     1      -9.255  10.014  68.461  1.00  0.00    -0.141 C  
HETATM   14  C   UNL     1      -7.755  11.699  69.073  1.00  0.00    -0.002 C  
HETATM   15  C   UNL     1      -6.905  10.443  68.873  1.00  0.00    -0.061 C  
HETATM   16  O   UNL     1      -7.937   8.538  69.935  1.00  0.00    -0.100 OA 
HETATM   17  O   UNL     1      -9.131  11.267  69.160  1.00  0.00    -0.044 OA 
HETATM   18  C   UNL     1      -7.914   9.304  68.702  1.00  0.00    -0.100 C  
HETATM   19  H   UNL     1      -7.107   8.099  70.084  1.00  0.00     0.000 HD 
HETATM   20  O   UNL     1      -6.058  10.246  70.011  1.00  0.00    -0.051 OA 
HETATM   21  H   UNL     1      -5.530   9.466  69.887  1.00  0.00     0.000 HD 
BRANCH  14  22
HETATM   22  C   UNL     1      -7.546  12.678  67.909  1.00  0.00    -0.132 C  
BRANCH  22  23
HETATM   23  O   UNL     1      -7.236  13.981  68.388  1.00  0.00    -0.090 OA 
HETATM   24  P   UNL     1      -7.544  15.207  67.206  1.00  0.00    -0.102 P  
HETATM   25  O   UNL     1      -7.819  16.304  66.150  1.00  0.00    -0.213 OA 
HETATM   26  O   UNL     1      -9.065  15.205  67.796  1.00  0.00    -0.176 OA 
HETATM   27  O   UNL     1      -6.871  16.237  68.283  1.00  0.00    -0.126 OA 
ENDBRANCH  22  23
ENDBRANCH  14  22
ENDBRANCH   8  13
TORSDOF 3
ENDMDL
MODEL      183
REMARK 921   NORMALIZED FREE ENERGY PREDICTED BY IDOCK:   -3.94 KCAL/MOL
REMARK 922        TOTAL FREE ENERGY PREDICTED BY IDOCK:   -5.10 KCAL/MOL
REMARK 923 INTER-LIGAND FREE ENERGY PREDICTED BY IDOCK:   -4.36 KCAL/MOL
REMARK 924 INTRA-LIGAND FREE ENERGY PREDICTED BY IDOCK:   -0.74 KCAL/MOL
REMARK 927      BINDING AFFINITY PREDICTED BY RF-SCORE:    0.00 PKD
ROOT
HETATM    1  N   UNL     1     -12.245  10.651  69.010  1.00  0.00    -0.769 NA 
HETATM    2  C   UNL     1     -10.870  10.498  69.112  1.00  0.00    -0.237 A  
HETATM    3  H1  UNL     1     -12.693  11.140  68.236  1.00  0.00     0.000 HD 
HETATM    4  H2  UNL     1     -12.569  11.085  69.874  1.00  0.00     0.000 HD 
HETATM    5  C   UNL     1     -10.252   9.824  70.178  1.00  0.00    -0.275 A  
HETATM    6  N   UNL     1     -10.762   9.208  71.295  1.00  0.00    -0.302 NA 
HETATM    7  C   UNL     1      -9.704   8.797  71.964  1.00  0.00    -0.300 A  
HETATM    8  N   UNL     1      -8.533   9.089  71.303  1.00  0.00    -0.291 NA 
HETATM    9  N   UNL     1     -10.088  11.048  68.157  1.00  0.00    -0.174 NA 
HETATM   10  C   UNL     1      -8.866   9.763  70.162  1.00  0.00    -0.188 A  
HETATM   11  N   UNL     1      -8.047  10.294  69.238  1.00  0.00    -0.143 NA 
HETATM   12  C   UNL     1      -8.752  10.904  68.261  1.00  0.00    -0.140 A  
ENDROOT
BRANCH   8  13
HETATM   13  C   UNL     1      -7.225   8.711  71.796  1.00  0.00    -0.080 C  
HETATM   14  C   UNL     1      -6.517   6.847  70.576  1.00  0.00    -0.051 C  
HETATM   15  C   UNL     1      -6.820   6.329  71.984  1.00  0.00    -0.072 C  
HETATM   16  O   UNL     1      -5.882   7.797  73.653  1.00  0.00    -0.058 OA 
HETATM   17  O   UNL     1      -6.440   8.287  70.666  1.00  0.00    -0.036 OA 
HETATM   18  C   UNL     1      -7.057   7.584  72.826  1.00  0.00    -0.071 C  
HETATM   19  H   UNL     1      -5.778   7.100  74.290  1.00  0.00     0.000 HD 
HETATM   20  O   UNL     1      -5.712   5.558  72.464  1.00  0.00    -0.021 OA 
HETATM   21  H   UNL     1      -5.900   5.236  73.338  1.00  0.00     0.000 HD 
BRANCH  14  22
HETATM   22  C   UNL     1      -7.610   6.402  69.595  1.00  0.00    -0.094 C  
BRANCH  22  23
HETATM   23  O   UNL     1      -8.514   5.496  70.216  1.00  0.00    -0.117 OA 
HETATM   24  P   UNL     1     -10.165   5.852  69.837  1.00  0.00    -0.267 P  
HETATM   25  O   UNL     1     -11.642   6.169  69.499  1.00  0.00    -0.396 OA 
HETATM   26  O   UNL     1      -9.924   4.920  68.520  1.00  0.00    -0.155 OA 
HETATM   27  O   UNL     1     -10.533   4.669  70.904  1.00  0.00    -0.123 OA 
ENDBRANCH  22  23
ENDBRANCH  14  22
ENDBRANCH   8  13
TORSDOF 3
ENDMDL
MODEL      184
REMARK 921   NORMALIZED FREE ENERGY PREDICTED BY IDOCK:   -3.90 KCAL/MOL
REMARK 922        TOTAL FREE ENERGY PREDICTED BY IDOCK:   -5.06 KCAL/MOL
REMARK 923 INTER-LIGAND FREE ENERGY PREDICTED BY IDOCK:   -4.61 KCAL/MOL
REMARK 924 INTRA-LIGAND FREE ENERGY PREDICTED BY IDOCK:   -0.45 KCAL/MOL
REMARK 927      BINDING AFFINITY PREDICTED BY RF-SCORE:    0.00 PKD
ROOT
HETATM    1  N   UNL     1     -10.060  10.205  62.963  1.00  0.00    -0.441 NA 
HETATM    2  C   UNL     1      -9.843  10.585  64.279  1.00  0.00    -0.338 A  
HETATM    3  H1  UNL     1     -10.777  10.628  62.374  1.00  0.00     0.000 HD 
HETATM    4  H2  UNL     1     -10.217   9.197  62.958  1.00  0.00     0.000 HD 
HETATM    5  C   UNL     1      -8.856  10.003  65.091  1.00  0.00    -0.180 A  
HETATM    6  N   UNL     1      -7.941   9.005  64.853  1.00  0.00    -0.119 NA 
HETATM    7  C   UNL     1      -7.314   8.845  66.001  1.00  0.00    -0.090 A  
HETATM    8  N   UNL     1      -7.760   9.727  66.958  1.00  0.00    -0.095 NA 
HETATM    9  N   UNL     1     -10.638  11.538  64.814  1.00  0.00    -0.290 NA 
HETATM   10  C   UNL     1      -8.763  10.467  66.396  1.00  0.00    -0.141 A  
HETATM   11  N   UNL     1      -9.529  11.409  66.972  1.00  0.00    -0.172 NA 
HETATM   12  C   UNL     1     -10.430  11.902  66.095  1.00  0.00    -0.237 A  
ENDROOT
BRANCH   8  13
HETATM   13  C   UNL     1      -7.212   9.795  68.296  1.00  0.00    -0.078 C  
HETATM   14  C   UNL     1      -8.286   8.170  69.588  1.00  0.00    -0.125 C  
HETATM   15  C   UNL     1      -8.805   9.515  70.101  1.00  0.00    -0.235 C  
HETATM   16  O   UNL     1      -6.988  11.075  70.394  1.00  0.00    -0.484 OA 
HETATM   17  O   UNL     1      -7.111   8.448  68.794  1.00  0.00    -0.065 OA 
HETATM   18  C   UNL     1      -7.931  10.566  69.414  1.00  0.00    -0.140 C  
HETATM   19  H   UNL     1      -7.433  11.552  71.085  1.00  0.00     0.000 HD 
HETATM   20  O   UNL     1      -8.689   9.566  71.528  1.00  0.00    -0.257 OA 
HETATM   21  H   UNL     1      -9.011  10.401  71.847  1.00  0.00     0.000 HD 
BRANCH  14  22
HETATM   22  C   UNL     1      -9.367   7.458  68.763  1.00  0.00    -0.144 C  
BRANCH  22  23
HETATM   23  O   UNL     1      -9.463   6.086  69.124  1.00  0.00    -0.127 OA 
HETATM   24  P   UNL     1      -9.762   5.869  70.815  1.00  0.00    -0.182 P  
HETATM   25  O   UNL     1     -10.029   5.676  72.327  1.00  0.00    -0.168 OA 
HETATM   26  O   UNL     1     -11.337   6.014  70.418  1.00  0.00    -0.338 OA 
HETATM   27  O   UNL     1      -9.585   4.272  70.515  1.00  0.00    -0.164 OA 
ENDBRANCH  22  23
ENDBRANCH  14  22
ENDBRANCH   8  13
TORSDOF 3
ENDMDL
MODEL      185
REMARK 921   NORMALIZED FREE ENERGY PREDICTED BY IDOCK:   -3.89 KCAL/MOL
REMARK 922        TOTAL FREE ENERGY PREDICTED BY IDOCK:   -5.05 KCAL/MOL
REMARK 923 INTER-LIGAND FREE ENERGY PREDICTED BY IDOCK:   -4.25 KCAL/MOL
REMARK 924 INTRA-LIGAND FREE ENERGY PREDICTED BY IDOCK:   -0.80 KCAL/MOL
REMARK 927      BINDING AFFINITY PREDICTED BY RF-SCORE:    0.00 PKD
ROOT
HETATM    1  N   UNL     1      -7.592   6.026  69.218  1.00  0.00    -0.092 NA 
HETATM    2  C   UNL     1      -8.604   6.716  68.567  1.00  0.00    -0.124 A  
HETATM    3  H1  UNL     1      -7.345   5.062  68.995  1.00  0.00     0.000 HD 
HETATM    4  H2  UNL     1      -7.789   6.067  70.218  1.00  0.00     0.000 HD 
HETATM    5  C   UNL     1      -8.945   8.043  68.875  1.00  0.00    -0.141 A  
HETATM    6  N   UNL     1      -8.448   8.930  69.800  1.00  0.00    -0.125 NA 
HETATM    7  C   UNL     1      -9.194  10.008  69.666  1.00  0.00    -0.215 A  
HETATM    8  N   UNL     1     -10.127   9.866  68.665  1.00  0.00    -0.168 NA 
HETATM    9  N   UNL     1      -9.314   6.072  67.615  1.00  0.00    -0.113 NA 
HETATM   10  C   UNL     1      -9.993   8.604  68.157  1.00  0.00    -0.178 A  
HETATM   11  N   UNL     1     -10.727   8.005  67.204  1.00  0.00    -0.289 NA 
HETATM   12  C   UNL     1     -10.301   6.743  66.988  1.00  0.00    -0.268 A  
ENDROOT
BRANCH   8  13
HETATM   13  C   UNL     1     -11.047  10.915  68.280  1.00  0.00    -0.266 C  
HETATM   14  C   UNL     1     -10.185  11.951  66.370  1.00  0.00    -0.209 C  
HETATM   15  C   UNL     1     -10.030  12.972  67.499  1.00  0.00    -0.212 C  
HETATM   16  O   UNL     1     -12.050  13.106  68.811  1.00  0.00    -0.310 OA 
HETATM   17  O   UNL     1     -11.103  10.939  66.841  1.00  0.00    -0.259 OA 
HETATM   18  C   UNL     1     -10.801  12.378  68.680  1.00  0.00    -0.240 C  
HETATM   19  H   UNL     1     -11.898  14.011  69.059  1.00  0.00     0.000 HD 
HETATM   20  O   UNL     1     -10.565  14.235  67.086  1.00  0.00    -0.275 OA 
HETATM   21  H   UNL     1     -10.468  14.869  67.787  1.00  0.00     0.000 HD 
BRANCH  14  22
HETATM   22  C   UNL     1      -8.823  11.348  66.002  1.00  0.00    -0.174 C  
BRANCH  22  23
HETATM   23  O   UNL     1      -8.981  10.131  65.283  1.00  0.00    -0.163 OA 
HETATM   24  P   UNL     1      -7.492   9.568  64.605  1.00  0.00    -0.126 P  
HETATM   25  O   UNL     1      -6.160   9.064  63.999  1.00  0.00    -0.071 OA 
HETATM   26  O   UNL     1      -7.265   8.842  66.049  1.00  0.00    -0.086 OA 
HETATM   27  O   UNL     1      -8.399   8.408  63.895  1.00  0.00    -0.147 OA 
ENDBRANCH  22  23
ENDBRANCH  14  22
ENDBRANCH   8  13
TORSDOF 3
ENDMDL
MODEL      186
REMARK 921   NORMALIZED FREE ENERGY PREDICTED BY IDOCK:   -3.89 KCAL/MOL
REMARK 922        TOTAL FREE ENERGY PREDICTED BY IDOCK:   -5.05 KCAL/MOL
REMARK 923 INTER-LIGAND FREE ENERGY PREDICTED BY IDOCK:   -4.26 KCAL/MOL
REMARK 924 INTRA-LIGAND FREE ENERGY PREDICTED BY IDOCK:   -0.78 KCAL/MOL
REMARK 927      BINDING AFFINITY PREDICTED BY RF-SCORE:    0.00 PKD
ROOT
HETATM    1  N   UNL     1     -14.049   7.613  70.986  1.00  0.00    -0.659 NA 
HETATM    2  C   UNL     1     -12.846   7.240  71.567  1.00  0.00    -0.388 A  
HETATM    3  H1  UNL     1     -14.877   7.018  70.993  1.00  0.00     0.000 HD 
HETATM    4  H2  UNL     1     -13.857   7.855  70.013  1.00  0.00     0.000 HD 
HETATM    5  C   UNL     1     -11.706   8.059  71.556  1.00  0.00    -0.284 A  
HETATM    6  N   UNL     1     -11.472   9.305  71.024  1.00  0.00    -0.295 NA 
HETATM    7  C   UNL     1     -10.201   9.545  71.277  1.00  0.00    -0.175 A  
HETATM    8  N   UNL     1      -9.616   8.521  71.985  1.00  0.00    -0.275 NA 
HETATM    9  N   UNL     1     -12.759   6.021  72.144  1.00  0.00     0.111 NA 
HETATM   10  C   UNL     1     -10.563   7.551  72.159  1.00  0.00    -0.221 A  
HETATM   11  N   UNL     1     -10.428   6.348  72.743  1.00  0.00    -0.205 NA 
HETATM   12  C   UNL     1     -11.588   5.659  72.703  1.00  0.00    -0.251 A  
ENDROOT
BRANCH   8  13
HETATM   13  C   UNL     1      -8.239   8.547  72.431  1.00  0.00    -0.090 C  
HETATM   14  C   UNL     1      -6.886   8.066  70.585  1.00  0.00    -0.037 C  
HETATM   15  C   UNL     1      -6.798   6.837  71.494  1.00  0.00    -0.066 C  
HETATM   16  O   UNL     1      -6.468   7.497  73.790  1.00  0.00    -0.074 OA 
HETATM   17  O   UNL     1      -7.452   9.135  71.377  1.00  0.00    -0.280 OA 
HETATM   18  C   UNL     1      -7.493   7.253  72.792  1.00  0.00    -0.076 C  
HETATM   19  H   UNL     1      -6.007   6.696  74.014  1.00  0.00     0.000 HD 
HETATM   20  O   UNL     1      -5.425   6.489  71.704  1.00  0.00    -0.026 OA 
HETATM   21  H   UNL     1      -5.370   5.726  72.268  1.00  0.00     0.000 HD 
BRANCH  14  22
HETATM   22  C   UNL     1      -7.750   7.761  69.354  1.00  0.00    -0.106 C  
BRANCH  22  23
HETATM   23  O   UNL     1      -8.276   6.441  69.414  1.00  0.00    -0.115 OA 
HETATM   24  P   UNL     1      -9.827   6.315  68.658  1.00  0.00    -0.151 P  
HETATM   25  O   UNL     1     -11.215   6.203  67.982  1.00  0.00    -0.310 OA 
HETATM   26  O   UNL     1      -8.987   6.063  67.282  1.00  0.00    -0.111 OA 
HETATM   27  O   UNL     1      -9.837   4.779  69.218  1.00  0.00    -0.181 OA 
ENDBRANCH  22  23
ENDBRANCH  14  22
ENDBRANCH   8  13
TORSDOF 3
ENDMDL
MODEL      187
REMARK 921   NORMALIZED FREE ENERGY PREDICTED BY IDOCK:   -3.89 KCAL/MOL
REMARK 922        TOTAL FREE ENERGY PREDICTED BY IDOCK:   -5.04 KCAL/MOL
REMARK 923 INTER-LIGAND FREE ENERGY PREDICTED BY IDOCK:   -4.38 KCAL/MOL
REMARK 924 INTRA-LIGAND FREE ENERGY PREDICTED BY IDOCK:   -0.66 KCAL/MOL
REMARK 927      BINDING AFFINITY PREDICTED BY RF-SCORE:    0.00 PKD
ROOT
HETATM    1  N   UNL     1     -12.374  12.922  70.630  1.00  0.00    -0.346 NA 
HETATM    2  C   UNL     1     -11.938  11.868  69.841  1.00  0.00    -0.325 A  
HETATM    3  H1  UNL     1     -12.549  13.857  70.261  1.00  0.00     0.000 HD 
HETATM    4  H2  UNL     1     -11.716  13.018  71.403  1.00  0.00     0.000 HD 
HETATM    5  C   UNL     1     -11.697  10.582  70.348  1.00  0.00    -0.344 A  
HETATM    6  N   UNL     1     -11.798  10.059  71.616  1.00  0.00    -0.325 NA 
HETATM    7  C   UNL     1     -11.391   8.811  71.497  1.00  0.00    -0.304 A  
HETATM    8  N   UNL     1     -11.070   8.497  70.197  1.00  0.00    -0.227 NA 
HETATM    9  N   UNL     1     -11.706  12.098  68.529  1.00  0.00    -0.315 NA 
HETATM   10  C   UNL     1     -11.244   9.627  69.448  1.00  0.00    -0.077 A  
HETATM   11  N   UNL     1     -10.999   9.807  68.139  1.00  0.00    -0.216 NA 
HETATM   12  C   UNL     1     -11.277  11.074  67.765  1.00  0.00    -0.308 A  
ENDROOT
BRANCH   8  13
HETATM   13  C   UNL     1     -10.635   7.180  69.780  1.00  0.00    -0.234 C  
HETATM   14  C   UNL     1      -8.317   7.075  70.065  1.00  0.00    -0.138 C  
HETATM   15  C   UNL     1      -8.546   7.103  68.552  1.00  0.00    -0.124 C  
HETATM   16  O   UNL     1     -10.311   5.581  67.929  1.00  0.00    -0.186 OA 
HETATM   17  O   UNL     1      -9.588   6.764  70.677  1.00  0.00    -0.169 OA 
HETATM   18  C   UNL     1     -10.058   6.939  68.377  1.00  0.00    -0.168 C  
HETATM   19  H   UNL     1      -9.954   5.432  67.061  1.00  0.00     0.000 HD 
HETATM   20  O   UNL     1      -7.812   6.040  67.932  1.00  0.00    -0.102 OA 
HETATM   21  H   UNL     1      -7.954   6.058  66.993  1.00  0.00     0.000 HD 
BRANCH  14  22
HETATM   22  C   UNL     1      -7.774   8.426  70.550  1.00  0.00    -0.080 C  
BRANCH  22  23
HETATM   23  O   UNL     1      -7.866   9.410  69.526  1.00  0.00    -0.078 OA 
HETATM   24  P   UNL     1      -6.577  10.562  69.602  1.00  0.00    -0.129 P  
HETATM   25  O   UNL     1      -5.425  11.593  69.670  1.00  0.00    -0.061 OA 
HETATM   26  O   UNL     1      -5.748   9.494  68.689  1.00  0.00    -0.040 OA 
HETATM   27  O   UNL     1      -7.369  11.339  68.401  1.00  0.00    -0.084 OA 
ENDBRANCH  22  23
ENDBRANCH  14  22
ENDBRANCH   8  13
TORSDOF 3
ENDMDL
MODEL      188
REMARK 921   NORMALIZED FREE ENERGY PREDICTED BY IDOCK:   -3.87 KCAL/MOL
REMARK 922        TOTAL FREE ENERGY PREDICTED BY IDOCK:   -5.01 KCAL/MOL
REMARK 923 INTER-LIGAND FREE ENERGY PREDICTED BY IDOCK:   -4.88 KCAL/MOL
REMARK 924 INTRA-LIGAND FREE ENERGY PREDICTED BY IDOCK:   -0.13 KCAL/MOL
REMARK 927      BINDING AFFINITY PREDICTED BY RF-SCORE:    0.00 PKD
ROOT
HETATM    1  N   UNL     1     -12.249  12.360  63.149  1.00  0.00    -0.696 NA 
HETATM    2  C   UNL     1     -11.582  12.088  64.334  1.00  0.00    -0.336 A  
HETATM    3  H1  UNL     1     -13.137  12.861  63.113  1.00  0.00     0.000 HD 
HETATM    4  H2  UNL     1     -12.380  11.473  62.662  1.00  0.00     0.000 HD 
HETATM    5  C   UNL     1     -10.361  11.397  64.384  1.00  0.00    -0.320 A  
HETATM    6  N   UNL     1      -9.574  10.849  63.399  1.00  0.00    -0.297 NA 
HETATM    7  C   UNL     1      -8.575  10.282  64.046  1.00  0.00    -0.190 A  
HETATM    8  N   UNL     1      -8.665  10.477  65.404  1.00  0.00    -0.178 NA 
HETATM    9  N   UNL     1     -12.150  12.478  65.497  1.00  0.00    -0.534 NA 
HETATM   10  C   UNL     1      -9.815  11.177  65.641  1.00  0.00    -0.235 A  
HETATM   11  N   UNL     1     -10.340  11.545  66.822  1.00  0.00    -0.219 NA 
HETATM   12  C   UNL     1     -11.503  12.208  66.649  1.00  0.00    -0.365 A  
ENDROOT
BRANCH   8  13
HETATM   13  C   UNL     1      -7.675   9.996  66.345  1.00  0.00    -0.103 C  
HETATM   14  C   UNL     1      -8.572   8.128  67.426  1.00  0.00    -0.125 C  
HETATM   15  C   UNL     1      -8.536   9.237  68.480  1.00  0.00    -0.123 C  
HETATM   16  O   UNL     1      -6.418  10.391  68.431  1.00  0.00    -0.055 OA 
HETATM   17  O   UNL     1      -7.728   8.557  66.335  1.00  0.00    -0.095 OA 
HETATM   18  C   UNL     1      -7.741  10.373  67.833  1.00  0.00    -0.089 C  
HETATM   19  H   UNL     1      -6.459  10.624  69.351  1.00  0.00     0.000 HD 
HETATM   20  O   UNL     1      -7.909   8.751  69.673  1.00  0.00    -0.085 OA 
HETATM   21  H   UNL     1      -7.887   9.439  70.327  1.00  0.00     0.000 HD 
BRANCH  14  22
HETATM   22  C   UNL     1     -10.013   7.879  66.959  1.00  0.00    -0.252 C  
BRANCH  22  23
HETATM   23  O   UNL     1     -10.413   6.541  67.233  1.00  0.00    -0.198 OA 
HETATM   24  P   UNL     1      -9.362   5.757  68.361  1.00  0.00    -0.126 P  
HETATM   25  O   UNL     1      -8.421   5.055  69.370  1.00  0.00    -0.084 OA 
HETATM   26  O   UNL     1     -10.316   6.420  69.506  1.00  0.00    -0.183 OA 
HETATM   27  O   UNL     1     -10.246   4.415  68.061  1.00  0.00     0.007 OA 
ENDBRANCH  22  23
ENDBRANCH  14  22
ENDBRANCH   8  13
TORSDOF 3
ENDMDL
MODEL      189
REMARK 921   NORMALIZED FREE ENERGY PREDICTED BY IDOCK:   -3.80 KCAL/MOL
REMARK 922        TOTAL FREE ENERGY PREDICTED BY IDOCK:   -4.94 KCAL/MOL
REMARK 923 INTER-LIGAND FREE ENERGY PREDICTED BY IDOCK:   -4.71 KCAL/MOL
REMARK 924 INTRA-LIGAND FREE ENERGY PREDICTED BY IDOCK:   -0.23 KCAL/MOL
REMARK 927      BINDING AFFINITY PREDICTED BY RF-SCORE:    0.00 PKD
ROOT
HETATM    1  N   UNL     1      -5.941  13.744  70.083  1.00  0.00    -0.143 NA 
HETATM    2  C   UNL     1      -6.185  12.644  69.274  1.00  0.00    -0.105 A  
HETATM    3  H1  UNL     1      -5.121  13.822  70.683  1.00  0.00     0.000 HD 
HETATM    4  H2  UNL     1      -6.764  13.879  70.672  1.00  0.00     0.000 HD 
HETATM    5  C   UNL     1      -7.315  12.538  68.448  1.00  0.00    -0.114 A  
HETATM    6  N   UNL     1      -8.381  13.379  68.234  1.00  0.00    -0.159 NA 
HETATM    7  C   UNL     1      -9.159  12.727  67.393  1.00  0.00    -0.192 A  
HETATM    8  N   UNL     1      -8.618  11.517  67.025  1.00  0.00    -0.155 NA 
HETATM    9  N   UNL     1      -5.310  11.615  69.306  1.00  0.00    -0.048 NA 
HETATM   10  C   UNL     1      -7.442  11.371  67.706  1.00  0.00    -0.100 A  
HETATM   11  N   UNL     1      -6.601  10.323  67.704  1.00  0.00    -0.066 NA 
HETATM   12  C   UNL     1      -5.551  10.544  68.523  1.00  0.00    -0.040 A  
ENDROOT
BRANCH   8  13
HETATM   13  C   UNL     1      -9.247  10.620  66.079  1.00  0.00    -0.182 C  
HETATM   14  C   UNL     1     -10.391   8.987  67.300  1.00  0.00    -0.273 C  
HETATM   15  C   UNL     1      -9.197   8.268  66.668  1.00  0.00    -0.179 C  
HETATM   16  O   UNL     1      -8.962   8.885  64.347  1.00  0.00    -0.416 OA 
HETATM   17  O   UNL     1     -10.532  10.252  66.615  1.00  0.00    -0.230 OA 
HETATM   18  C   UNL     1      -8.594   9.283  65.694  1.00  0.00    -0.153 C  
HETATM   19  H   UNL     1      -8.558   8.058  64.109  1.00  0.00     0.000 HD 
HETATM   20  O   UNL     1      -9.644   7.082  66.002  1.00  0.00    -0.397 OA 
HETATM   21  H   UNL     1      -8.903   6.635  65.610  1.00  0.00     0.000 HD 
BRANCH  14  22
HETATM   22  C   UNL     1     -10.162   9.185  68.805  1.00  0.00    -0.210 C  
BRANCH  22  23
HETATM   23  O   UNL     1     -11.395   9.169  69.515  1.00  0.00    -0.042 OA 
HETATM   24  P   UNL     1     -11.762  10.700  70.231  1.00  0.00    -0.384 P  
HETATM   25  O   UNL     1     -12.091  12.070  70.872  1.00  0.00    -0.308 OA 
HETATM   26  O   UNL     1     -12.441  11.060  68.792  1.00  0.00    -0.468 OA 
HETATM   27  O   UNL     1     -13.036   9.935  70.912  1.00  0.00    -0.348 OA 
ENDBRANCH  22  23
ENDBRANCH  14  22
ENDBRANCH   8  13
TORSDOF 3
ENDMDL
MODEL      190
REMARK 921   NORMALIZED FREE ENERGY PREDICTED BY IDOCK:   -3.80 KCAL/MOL
REMARK 922        TOTAL FREE ENERGY PREDICTED BY IDOCK:   -4.94 KCAL/MOL
REMARK 923 INTER-LIGAND FREE ENERGY PREDICTED BY IDOCK:   -4.18 KCAL/MOL
REMARK 924 INTRA-LIGAND FREE ENERGY PREDICTED BY IDOCK:   -0.76 KCAL/MOL
REMARK 927      BINDING AFFINITY PREDICTED BY RF-SCORE:    0.00 PKD
ROOT
HETATM    1  N   UNL     1      -8.891  11.012  69.286  1.00  0.00    -0.383 NA 
HETATM    2  C   UNL     1      -9.610  10.052  69.984  1.00  0.00    -0.156 A  
HETATM    3  H1  UNL     1      -9.313  11.622  68.586  1.00  0.00     0.000 HD 
HETATM    4  H2  UNL     1      -8.102  10.541  68.844  1.00  0.00     0.000 HD 
HETATM    5  C   UNL     1      -9.029   9.212  70.947  1.00  0.00    -0.237 A  
HETATM    6  N   UNL     1      -7.741   9.100  71.414  1.00  0.00    -0.335 NA 
HETATM    7  C   UNL     1      -7.782   8.103  72.275  1.00  0.00    -0.120 A  
HETATM    8  N   UNL     1      -9.052   7.594  72.412  1.00  0.00    -0.135 NA 
HETATM    9  N   UNL     1     -10.923   9.899  69.701  1.00  0.00    -0.243 NA 
HETATM   10  C   UNL     1      -9.863   8.283  71.554  1.00  0.00    -0.189 A  
HETATM   11  N   UNL     1     -11.170   8.093  71.307  1.00  0.00    -0.254 NA 
HETATM   12  C   UNL     1     -11.618   8.962  70.376  1.00  0.00    -0.101 A  
ENDROOT
BRANCH   8  13
HETATM   13  C   UNL     1      -9.386   6.521  73.325  1.00  0.00    -0.131 C  
HETATM   14  C   UNL     1      -8.717   4.512  72.334  1.00  0.00    -0.117 C  
HETATM   15  C   UNL     1     -10.247   4.499  72.302  1.00  0.00    -0.192 C  
HETATM   16  O   UNL     1     -11.151   5.196  74.427  1.00  0.00    -0.355 OA 
HETATM   17  O   UNL     1      -8.325   5.549  73.260  1.00  0.00    -0.117 OA 
HETATM   18  C   UNL     1     -10.672   5.699  73.152  1.00  0.00    -0.267 C  
HETATM   19  H   UNL     1     -11.947   4.688  74.320  1.00  0.00     0.000 HD 
HETATM   20  O   UNL     1     -10.733   3.261  72.834  1.00  0.00    -0.153 OA 
HETATM   21  H   UNL     1     -11.683   3.254  72.814  1.00  0.00     0.000 HD 
BRANCH  14  22
HETATM   22  C   UNL     1      -8.154   4.768  70.930  1.00  0.00    -0.083 C  
BRANCH  22  23
HETATM   23  O   UNL     1      -9.198   5.047  70.005  1.00  0.00    -0.120 OA 
HETATM   24  P   UNL     1      -8.738   6.233  68.831  1.00  0.00    -0.123 P  
HETATM   25  O   UNL     1      -8.326   7.294  67.782  1.00  0.00    -0.117 OA 
HETATM   26  O   UNL     1      -8.142   4.971  67.986  1.00  0.00    -0.093 OA 
HETATM   27  O   UNL     1     -10.289   6.151  68.324  1.00  0.00    -0.157 OA 
ENDBRANCH  22  23
ENDBRANCH  14  22
ENDBRANCH   8  13
TORSDOF 3
ENDMDL
MODEL      191
REMARK 921   NORMALIZED FREE ENERGY PREDICTED BY IDOCK:   -3.80 KCAL/MOL
REMARK 922        TOTAL FREE ENERGY PREDICTED BY IDOCK:   -4.94 KCAL/MOL
REMARK 923 INTER-LIGAND FREE ENERGY PREDICTED BY IDOCK:   -4.20 KCAL/MOL
REMARK 924 INTRA-LIGAND FREE ENERGY PREDICTED BY IDOCK:   -0.74 KCAL/MOL
REMARK 927      BINDING AFFINITY PREDICTED BY RF-SCORE:    0.00 PKD
ROOT
HETATM    1  N   UNL     1      -8.235  10.432  64.526  1.00  0.00    -0.238 NA 
HETATM    2  C   UNL     1      -7.845  10.289  65.849  1.00  0.00    -0.139 A  
HETATM    3  H1  UNL     1      -8.049  11.273  63.979  1.00  0.00     0.000 HD 
HETATM    4  H2  UNL     1      -9.240  10.258  64.483  1.00  0.00     0.000 HD 
HETATM    5  C   UNL     1      -8.102   9.132  66.602  1.00  0.00    -0.111 A  
HETATM    6  N   UNL     1      -8.744   7.957  66.292  1.00  0.00    -0.147 NA 
HETATM    7  C   UNL     1      -8.726   7.261  67.411  1.00  0.00    -0.121 A  
HETATM    8  N   UNL     1      -8.064   7.923  68.418  1.00  0.00    -0.121 NA 
HETATM    9  N   UNL     1      -7.214  11.323  66.450  1.00  0.00    -0.097 NA 
HETATM   10  C   UNL     1      -7.671   9.134  67.921  1.00  0.00    -0.093 A  
HETATM   11  N   UNL     1      -7.042  10.134  68.562  1.00  0.00    -0.073 NA 
HETATM   12  C   UNL     1      -6.841  11.184  67.738  1.00  0.00    -0.073 A  
ENDROOT
BRANCH   8  13
HETATM   13  C   UNL     1      -7.862   7.365  69.739  1.00  0.00    -0.116 C  
HETATM   14  C   UNL     1      -9.801   7.765  70.983  1.00  0.00    -0.174 C  
HETATM   15  C   UNL     1      -8.730   8.682  71.580  1.00  0.00    -0.203 C  
HETATM   16  O   UNL     1      -6.659   7.485  71.890  1.00  0.00    -0.042 OA 
HETATM   17  O   UNL     1      -9.113   6.792  70.165  1.00  0.00    -0.154 OA 
HETATM   18  C   UNL     1      -7.421   8.247  70.917  1.00  0.00    -0.064 C  
HETATM   19  H   UNL     1      -6.386   8.030  72.618  1.00  0.00     0.000 HD 
HETATM   20  O   UNL     1      -8.694   8.520  73.003  1.00  0.00    -0.343 OA 
HETATM   21  H   UNL     1      -8.030   9.090  73.374  1.00  0.00     0.000 HD 
BRANCH  14  22
HETATM   22  C   UNL     1     -10.807   8.581  70.160  1.00  0.00    -0.233 C  
BRANCH  22  23
HETATM   23  O   UNL     1     -10.282   9.864  69.841  1.00  0.00    -0.228 OA 
HETATM   24  P   UNL     1     -11.273  10.717  68.707  1.00  0.00    -0.300 P  
HETATM   25  O   UNL     1     -12.159  11.480  67.692  1.00  0.00    -0.623 OA 
HETATM   26  O   UNL     1     -12.097  11.231  70.017  1.00  0.00    -0.306 OA 
HETATM   27  O   UNL     1     -10.089  11.845  68.711  1.00  0.00    -0.198 OA 
ENDBRANCH  22  23
ENDBRANCH  14  22
ENDBRANCH   8  13
TORSDOF 3
ENDMDL
MODEL      192
REMARK 921   NORMALIZED FREE ENERGY PREDICTED BY IDOCK:   -3.76 KCAL/MOL
REMARK 922        TOTAL FREE ENERGY PREDICTED BY IDOCK:   -4.88 KCAL/MOL
REMARK 923 INTER-LIGAND FREE ENERGY PREDICTED BY IDOCK:   -4.56 KCAL/MOL
REMARK 924 INTRA-LIGAND FREE ENERGY PREDICTED BY IDOCK:   -0.33 KCAL/MOL
REMARK 927      BINDING AFFINITY PREDICTED BY RF-SCORE:    0.00 PKD
ROOT
HETATM    1  N   UNL     1      -6.194  15.760  69.673  1.00  0.00    -0.160 NA 
HETATM    2  C   UNL     1      -6.541  14.659  68.903  1.00  0.00    -0.093 A  
HETATM    3  H1  UNL     1      -5.248  15.919  70.019  1.00  0.00     0.000 HD 
HETATM    4  H2  UNL     1      -6.821  15.780  70.477  1.00  0.00     0.000 HD 
HETATM    5  C   UNL     1      -7.844  14.440  68.427  1.00  0.00    -0.138 A  
HETATM    6  N   UNL     1      -9.010  15.153  68.573  1.00  0.00    -0.179 NA 
HETATM    7  C   UNL     1      -9.922  14.434  67.951  1.00  0.00    -0.228 A  
HETATM    8  N   UNL     1      -9.385  13.307  67.375  1.00  0.00    -0.209 NA 
HETATM    9  N   UNL     1      -5.589  13.741  68.625  1.00  0.00    -0.081 NA 
HETATM   10  C   UNL     1      -8.054  13.285  67.685  1.00  0.00    -0.174 A  
HETATM   11  N   UNL     1      -7.142  12.345  67.383  1.00  0.00    -0.148 NA 
HETATM   12  C   UNL     1      -5.930  12.669  67.883  1.00  0.00    -0.108 A  
ENDROOT
BRANCH   8  13
HETATM   13  C   UNL     1     -10.159  12.365  66.595  1.00  0.00    -0.221 C  
HETATM   14  C   UNL     1     -11.505  11.154  68.074  1.00  0.00    -0.293 C  
HETATM   15  C   UNL     1     -10.444  10.168  67.579  1.00  0.00    -0.253 C  
HETATM   16  O   UNL     1     -10.172  10.338  65.188  1.00  0.00    -0.314 OA 
HETATM   17  O   UNL     1     -11.472  12.290  67.181  1.00  0.00    -0.311 OA 
HETATM   18  C   UNL     1      -9.719  10.900  66.448  1.00  0.00    -0.201 C  
HETATM   19  H   UNL     1      -9.899   9.432  65.098  1.00  0.00     0.000 HD 
HETATM   20  O   UNL     1     -11.076   8.965  67.126  1.00  0.00    -0.314 OA 
HETATM   21  H   UNL     1     -10.417   8.353  66.819  1.00  0.00     0.000 HD 
BRANCH  14  22
HETATM   22  C   UNL     1     -11.216  11.569  69.523  1.00  0.00    -0.236 C  
BRANCH  22  23
HETATM   23  O   UNL     1     -12.409  11.968  70.187  1.00  0.00    -0.240 OA 
HETATM   24  P   UNL     1     -12.268  13.533  70.912  1.00  0.00    -0.088 P  
HETATM   25  O   UNL     1     -12.142  14.933  71.560  1.00  0.00    -0.313 OA 
HETATM   26  O   UNL     1     -12.729  14.101  69.454  1.00  0.00    -0.065 OA 
HETATM   27  O   UNL     1     -13.751  13.240  71.535  1.00  0.00    -0.192 OA 
ENDBRANCH  22  23
ENDBRANCH  14  22
ENDBRANCH   8  13
TORSDOF 3
ENDMDL
MODEL      193
REMARK 921   NORMALIZED FREE ENERGY PREDICTED BY IDOCK:   -3.73 KCAL/MOL
REMARK 922        TOTAL FREE ENERGY PREDICTED BY IDOCK:   -4.86 KCAL/MOL
REMARK 923 INTER-LIGAND FREE ENERGY PREDICTED BY IDOCK:   -4.12 KCAL/MOL
REMARK 924 INTRA-LIGAND FREE ENERGY PREDICTED BY IDOCK:   -0.74 KCAL/MOL
REMARK 927      BINDING AFFINITY PREDICTED BY RF-SCORE:    0.00 PKD
ROOT
HETATM    1  N   UNL     1      -9.101   5.233  69.611  1.00  0.00    -0.113 NA 
HETATM    2  C   UNL     1      -8.530   5.906  68.541  1.00  0.00    -0.111 A  
HETATM    3  H1  UNL     1      -8.621   4.492  70.121  1.00  0.00     0.000 HD 
HETATM    4  H2  UNL     1      -9.993   4.854  69.292  1.00  0.00     0.000 HD 
HETATM    5  C   UNL     1      -9.191   6.926  67.838  1.00  0.00    -0.124 A  
HETATM    6  N   UNL     1     -10.442   7.477  67.977  1.00  0.00    -0.208 NA 
HETATM    7  C   UNL     1     -10.531   8.358  67.001  1.00  0.00    -0.305 A  
HETATM    8  N   UNL     1      -9.373   8.425  66.263  1.00  0.00    -0.210 NA 
HETATM    9  N   UNL     1      -7.292   5.543  68.138  1.00  0.00    -0.072 NA 
HETATM   10  C   UNL     1      -8.507   7.500  66.775  1.00  0.00    -0.124 A  
HETATM   11  N   UNL     1      -7.279   7.174  66.338  1.00  0.00    -0.077 NA 
HETATM   12  C   UNL     1      -6.741   6.194  67.095  1.00  0.00    -0.057 A  
ENDROOT
BRANCH   8  13
HETATM   13  C   UNL     1      -9.186   9.341  65.157  1.00  0.00    -0.200 C  
HETATM   14  C   UNL     1      -8.331  11.337  66.025  1.00  0.00    -0.071 C  
HETATM   15  C   UNL     1      -9.766  11.653  65.598  1.00  0.00    -0.236 C  
HETATM   16  O   UNL     1     -10.226  10.741  63.412  1.00  0.00    -0.473 OA 
HETATM   17  O   UNL     1      -7.975  10.081  65.405  1.00  0.00    -0.129 OA 
HETATM   18  C   UNL     1     -10.232  10.416  64.827  1.00  0.00    -0.249 C  
HETATM   19  H   UNL     1     -10.873  11.406  63.208  1.00  0.00     0.000 HD 
HETATM   20  O   UNL     1      -9.779  12.833  64.785  1.00  0.00    -0.507 OA 
HETATM   21  H   UNL     1     -10.670  13.029  64.520  1.00  0.00     0.000 HD 
BRANCH  14  22
HETATM   22  C   UNL     1      -8.232  11.257  67.554  1.00  0.00    -0.124 C  
BRANCH  22  23
HETATM   23  O   UNL     1      -7.366  10.202  67.955  1.00  0.00    -0.085 OA 
HETATM   24  P   UNL     1      -6.983  10.270  69.641  1.00  0.00    -0.145 P  
HETATM   25  O   UNL     1      -6.640  10.330  71.149  1.00  0.00    -0.332 OA 
HETATM   26  O   UNL     1      -8.351   9.407  69.850  1.00  0.00    -0.130 OA 
HETATM   27  O   UNL     1      -5.963   9.030  69.331  1.00  0.00    -0.037 OA 
ENDBRANCH  22  23
ENDBRANCH  14  22
ENDBRANCH   8  13
TORSDOF 3
ENDMDL
MODEL      194
REMARK 921   NORMALIZED FREE ENERGY PREDICTED BY IDOCK:   -3.73 KCAL/MOL
REMARK 922        TOTAL FREE ENERGY PREDICTED BY IDOCK:   -4.85 KCAL/MOL
REMARK 923 INTER-LIGAND FREE ENERGY PREDICTED BY IDOCK:   -4.80 KCAL/MOL
REMARK 924 INTRA-LIGAND FREE ENERGY PREDICTED BY IDOCK:   -0.05 KCAL/MOL
REMARK 927      BINDING AFFINITY PREDICTED BY RF-SCORE:    0.00 PKD
ROOT
HETATM    1  N   UNL     1      -7.506   5.512  69.085  1.00  0.00    -0.077 NA 
HETATM    2  C   UNL     1      -8.716   6.174  68.944  1.00  0.00    -0.123 A  
HETATM    3  H1  UNL     1      -7.385   4.523  68.871  1.00  0.00     0.000 HD 
HETATM    4  H2  UNL     1      -7.188   5.657  70.043  1.00  0.00     0.000 HD 
HETATM    5  C   UNL     1      -8.882   7.537  69.239  1.00  0.00    -0.136 A  
HETATM    6  N   UNL     1      -8.008   8.490  69.706  1.00  0.00    -0.101 NA 
HETATM    7  C   UNL     1      -8.740   9.577  69.843  1.00  0.00    -0.210 A  
HETATM    8  N   UNL     1     -10.041   9.374  69.447  1.00  0.00    -0.189 NA 
HETATM    9  N   UNL     1      -9.793   5.468  68.533  1.00  0.00    -0.137 NA 
HETATM   10  C   UNL     1     -10.155   8.065  69.072  1.00  0.00    -0.201 A  
HETATM   11  N   UNL     1     -11.253   7.404  68.667  1.00  0.00     0.188 NA 
HETATM   12  C   UNL     1     -10.970   6.111  68.403  1.00  0.00    -0.305 A  
ENDROOT
BRANCH   8  13
HETATM   13  C   UNL     1     -11.048  10.415  69.454  1.00  0.00    -0.254 C  
HETATM   14  C   UNL     1     -11.193  11.279  67.286  1.00  0.00    -0.296 C  
HETATM   15  C   UNL     1     -10.539  12.379  68.126  1.00  0.00    -0.216 C  
HETATM   16  O   UNL     1     -11.711  12.667  70.215  1.00  0.00    -0.525 OA 
HETATM   17  O   UNL     1     -11.771  10.331  68.211  1.00  0.00    -0.265 OA 
HETATM   18  C   UNL     1     -10.660  11.897  69.574  1.00  0.00     0.245 C  
HETATM   19  H   UNL     1     -11.471  13.583  70.289  1.00  0.00     0.000 HD 
HETATM   20  O   UNL     1     -11.220  13.620  67.911  1.00  0.00    -0.255 OA 
HETATM   21  H   UNL     1     -10.814  14.303  68.433  1.00  0.00     0.000 HD 
BRANCH  14  22
HETATM   22  C   UNL     1     -10.154  10.612  66.374  1.00  0.00    -0.225 C  
BRANCH  22  23
HETATM   23  O   UNL     1      -9.832  11.451  65.271  1.00  0.00    -0.229 OA 
HETATM   24  P   UNL     1     -11.146  11.605  64.155  1.00  0.00    -0.316 P  
HETATM   25  O   UNL     1     -12.321  11.743  63.157  1.00  0.00    -0.465 OA 
HETATM   26  O   UNL     1     -11.641  12.828  65.114  1.00  0.00    -0.312 OA 
HETATM   27  O   UNL     1     -10.093  12.441  63.224  1.00  0.00    -0.398 OA 
ENDBRANCH  22  23
ENDBRANCH  14  22
ENDBRANCH   8  13
TORSDOF 3
ENDMDL
MODEL      195
REMARK 921   NORMALIZED FREE ENERGY PREDICTED BY IDOCK:   -3.73 KCAL/MOL
REMARK 922        TOTAL FREE ENERGY PREDICTED BY IDOCK:   -4.85 KCAL/MOL
REMARK 923 INTER-LIGAND FREE ENERGY PREDICTED BY IDOCK:   -4.20 KCAL/MOL
REMARK 924 INTRA-LIGAND FREE ENERGY PREDICTED BY IDOCK:   -0.65 KCAL/MOL
REMARK 927      BINDING AFFINITY PREDICTED BY RF-SCORE:    0.00 PKD
ROOT
HETATM    1  N   UNL     1      -7.528   3.923  67.947  1.00  0.00    -0.066 NA 
HETATM    2  C   UNL     1      -8.611   4.721  67.611  1.00  0.00    -0.103 A  
HETATM    3  H1  UNL     1      -7.320   3.042  67.478  1.00  0.00     0.000 HD 
HETATM    4  H2  UNL     1      -7.590   3.728  68.947  1.00  0.00     0.000 HD 
HETATM    5  C   UNL     1      -8.896   5.935  68.257  1.00  0.00    -0.110 A  
HETATM    6  N   UNL     1      -8.274   6.596  69.289  1.00  0.00    -0.122 NA 
HETATM    7  C   UNL     1      -9.023   7.659  69.505  1.00  0.00    -0.139 A  
HETATM    8  N   UNL     1     -10.080   7.730  68.629  1.00  0.00    -0.194 NA 
HETATM    9  N   UNL     1      -9.446   4.297  66.636  1.00  0.00    -0.172 NA 
HETATM   10  C   UNL     1     -10.025   6.622  67.831  1.00  0.00    -0.132 A  
HETATM   11  N   UNL     1     -10.884   6.241  66.870  1.00  0.00    -0.361 NA 
HETATM   12  C   UNL     1     -10.501   5.072  66.315  1.00  0.00    -0.303 A  
ENDROOT
BRANCH   8  13
HETATM   13  C   UNL     1     -11.034   8.819  68.619  1.00  0.00     0.139 C  
HETATM   14  C   UNL     1      -9.983  10.677  67.665  1.00  0.00    -0.169 C  
HETATM   15  C   UNL     1     -10.138  11.007  69.152  1.00  0.00    -0.146 C  
HETATM   16  O   UNL     1     -12.353  10.446  69.923  1.00  0.00    -0.489 OA 
HETATM   17  O   UNL     1     -10.847   9.551  67.393  1.00  0.00    -0.269 OA 
HETATM   18  C   UNL     1     -11.026   9.896  69.715  1.00  0.00    -0.268 C  
HETATM   19  H   UNL     1     -12.348  11.111  70.601  1.00  0.00     0.000 HD 
HETATM   20  O   UNL     1     -10.734  12.301  69.299  1.00  0.00    -0.425 OA 
HETATM   21  H   UNL     1     -10.830  12.507  70.222  1.00  0.00     0.000 HD 
BRANCH  14  22
HETATM   22  C   UNL     1      -8.518  10.354  67.338  1.00  0.00    -0.121 C  
BRANCH  22  23
HETATM   23  O   UNL     1      -7.645  10.895  68.322  1.00  0.00    -0.092 OA 
HETATM   24  P   UNL     1      -6.636  12.150  67.687  1.00  0.00    -0.147 P  
HETATM   25  O   UNL     1      -5.734  13.272  67.120  1.00  0.00    -0.323 OA 
HETATM   26  O   UNL     1      -7.878  13.146  68.047  1.00  0.00    -0.122 OA 
HETATM   27  O   UNL     1      -5.910  12.135  69.152  1.00  0.00    -0.061 OA 
ENDBRANCH  22  23
ENDBRANCH  14  22
ENDBRANCH   8  13
TORSDOF 3
ENDMDL
MODEL      196
REMARK 921   NORMALIZED FREE ENERGY PREDICTED BY IDOCK:   -3.70 KCAL/MOL
REMARK 922        TOTAL FREE ENERGY PREDICTED BY IDOCK:   -4.82 KCAL/MOL
REMARK 923 INTER-LIGAND FREE ENERGY PREDICTED BY IDOCK:   -4.41 KCAL/MOL
REMARK 924 INTRA-LIGAND FREE ENERGY PREDICTED BY IDOCK:   -0.42 KCAL/MOL
REMARK 927      BINDING AFFINITY PREDICTED BY RF-SCORE:    0.00 PKD
ROOT
HETATM    1  N   UNL     1     -13.263  10.103  70.924  1.00  0.00    -0.513 NA 
HETATM    2  C   UNL     1     -12.704   8.856  71.162  1.00  0.00    -0.159 A  
HETATM    3  H1  UNL     1     -14.194  10.366  71.247  1.00  0.00     0.000 HD 
HETATM    4  H2  UNL     1     -13.233  10.264  69.917  1.00  0.00     0.000 HD 
HETATM    5  C   UNL     1     -11.423   8.494  70.717  1.00  0.00    -0.253 A  
HETATM    6  N   UNL     1     -10.473   9.177  69.996  1.00  0.00    -0.210 NA 
HETATM    7  C   UNL     1      -9.492   8.313  69.830  1.00  0.00    -0.167 A  
HETATM    8  N   UNL     1      -9.755   7.113  70.449  1.00  0.00    -0.176 NA 
HETATM    9  N   UNL     1     -13.440   7.937  71.827  1.00  0.00    -0.345 NA 
HETATM   10  C   UNL     1     -10.998   7.205  71.008  1.00  0.00    -0.252 A  
HETATM   11  N   UNL     1     -11.691   6.258  71.664  1.00  0.00    -0.304 NA 
HETATM   12  C   UNL     1     -12.898   6.724  72.052  1.00  0.00    -0.149 A  
ENDROOT
BRANCH   8  13
HETATM   13  C   UNL     1      -8.826   6.002  70.459  1.00  0.00    -0.145 C  
HETATM   14  C   UNL     1      -8.987   4.923  68.391  1.00  0.00    -0.109 C  
HETATM   15  C   UNL     1      -9.612   3.964  69.407  1.00  0.00    -0.169 C  
HETATM   16  O   UNL     1      -8.232   3.791  71.378  1.00  0.00    -0.067 OA 
HETATM   17  O   UNL     1      -8.245   5.908  69.144  1.00  0.00    -0.104 OA 
HETATM   18  C   UNL     1      -9.295   4.574  70.775  1.00  0.00    -0.151 C  
HETATM   19  H   UNL     1      -8.522   2.907  71.574  1.00  0.00     0.000 HD 
HETATM   20  O   UNL     1      -9.045   2.658  69.254  1.00  0.00    -0.100 OA 
HETATM   21  H   UNL     1      -9.433   2.063  69.884  1.00  0.00     0.000 HD 
BRANCH  14  22
HETATM   22  C   UNL     1     -10.076   5.576  67.529  1.00  0.00    -0.180 C  
BRANCH  22  23
HETATM   23  O   UNL     1      -9.650   5.702  66.178  1.00  0.00    -0.158 OA 
HETATM   24  P   UNL     1      -9.489   4.168  65.393  1.00  0.00    -0.197 P  
HETATM   25  O   UNL     1      -9.345   2.796  64.691  1.00  0.00    -0.141 OA 
HETATM   26  O   UNL     1     -11.075   4.328  65.049  1.00  0.00    -0.226 OA 
HETATM   27  O   UNL     1      -8.884   5.017  64.134  1.00  0.00    -0.131 OA 
ENDBRANCH  22  23
ENDBRANCH  14  22
ENDBRANCH   8  13
TORSDOF 3
ENDMDL
MODEL      197
REMARK 921   NORMALIZED FREE ENERGY PREDICTED BY IDOCK:   -3.69 KCAL/MOL
REMARK 922        TOTAL FREE ENERGY PREDICTED BY IDOCK:   -4.81 KCAL/MOL
REMARK 923 INTER-LIGAND FREE ENERGY PREDICTED BY IDOCK:   -4.37 KCAL/MOL
REMARK 924 INTRA-LIGAND FREE ENERGY PREDICTED BY IDOCK:   -0.44 KCAL/MOL
REMARK 927      BINDING AFFINITY PREDICTED BY RF-SCORE:    0.00 PKD
ROOT
HETATM    1  N   UNL     1      -8.456   8.588  72.670  1.00  0.00    -0.370 NA 
HETATM    2  C   UNL     1      -8.211   9.190  71.445  1.00  0.00     0.059 A  
HETATM    3  H1  UNL     1      -7.737   8.470  73.384  1.00  0.00     0.000 HD 
HETATM    4  H2  UNL     1      -8.855   7.668  72.484  1.00  0.00     0.000 HD 
HETATM    5  C   UNL     1      -9.200   9.352  70.462  1.00  0.00    -0.259 A  
HETATM    6  N   UNL     1     -10.527   8.998  70.424  1.00  0.00    -0.201 NA 
HETATM    7  C   UNL     1     -10.937   9.356  69.224  1.00  0.00    -0.117 A  
HETATM    8  N   UNL     1      -9.937   9.964  68.500  1.00  0.00    -0.155 NA 
HETATM    9  N   UNL     1      -6.956   9.612  71.173  1.00  0.00    -0.326 NA 
HETATM   10  C   UNL     1      -8.810   9.955  69.273  1.00  0.00    -0.174 A  
HETATM   11  N   UNL     1      -7.578  10.389  68.957  1.00  0.00    -0.097 NA 
HETATM   12  C   UNL     1      -6.719  10.192  69.980  1.00  0.00    -0.127 A  
ENDROOT
BRANCH   8  13
HETATM   13  C   UNL     1     -10.129  10.492  67.166  1.00  0.00    -0.209 C  
HETATM   14  C   UNL     1      -9.357   8.889  65.649  1.00  0.00    -0.191 C  
HETATM   15  C   UNL     1      -8.346  10.036  65.588  1.00  0.00    -0.145 C  
HETATM   16  O   UNL     1      -9.476  12.164  65.473  1.00  0.00    -0.390 OA 
HETATM   17  O   UNL     1     -10.532   9.399  66.319  1.00  0.00    -0.185 OA 
HETATM   18  C   UNL     1      -8.978  11.166  66.403  1.00  0.00    -0.182 C  
HETATM   19  H   UNL     1      -8.764  12.581  65.001  1.00  0.00     0.000 HD 
HETATM   20  O   UNL     1      -8.124  10.412  64.224  1.00  0.00    -0.211 OA 
HETATM   21  H   UNL     1      -7.495  11.124  64.186  1.00  0.00     0.000 HD 
BRANCH  14  22
HETATM   22  C   UNL     1      -8.761   7.688  66.397  1.00  0.00    -0.151 C  
BRANCH  22  23
HETATM   23  O   UNL     1      -9.454   6.489  66.070  1.00  0.00    -0.083 OA 
HETATM   24  P   UNL     1      -9.863   5.562  67.474  1.00  0.00    -0.172 P  
HETATM   25  O   UNL     1     -10.228   4.733  68.728  1.00  0.00    -0.117 OA 
HETATM   26  O   UNL     1     -11.207   6.485  67.527  1.00  0.00    -0.343 OA 
HETATM   27  O   UNL     1     -10.391   4.431  66.418  1.00  0.00    -0.222 OA 
ENDBRANCH  22  23
ENDBRANCH  14  22
ENDBRANCH   8  13
TORSDOF 3
ENDMDL
MODEL      198
REMARK 921   NORMALIZED FREE ENERGY PREDICTED BY IDOCK:   -3.69 KCAL/MOL
REMARK 922        TOTAL FREE ENERGY PREDICTED BY IDOCK:   -4.80 KCAL/MOL
REMARK 923 INTER-LIGAND FREE ENERGY PREDICTED BY IDOCK:   -4.32 KCAL/MOL
REMARK 924 INTRA-LIGAND FREE ENERGY PREDICTED BY IDOCK:   -0.49 KCAL/MOL
REMARK 927      BINDING AFFINITY PREDICTED BY RF-SCORE:    0.00 PKD
ROOT
HETATM    1  N   UNL     1     -11.628  19.809  67.567  1.00  0.00     0.573 NA 
HETATM    2  C   UNL     1     -10.396  19.205  67.362  1.00  0.00    -0.430 A  
HETATM    3  H1  UNL     1     -11.909  20.671  67.100  1.00  0.00     0.000 HD 
HETATM    4  H2  UNL     1     -11.733  19.958  68.570  1.00  0.00     0.000 HD 
HETATM    5  C   UNL     1     -10.010  18.018  68.005  1.00  0.00    -0.343 A  
HETATM    6  N   UNL     1     -10.652  17.215  68.917  1.00  0.00    -0.336 NA 
HETATM    7  C   UNL     1      -9.779  16.270  69.205  1.00  0.00    -0.265 A  
HETATM    8  N   UNL     1      -8.616  16.409  68.485  1.00  0.00    -0.212 NA 
HETATM    9  N   UNL     1      -9.516  19.804  66.529  1.00  0.00    -0.378 NA 
HETATM   10  C   UNL     1      -8.739  17.536  67.721  1.00  0.00    -0.230 A  
HETATM   11  N   UNL     1      -7.831  18.094  66.903  1.00  0.00    -0.222 NA 
HETATM   12  C   UNL     1      -8.317  19.219  66.336  1.00  0.00    -0.321 A  
ENDROOT
BRANCH   8  13
HETATM   13  C   UNL     1      -7.507  15.482  68.577  1.00  0.00    -0.118 C  
HETATM   14  C   UNL     1      -8.043  13.605  67.290  1.00  0.00    -0.139 C  
HETATM   15  C   UNL     1      -8.107  13.140  68.747  1.00  0.00     0.073 C  
HETATM   16  O   UNL     1      -6.195  13.936  69.982  1.00  0.00    -0.137 OA 
HETATM   17  O   UNL     1      -7.344  14.870  67.283  1.00  0.00    -0.199 OA 
HETATM   18  C   UNL     1      -7.535  14.302  69.560  1.00  0.00     0.091 C  
HETATM   19  H   UNL     1      -6.212  13.207  70.591  1.00  0.00     0.000 HD 
HETATM   20  O   UNL     1      -7.340  11.940  68.906  1.00  0.00    -0.122 OA 
HETATM   21  H   UNL     1      -7.381  11.651  69.810  1.00  0.00     0.000 HD 
BRANCH  14  22
HETATM   22  C   UNL     1      -9.457  13.740  66.708  1.00  0.00    -0.275 C  
BRANCH  22  23
HETATM   23  O   UNL     1     -10.293  12.676  67.147  1.00  0.00    -0.230 OA 
HETATM   24  P   UNL     1     -11.574  13.226  68.172  1.00  0.00    -0.370 P  
HETATM   25  O   UNL     1     -12.720  13.718  69.089  1.00  0.00     0.123 OA 
HETATM   26  O   UNL     1     -12.395  13.478  66.785  1.00  0.00    -0.365 OA 
HETATM   27  O   UNL     1     -11.925  11.642  68.373  1.00  0.00    -0.483 OA 
ENDBRANCH  22  23
ENDBRANCH  14  22
ENDBRANCH   8  13
TORSDOF 3
ENDMDL
MODEL      199
REMARK 921   NORMALIZED FREE ENERGY PREDICTED BY IDOCK:   -3.69 KCAL/MOL
REMARK 922        TOTAL FREE ENERGY PREDICTED BY IDOCK:   -4.80 KCAL/MOL
REMARK 923 INTER-LIGAND FREE ENERGY PREDICTED BY IDOCK:   -4.16 KCAL/MOL
REMARK 924 INTRA-LIGAND FREE ENERGY PREDICTED BY IDOCK:   -0.64 KCAL/MOL
REMARK 927      BINDING AFFINITY PREDICTED BY RF-SCORE:    0.00 PKD
ROOT
HETATM    1  N   UNL     1      -9.016  12.674  67.557  1.00  0.00    -0.177 NA 
HETATM    2  C   UNL     1      -9.068  11.311  67.305  1.00  0.00    -0.156 A  
HETATM    3  H1  UNL     1      -9.355  13.374  66.897  1.00  0.00     0.000 HD 
HETATM    4  H2  UNL     1      -8.047  12.907  67.777  1.00  0.00     0.000 HD 
HETATM    5  C   UNL     1      -8.600  10.347  68.213  1.00  0.00    -0.128 A  
HETATM    6  N   UNL     1      -8.016  10.458  69.453  1.00  0.00    -0.156 NA 
HETATM    7  C   UNL     1      -7.739   9.218  69.804  1.00  0.00    -0.096 A  
HETATM    8  N   UNL     1      -8.156   8.310  68.859  1.00  0.00    -0.113 NA 
HETATM    9  N   UNL     1      -9.564  10.893  66.119  1.00  0.00    -0.195 NA 
HETATM   10  C   UNL     1      -8.696   9.019  67.822  1.00  0.00    -0.125 A  
HETATM   11  N   UNL     1      -9.179   8.555  66.657  1.00  0.00    -0.165 NA 
HETATM   12  C   UNL     1      -9.608   9.568  65.874  1.00  0.00    -0.261 A  
ENDROOT
BRANCH   8  13
HETATM   13  C   UNL     1      -8.013   6.878  69.013  1.00  0.00    -0.116 C  
HETATM   14  C   UNL     1     -10.075   6.029  69.715  1.00  0.00    -0.191 C  
HETATM   15  C   UNL     1      -9.145   5.908  70.925  1.00  0.00    -0.149 C  
HETATM   16  O   UNL     1      -7.006   5.008  70.269  1.00  0.00    -0.049 OA 
HETATM   17  O   UNL     1      -9.237   6.267  68.563  1.00  0.00    -0.125 OA 
HETATM   18  C   UNL     1      -7.752   6.247  70.390  1.00  0.00    -0.098 C  
HETATM   19  H   UNL     1      -6.844   4.618  71.120  1.00  0.00     0.000 HD 
HETATM   20  O   UNL     1      -9.212   4.579  71.454  1.00  0.00    -0.126 OA 
HETATM   21  H   UNL     1      -8.635   4.504  72.205  1.00  0.00     0.000 HD 
BRANCH  14  22
HETATM   22  C   UNL     1     -11.080   7.170  69.924  1.00  0.00    -0.235 C  
BRANCH  22  23
HETATM   23  O   UNL     1     -11.329   7.383  71.309  1.00  0.00    -0.254 OA 
HETATM   24  P   UNL     1     -12.415   8.701  71.587  1.00  0.00    -0.362 P  
HETATM   25  O   UNL     1     -13.387   9.880  71.837  1.00  0.00    -0.407 OA 
HETATM   26  O   UNL     1     -13.596   7.590  71.408  1.00  0.00    -0.362 OA 
HETATM   27  O   UNL     1     -12.100   8.462  73.174  1.00  0.00    -0.119 OA 
ENDBRANCH  22  23
ENDBRANCH  14  22
ENDBRANCH   8  13
TORSDOF 3
ENDMDL
MODEL      200
REMARK 921   NORMALIZED FREE ENERGY PREDICTED BY IDOCK:   -3.66 KCAL/MOL
REMARK 922        TOTAL FREE ENERGY PREDICTED BY IDOCK:   -4.77 KCAL/MOL
REMARK 923 INTER-LIGAND FREE ENERGY PREDICTED BY IDOCK:   -4.04 KCAL/MOL
REMARK 924 INTRA-LIGAND FREE ENERGY PREDICTED BY IDOCK:   -0.73 KCAL/MOL
REMARK 927      BINDING AFFINITY PREDICTED BY RF-SCORE:    0.00 PKD
ROOT
HETATM    1  N   UNL     1      -8.260  10.945  64.948  1.00  0.00    -0.370 NA 
HETATM    2  C   UNL     1      -8.327  10.920  66.333  1.00  0.00    -0.162 A  
HETATM    3  H1  UNL     1      -7.687  11.612  64.431  1.00  0.00     0.000 HD 
HETATM    4  H2  UNL     1      -9.214  11.026  64.597  1.00  0.00     0.000 HD 
HETATM    5  C   UNL     1      -9.115  10.002  67.045  1.00  0.00    -0.142 A  
HETATM    6  N   UNL     1      -9.953   8.994  66.631  1.00  0.00    -0.256 NA 
HETATM    7  C   UNL     1     -10.463   8.504  67.743  1.00  0.00    -0.223 A  
HETATM    8  N   UNL     1      -9.957   9.128  68.859  1.00  0.00    -0.175 NA 
HETATM    9  N   UNL     1      -7.624  11.842  67.029  1.00  0.00    -0.151 NA 
HETATM   10  C   UNL     1      -9.102  10.104  68.429  1.00  0.00    -0.133 A  
HETATM   11  N   UNL     1      -8.423  11.002  69.163  1.00  0.00    -0.074 NA 
HETATM   12  C   UNL     1      -7.695  11.820  68.374  1.00  0.00    -0.131 A  
ENDROOT
BRANCH   8  13
HETATM   13  C   UNL     1     -10.316   8.756  70.211  1.00  0.00    -0.203 C  
HETATM   14  C   UNL     1      -9.159   6.793  70.738  1.00  0.00    -0.151 C  
HETATM   15  C   UNL     1     -10.627   6.383  70.600  1.00  0.00    -0.237 C  
HETATM   16  O   UNL     1     -12.061   7.942  71.755  1.00  0.00    -0.280 OA 
HETATM   17  O   UNL     1      -9.134   8.234  70.847  1.00  0.00    -0.141 OA 
HETATM   18  C   UNL     1     -11.398   7.700  70.486  1.00  0.00    -0.250 C  
HETATM   19  H   UNL     1     -12.730   7.290  71.925  1.00  0.00     0.000 HD 
HETATM   20  O   UNL     1     -11.026   5.622  71.746  1.00  0.00    -0.256 OA 
HETATM   21  H   UNL     1     -11.938   5.367  71.660  1.00  0.00     0.000 HD 
BRANCH  14  22
HETATM   22  C   UNL     1      -8.351   6.307  69.528  1.00  0.00    -0.118 C  
BRANCH  22  23
HETATM   23  O   UNL     1      -8.853   5.066  69.045  1.00  0.00    -0.091 OA 
HETATM   24  P   UNL     1      -8.715   4.925  67.326  1.00  0.00    -0.103 P  
HETATM   25  O   UNL     1      -8.593   4.798  65.788  1.00  0.00    -0.119 OA 
HETATM   26  O   UNL     1      -7.216   4.356  67.627  1.00  0.00    -0.066 OA 
HETATM   27  O   UNL     1      -9.543   3.526  67.500  1.00  0.00    -0.207 OA 
ENDBRANCH  22  23
ENDBRANCH  14  22
ENDBRANCH   8  13
TORSDOF 3
ENDMDL
MODEL      201
REMARK 921   NORMALIZED FREE ENERGY PREDICTED BY IDOCK:   -3.65 KCAL/MOL
REMARK 922        TOTAL FREE ENERGY PREDICTED BY IDOCK:   -4.76 KCAL/MOL
REMARK 923 INTER-LIGAND FREE ENERGY PREDICTED BY IDOCK:   -4.69 KCAL/MOL
REMARK 924 INTRA-LIGAND FREE ENERGY PREDICTED BY IDOCK:   -0.07 KCAL/MOL
REMARK 927      BINDING AFFINITY PREDICTED BY RF-SCORE:    0.00 PKD
ROOT
HETATM    1  N   UNL     1     -10.294   5.532  69.361  1.00  0.00    -0.257 NA 
HETATM    2  C   UNL     1      -9.313   6.504  69.236  1.00  0.00    -0.141 A  
HETATM    3  H1  UNL     1     -10.093   4.533  69.335  1.00  0.00     0.000 HD 
HETATM    4  H2  UNL     1     -11.002   5.719  68.650  1.00  0.00     0.000 HD 
HETATM    5  C   UNL     1      -9.589   7.880  69.271  1.00  0.00    -0.157 A  
HETATM    6  N   UNL     1     -10.765   8.579  69.410  1.00  0.00    -0.198 NA 
HETATM    7  C   UNL     1     -10.415   9.846  69.316  1.00  0.00    -0.221 A  
HETATM    8  N   UNL     1      -9.056   9.993  69.162  1.00  0.00    -0.172 NA 
HETATM    9  N   UNL     1      -8.035   6.108  69.041  1.00  0.00    -0.107 NA 
HETATM   10  C   UNL     1      -8.512   8.741  69.114  1.00  0.00    -0.123 A  
HETATM   11  N   UNL     1      -7.228   8.396  68.918  1.00  0.00    -0.076 NA 
HETATM   12  C   UNL     1      -7.083   7.053  68.915  1.00  0.00    -0.085 A  
ENDROOT
BRANCH   8  13
HETATM   13  C   UNL     1      -8.400  11.281  69.076  1.00  0.00    -0.008 C  
HETATM   14  C   UNL     1      -8.534  12.000  66.855  1.00  0.00    -0.172 C  
HETATM   15  C   UNL     1      -7.062  11.649  67.088  1.00  0.00    -0.143 C  
HETATM   16  O   UNL     1      -6.291  12.557  69.185  1.00  0.00    -0.083 OA 
HETATM   17  O   UNL     1      -9.155  12.093  68.156  1.00  0.00    -0.186 OA 
HETATM   18  C   UNL     1      -6.947  11.404  68.594  1.00  0.00    -0.087 C  
HETATM   19  H   UNL     1      -5.392  12.633  68.887  1.00  0.00     0.000 HD 
HETATM   20  O   UNL     1      -6.232  12.731  66.651  1.00  0.00    -0.355 OA 
HETATM   21  H   UNL     1      -5.319  12.514  66.795  1.00  0.00     0.000 HD 
BRANCH  14  22
HETATM   22  C   UNL     1      -9.209  10.930  65.986  1.00  0.00    -0.188 C  
BRANCH  22  23
HETATM   23  O   UNL     1      -9.690  11.490  64.770  1.00  0.00    -0.239 OA 
HETATM   24  P   UNL     1     -11.333  12.018  64.893  1.00  0.00    -0.249 P  
HETATM   25  O   UNL     1     -12.803  12.490  65.004  1.00  0.00    -0.742 OA 
HETATM   26  O   UNL     1     -10.701  13.417  65.445  1.00  0.00    -0.286 OA 
HETATM   27  O   UNL     1     -11.225  12.321  63.291  1.00  0.00    -0.419 OA 
ENDBRANCH  22  23
ENDBRANCH  14  22
ENDBRANCH   8  13
TORSDOF 3
ENDMDL
MODEL      202
REMARK 921   NORMALIZED FREE ENERGY PREDICTED BY IDOCK:   -3.65 KCAL/MOL
REMARK 922        TOTAL FREE ENERGY PREDICTED BY IDOCK:   -4.76 KCAL/MOL
REMARK 923 INTER-LIGAND FREE ENERGY PREDICTED BY IDOCK:   -4.10 KCAL/MOL
REMARK 924 INTRA-LIGAND FREE ENERGY PREDICTED BY IDOCK:   -0.66 KCAL/MOL
REMARK 927      BINDING AFFINITY PREDICTED BY RF-SCORE:    0.00 PKD
ROOT
HETATM    1  N   UNL     1     -11.247  10.563  68.528  1.00  0.00    -0.318 NA 
HETATM    2  C   UNL     1     -11.135   9.568  69.488  1.00  0.00    -0.142 A  
HETATM    3  H1  UNL     1     -11.469  11.532  68.756  1.00  0.00     0.000 HD 
HETATM    4  H2  UNL     1     -11.929  10.248  67.839  1.00  0.00     0.000 HD 
HETATM    5  C   UNL     1     -10.830   8.234  69.174  1.00  0.00    -0.017 A  
HETATM    6  N   UNL     1     -10.594   7.601  67.977  1.00  0.00    -0.186 NA 
HETATM    7  C   UNL     1     -10.414   6.335  68.297  1.00  0.00    -0.228 A  
HETATM    8  N   UNL     1     -10.487   6.133  69.655  1.00  0.00    -0.225 NA 
HETATM    9  N   UNL     1     -11.361   9.892  70.781  1.00  0.00    -0.326 NA 
HETATM   10  C   UNL     1     -10.770   7.339  70.233  1.00  0.00    -0.236 A  
HETATM   11  N   UNL     1     -10.986   7.612  71.531  1.00  0.00    -0.231 NA 
HETATM   12  C   UNL     1     -11.258   8.922  71.711  1.00  0.00    -0.362 A  
ENDROOT
BRANCH   8  13
HETATM   13  C   UNL     1     -10.284   4.843  70.280  1.00  0.00    -0.229 C  
HETATM   14  C   UNL     1      -8.210   4.892  71.358  1.00  0.00    -0.112 C  
HETATM   15  C   UNL     1      -8.031   3.957  70.159  1.00  0.00    -0.047 C  
HETATM   16  O   UNL     1      -9.886   2.425  69.987  1.00  0.00     0.031 OA 
HETATM   17  O   UNL     1      -9.633   5.068  71.544  1.00  0.00    -0.147 OA 
HETATM   18  C   UNL     1      -9.441   3.752  69.601  1.00  0.00    -0.188 C  
HETATM   19  H   UNL     1      -9.365   1.751  69.567  1.00  0.00     0.000 HD 
HETATM   20  O   UNL     1      -7.436   2.728  70.590  1.00  0.00    -0.037 OA 
HETATM   21  H   UNL     1      -7.325   2.147  69.846  1.00  0.00     0.000 HD 
BRANCH  14  22
HETATM   22  C   UNL     1      -7.506   6.232  71.103  1.00  0.00    -0.085 C  
BRANCH  22  23
HETATM   23  O   UNL     1      -7.650   7.103  72.218  1.00  0.00    -0.087 OA 
HETATM   24  P   UNL     1      -6.640   8.503  72.093  1.00  0.00    -0.035 P  
HETATM   25  O   UNL     1      -5.737   9.755  71.982  1.00  0.00    -0.247 OA 
HETATM   26  O   UNL     1      -7.877   9.155  71.253  1.00  0.00    -0.276 OA 
HETATM   27  O   UNL     1      -7.161   8.859  73.601  1.00  0.00    -0.366 OA 
ENDBRANCH  22  23
ENDBRANCH  14  22
ENDBRANCH   8  13
TORSDOF 3
ENDMDL
MODEL      203
REMARK 921   NORMALIZED FREE ENERGY PREDICTED BY IDOCK:   -3.65 KCAL/MOL
REMARK 922        TOTAL FREE ENERGY PREDICTED BY IDOCK:   -4.76 KCAL/MOL
REMARK 923 INTER-LIGAND FREE ENERGY PREDICTED BY IDOCK:   -4.00 KCAL/MOL
REMARK 924 INTRA-LIGAND FREE ENERGY PREDICTED BY IDOCK:   -0.76 KCAL/MOL
REMARK 927      BINDING AFFINITY PREDICTED BY RF-SCORE:    0.00 PKD
ROOT
HETATM    1  N   UNL     1     -10.882  10.046  70.839  1.00  0.00    -0.350 NA 
HETATM    2  C   UNL     1     -10.795   9.365  69.633  1.00  0.00    -0.228 A  
HETATM    3  H1  UNL     1     -10.907  11.063  70.902  1.00  0.00     0.000 HD 
HETATM    4  H2  UNL     1     -10.115   9.722  71.428  1.00  0.00     0.000 HD 
HETATM    5  C   UNL     1     -10.762   7.964  69.546  1.00  0.00    -0.192 A  
HETATM    6  N   UNL     1     -10.789   6.982  70.507  1.00  0.00    -0.242 NA 
HETATM    7  C   UNL     1     -10.676   5.853  69.837  1.00  0.00    -0.336 A  
HETATM    8  N   UNL     1     -10.617   6.066  68.479  1.00  0.00    -0.238 NA 
HETATM    9  N   UNL     1     -10.709  10.085  68.492  1.00  0.00    -0.221 NA 
HETATM   10  C   UNL     1     -10.653   7.417  68.275  1.00  0.00    -0.157 A  
HETATM   11  N   UNL     1     -10.564   8.089  67.114  1.00  0.00    -0.329 NA 
HETATM   12  C   UNL     1     -10.619   9.422  67.322  1.00  0.00    -0.244 A  
ENDROOT
BRANCH   8  13
HETATM   13  C   UNL     1     -10.533   4.995  67.508  1.00  0.00    -0.026 C  
HETATM   14  C   UNL     1      -8.339   4.187  67.528  1.00  0.00    -0.098 C  
HETATM   15  C   UNL     1      -8.496   4.923  66.195  1.00  0.00    -0.112 C  
HETATM   16  O   UNL     1     -10.579   4.327  65.133  1.00  0.00    -0.455 OA 
HETATM   17  O   UNL     1      -9.670   3.980  68.054  1.00  0.00    -0.154 OA 
HETATM   18  C   UNL     1      -9.989   5.243  66.093  1.00  0.00    -0.165 C  
HETATM   19  H   UNL     1     -10.243   4.481  64.258  1.00  0.00     0.000 HD 
HETATM   20  O   UNL     1      -8.050   4.083  65.124  1.00  0.00    -0.096 OA 
HETATM   21  H   UNL     1      -8.147   4.539  64.297  1.00  0.00     0.000 HD 
BRANCH  14  22
HETATM   22  C   UNL     1      -7.475   5.009  68.495  1.00  0.00    -0.074 C  
BRANCH  22  23
HETATM   23  O   UNL     1      -7.149   6.276  67.936  1.00  0.00    -0.079 OA 
HETATM   24  P   UNL     1      -7.087   7.526  69.130  1.00  0.00    -0.082 P  
HETATM   25  O   UNL     1      -7.032   8.645  70.199  1.00  0.00    -0.041 OA 
HETATM   26  O   UNL     1      -5.535   7.067  69.337  1.00  0.00    -0.014 OA 
HETATM   27  O   UNL     1      -6.869   8.546  67.871  1.00  0.00    -0.065 OA 
ENDBRANCH  22  23
ENDBRANCH  14  22
ENDBRANCH   8  13
TORSDOF 3
ENDMDL
MODEL      204
REMARK 921   NORMALIZED FREE ENERGY PREDICTED BY IDOCK:   -3.62 KCAL/MOL
REMARK 922        TOTAL FREE ENERGY PREDICTED BY IDOCK:   -4.72 KCAL/MOL
REMARK 923 INTER-LIGAND FREE ENERGY PREDICTED BY IDOCK:   -4.05 KCAL/MOL
REMARK 924 INTRA-LIGAND FREE ENERGY PREDICTED BY IDOCK:   -0.67 KCAL/MOL
REMARK 927      BINDING AFFINITY PREDICTED BY RF-SCORE:    0.00 PKD
ROOT
HETATM    1  N   UNL     1      -8.648   3.060  69.654  1.00  0.00    -0.061 NA 
HETATM    2  C   UNL     1      -8.854   4.220  70.385  1.00  0.00    -0.085 A  
HETATM    3  H1  UNL     1      -9.201   2.213  69.788  1.00  0.00     0.000 HD 
HETATM    4  H2  UNL     1      -7.666   2.803  69.758  1.00  0.00     0.000 HD 
HETATM    5  C   UNL     1      -8.094   5.386  70.201  1.00  0.00    -0.089 A  
HETATM    6  N   UNL     1      -7.048   5.678  69.358  1.00  0.00    -0.063 NA 
HETATM    7  C   UNL     1      -6.701   6.911  69.670  1.00  0.00    -0.050 A  
HETATM    8  N   UNL     1      -7.507   7.439  70.652  1.00  0.00    -0.077 NA 
HETATM    9  N   UNL     1      -9.811   4.218  71.340  1.00  0.00    -0.187 NA 
HETATM   10  C   UNL     1      -8.396   6.467  71.017  1.00  0.00    -0.126 A  
HETATM   11  N   UNL     1      -9.335   6.513  71.978  1.00  0.00    -0.148 NA 
HETATM   12  C   UNL     1     -10.006   5.345  72.054  1.00  0.00    -0.184 A  
ENDROOT
BRANCH   8  13
HETATM   13  C   UNL     1      -7.371   8.791  71.152  1.00  0.00    -0.097 C  
HETATM   14  C   UNL     1      -8.686  10.180  69.808  1.00  0.00    -0.126 C  
HETATM   15  C   UNL     1      -7.236  10.527  69.464  1.00  0.00    -0.137 C  
HETATM   16  O   UNL     1      -5.916  10.758  71.470  1.00  0.00    -0.320 OA 
HETATM   17  O   UNL     1      -8.658   9.427  71.041  1.00  0.00    -0.274 OA 
HETATM   18  C   UNL     1      -6.394   9.785  70.505  1.00  0.00    -0.100 C  
HETATM   19  H   UNL     1      -5.312  11.373  71.070  1.00  0.00     0.000 HD 
HETATM   20  O   UNL     1      -7.049  11.945  69.530  1.00  0.00    -0.320 OA 
HETATM   21  H   UNL     1      -6.148  12.160  69.316  1.00  0.00     0.000 HD 
BRANCH  14  22
HETATM   22  C   UNL     1      -9.329   9.374  68.671  1.00  0.00    -0.142 C  
BRANCH  22  23
HETATM   23  O   UNL     1     -10.621   9.877  68.356  1.00  0.00    -0.201 OA 
HETATM   24  P   UNL     1     -10.617  11.589  68.101  1.00  0.00    -0.222 P  
HETATM   25  O   UNL     1     -10.614  13.120  67.874  1.00  0.00    -0.225 OA 
HETATM   26  O   UNL     1     -10.236  11.223  66.558  1.00  0.00    -0.214 OA 
HETATM   27  O   UNL     1     -12.242  11.449  67.986  1.00  0.00    -0.607 OA 
ENDBRANCH  22  23
ENDBRANCH  14  22
ENDBRANCH   8  13
TORSDOF 3
ENDMDL
MODEL      205
REMARK 921   NORMALIZED FREE ENERGY PREDICTED BY IDOCK:   -3.62 KCAL/MOL
REMARK 922        TOTAL FREE ENERGY PREDICTED BY IDOCK:   -4.72 KCAL/MOL
REMARK 923 INTER-LIGAND FREE ENERGY PREDICTED BY IDOCK:   -4.13 KCAL/MOL
REMARK 924 INTRA-LIGAND FREE ENERGY PREDICTED BY IDOCK:   -0.59 KCAL/MOL
REMARK 927      BINDING AFFINITY PREDICTED BY RF-SCORE:    0.00 PKD
ROOT
HETATM    1  N   UNL     1      -9.023   5.354  69.723  1.00  0.00    -0.122 NA 
HETATM    2  C   UNL     1      -8.507   6.002  68.610  1.00  0.00    -0.113 A  
HETATM    3  H1  UNL     1      -8.524   4.614  70.216  1.00  0.00     0.000 HD 
HETATM    4  H2  UNL     1      -9.938   4.985  69.464  1.00  0.00     0.000 HD 
HETATM    5  C   UNL     1      -9.193   7.020  67.931  1.00  0.00    -0.125 A  
HETATM    6  N   UNL     1     -10.426   7.593  68.134  1.00  0.00    -0.200 NA 
HETATM    7  C   UNL     1     -10.560   8.460  67.151  1.00  0.00    -0.256 A  
HETATM    8  N   UNL     1      -9.446   8.497  66.344  1.00  0.00    -0.214 NA 
HETATM    9  N   UNL     1      -7.300   5.613  68.141  1.00  0.00    -0.072 NA 
HETATM   10  C   UNL     1      -8.565   7.567  66.820  1.00  0.00    -0.127 A  
HETATM   11  N   UNL     1      -7.370   7.215  66.316  1.00  0.00    -0.074 NA 
HETATM   12  C   UNL     1      -6.802   6.239  67.057  1.00  0.00    -0.062 A  
ENDROOT
BRANCH   8  13
HETATM   13  C   UNL     1      -9.311   9.393  65.214  1.00  0.00    -0.238 C  
HETATM   14  C   UNL     1      -8.213  11.317  65.960  1.00  0.00    -0.045 C  
HETATM   15  C   UNL     1      -9.657  11.745  65.690  1.00  0.00    -0.220 C  
HETATM   16  O   UNL     1     -10.426  10.866  63.579  1.00  0.00    -0.507 OA 
HETATM   17  O   UNL     1      -8.027  10.035  65.319  1.00  0.00    -0.131 OA 
HETATM   18  C   UNL     1     -10.301  10.546  64.989  1.00  0.00    -0.240 C  
HETATM   19  H   UNL     1     -11.038  11.580  63.439  1.00  0.00     0.000 HD 
HETATM   20  O   UNL     1      -9.668  12.919  64.870  1.00  0.00    -0.510 OA 
HETATM   21  H   UNL     1     -10.565  13.185  64.702  1.00  0.00     0.000 HD 
BRANCH  14  22
HETATM   22  C   UNL     1      -7.952  11.234  67.470  1.00  0.00    -0.124 C  
BRANCH  22  23
HETATM   23  O   UNL     1      -8.038  12.519  68.074  1.00  0.00    -0.142 OA 
HETATM   24  P   UNL     1      -6.581  12.957  68.899  1.00  0.00    -0.092 P  
HETATM   25  O   UNL     1      -5.278  13.349  69.636  1.00  0.00    -0.083 OA 
HETATM   26  O   UNL     1      -6.089  13.522  67.449  1.00  0.00    -0.330 OA 
HETATM   27  O   UNL     1      -7.409  14.274  69.401  1.00  0.00    -0.102 OA 
ENDBRANCH  22  23
ENDBRANCH  14  22
ENDBRANCH   8  13
TORSDOF 3
ENDMDL
MODEL      206
REMARK 921   NORMALIZED FREE ENERGY PREDICTED BY IDOCK:   -3.60 KCAL/MOL
REMARK 922        TOTAL FREE ENERGY PREDICTED BY IDOCK:   -4.70 KCAL/MOL
REMARK 923 INTER-LIGAND FREE ENERGY PREDICTED BY IDOCK:   -4.29 KCAL/MOL
REMARK 924 INTRA-LIGAND FREE ENERGY PREDICTED BY IDOCK:   -0.42 KCAL/MOL
REMARK 927      BINDING AFFINITY PREDICTED BY RF-SCORE:    0.00 PKD
ROOT
HETATM    1  N   UNL     1     -10.780   5.984  70.976  1.00  0.00    -0.252 NA 
HETATM    2  C   UNL     1     -10.989   7.324  70.688  1.00  0.00    -0.256 A  
HETATM    3  H1  UNL     1     -10.968   5.577  71.892  1.00  0.00     0.000 HD 
HETATM    4  H2  UNL     1      -9.812   5.767  70.740  1.00  0.00     0.000 HD 
HETATM    5  C   UNL     1     -10.730   7.884  69.427  1.00  0.00    -0.168 A  
HETATM    6  N   UNL     1     -10.244   7.341  68.261  1.00  0.00    -0.174 NA 
HETATM    7  C   UNL     1     -10.163   8.358  67.426  1.00  0.00    -0.260 A  
HETATM    8  N   UNL     1     -10.613   9.527  67.994  1.00  0.00    -0.233 NA 
HETATM    9  N   UNL     1     -11.433   8.134  71.675  1.00  0.00    -0.262 NA 
HETATM   10  C   UNL     1     -10.965   9.245  69.284  1.00  0.00    -0.085 A  
HETATM   11  N   UNL     1     -11.405  10.089  70.233  1.00  0.00    -0.286 NA 
HETATM   12  C   UNL     1     -11.629   9.438  71.394  1.00  0.00    -0.381 A  
ENDROOT
BRANCH   8  13
HETATM   13  C   UNL     1     -10.673  10.786  67.283  1.00  0.00    -0.274 C  
HETATM   14  C   UNL     1      -8.679  11.933  67.701  1.00  0.00    -0.162 C  
HETATM   15  C   UNL     1      -9.764  12.702  68.458  1.00  0.00    -0.128 C  
HETATM   16  O   UNL     1     -11.714  13.013  67.072  1.00  0.00    -0.345 OA 
HETATM   17  O   UNL     1      -9.355  11.059  66.770  1.00  0.00    -0.176 OA 
HETATM   18  C   UNL     1     -11.085  12.084  67.993  1.00  0.00    -0.241 C  
HETATM   19  H   UNL     1     -11.969  13.816  67.511  1.00  0.00     0.000 HD 
HETATM   20  O   UNL     1      -9.680  14.096  68.142  1.00  0.00    -0.212 OA 
HETATM   21  H   UNL     1     -10.353  14.574  68.613  1.00  0.00     0.000 HD 
BRANCH  14  22
HETATM   22  C   UNL     1      -7.801  11.142  68.680  1.00  0.00    -0.138 C  
BRANCH  22  23
HETATM   23  O   UNL     1      -7.485   9.857  68.157  1.00  0.00    -0.080 OA 
HETATM   24  P   UNL     1      -6.263   9.053  69.081  1.00  0.00    -0.043 P  
HETATM   25  O   UNL     1      -5.169   8.333  69.906  1.00  0.00    -0.023 OA 
HETATM   26  O   UNL     1      -7.498   8.522  70.004  1.00  0.00    -0.057 OA 
HETATM   27  O   UNL     1      -6.319   7.902  67.920  1.00  0.00    -0.048 OA 
ENDBRANCH  22  23
ENDBRANCH  14  22
ENDBRANCH   8  13
TORSDOF 3
ENDMDL
MODEL      207
REMARK 921   NORMALIZED FREE ENERGY PREDICTED BY IDOCK:   -3.58 KCAL/MOL
REMARK 922        TOTAL FREE ENERGY PREDICTED BY IDOCK:   -4.68 KCAL/MOL
REMARK 923 INTER-LIGAND FREE ENERGY PREDICTED BY IDOCK:   -4.29 KCAL/MOL
REMARK 924 INTRA-LIGAND FREE ENERGY PREDICTED BY IDOCK:   -0.38 KCAL/MOL
REMARK 927      BINDING AFFINITY PREDICTED BY RF-SCORE:    0.00 PKD
ROOT
HETATM    1  N   UNL     1     -10.469  10.728  62.932  1.00  0.00    -0.741 NA 
HETATM    2  C   UNL     1     -10.172  11.249  64.183  1.00  0.00    -0.335 A  
HETATM    3  H1  UNL     1     -11.339  10.928  62.440  1.00  0.00     0.000 HD 
HETATM    4  H2  UNL     1     -10.379   9.714  62.994  1.00  0.00     0.000 HD 
HETATM    5  C   UNL     1      -8.974  10.974  64.862  1.00  0.00    -0.101 A  
HETATM    6  N   UNL     1      -7.888  10.198  64.533  1.00  0.00    -0.145 NA 
HETATM    7  C   UNL     1      -7.091  10.277  65.580  1.00  0.00    -0.142 A  
HETATM    8  N   UNL     1      -7.601  11.103  66.553  1.00  0.00    -0.146 NA 
HETATM    9  N   UNL     1     -11.092  12.032  64.790  1.00  0.00    -0.308 NA 
HETATM   10  C   UNL     1      -8.818  11.546  66.117  1.00  0.00    -0.167 A  
HETATM   11  N   UNL     1      -9.702  12.329  66.760  1.00  0.00    -0.208 NA 
HETATM   12  C   UNL     1     -10.805  12.532  66.008  1.00  0.00    -0.276 A  
ENDROOT
BRANCH   8  13
HETATM   13  C   UNL     1      -6.908  11.399  67.790  1.00  0.00    -0.075 C  
HETATM   14  C   UNL     1      -6.453   9.367  68.853  1.00  0.00    -0.047 C  
HETATM   15  C   UNL     1      -7.536  10.042  69.698  1.00  0.00    -0.147 C  
HETATM   16  O   UNL     1      -7.012  12.369  70.056  1.00  0.00    -0.272 OA 
HETATM   17  O   UNL     1      -5.907  10.382  67.981  1.00  0.00    -0.041 OA 
HETATM   18  C   UNL     1      -7.658  11.457  69.129  1.00  0.00    -0.038 C  
HETATM   19  H   UNL     1      -7.476  12.405  70.884  1.00  0.00     0.000 HD 
HETATM   20  O   UNL     1      -7.143  10.045  71.075  1.00  0.00    -0.325 OA 
HETATM   21  H   UNL     1      -7.816  10.464  71.600  1.00  0.00     0.000 HD 
BRANCH  14  22
HETATM   22  C   UNL     1      -7.046   8.200  68.053  1.00  0.00    -0.086 C  
BRANCH  22  23
HETATM   23  O   UNL     1      -8.251   7.733  68.650  1.00  0.00    -0.125 OA 
HETATM   24  P   UNL     1      -9.567   7.690  67.527  1.00  0.00    -0.162 P  
HETATM   25  O   UNL     1     -10.745   7.651  66.523  1.00  0.00    -0.096 OA 
HETATM   26  O   UNL     1      -9.019   6.200  67.149  1.00  0.00    -0.112 OA 
HETATM   27  O   UNL     1     -10.489   7.286  68.816  1.00  0.00    -0.197 OA 
ENDBRANCH  22  23
ENDBRANCH  14  22
ENDBRANCH   8  13
TORSDOF 3
ENDMDL
MODEL      208
REMARK 921   NORMALIZED FREE ENERGY PREDICTED BY IDOCK:   -3.55 KCAL/MOL
REMARK 922        TOTAL FREE ENERGY PREDICTED BY IDOCK:   -4.65 KCAL/MOL
REMARK 923 INTER-LIGAND FREE ENERGY PREDICTED BY IDOCK:   -3.98 KCAL/MOL
REMARK 924 INTRA-LIGAND FREE ENERGY PREDICTED BY IDOCK:   -0.67 KCAL/MOL
REMARK 927      BINDING AFFINITY PREDICTED BY RF-SCORE:    0.00 PKD
ROOT
HETATM    1  N   UNL     1      -6.440  13.224  70.045  1.00  0.00    -0.358 NA 
HETATM    2  C   UNL     1      -6.617  11.872  69.793  1.00  0.00    -0.022 A  
HETATM    3  H1  UNL     1      -6.019  13.578  70.904  1.00  0.00     0.000 HD 
HETATM    4  H2  UNL     1      -7.349  13.676  69.942  1.00  0.00     0.000 HD 
HETATM    5  C   UNL     1      -7.197  11.384  68.611  1.00  0.00    -0.100 A  
HETATM    6  N   UNL     1      -7.704  12.021  67.504  1.00  0.00    -0.144 NA 
HETATM    7  C   UNL     1      -8.162  11.050  66.739  1.00  0.00    -0.149 A  
HETATM    8  N   UNL     1      -7.935   9.811  67.290  1.00  0.00    -0.105 NA 
HETATM    9  N   UNL     1      -6.243  10.985  70.743  1.00  0.00    -0.352 NA 
HETATM   10  C   UNL     1      -7.331  10.006  68.501  1.00  0.00    -0.077 A  
HETATM   11  N   UNL     1      -6.976   9.087  69.415  1.00  0.00    -0.052 NA 
HETATM   12  C   UNL     1      -6.422   9.671  70.498  1.00  0.00    -0.095 A  
ENDROOT
BRANCH   8  13
HETATM   13  C   UNL     1      -8.300   8.571  66.638  1.00  0.00    -0.112 C  
HETATM   14  C   UNL     1     -10.463   8.014  67.329  1.00  0.00    -0.314 C  
HETATM   15  C   UNL     1      -9.540   6.993  67.998  1.00  0.00    -0.128 C  
HETATM   16  O   UNL     1      -7.925   6.142  66.422  1.00  0.00    -0.102 OA 
HETATM   17  O   UNL     1      -9.694   8.657  66.288  1.00  0.00    -0.244 OA 
HETATM   18  C   UNL     1      -8.167   7.221  67.361  1.00  0.00    -0.116 C  
HETATM   19  H   UNL     1      -7.843   5.307  66.869  1.00  0.00     0.000 HD 
HETATM   20  O   UNL     1     -10.031   5.669  67.761  1.00  0.00    -0.128 OA 
HETATM   21  H   UNL     1      -9.459   5.035  68.177  1.00  0.00     0.000 HD 
BRANCH  14  22
HETATM   22  C   UNL     1     -10.974   9.030  68.360  1.00  0.00     0.090 C  
BRANCH  22  23
HETATM   23  O   UNL     1     -10.366   8.819  69.629  1.00  0.00    -0.203 OA 
HETATM   24  P   UNL     1     -11.446   9.152  70.939  1.00  0.00    -0.316 P  
HETATM   25  O   UNL     1     -12.412   9.451  72.111  1.00  0.00    -0.361 OA 
HETATM   26  O   UNL     1     -11.927   7.604  70.760  1.00  0.00    -0.264 OA 
HETATM   27  O   UNL     1     -10.154   8.893  71.906  1.00  0.00    -0.321 OA 
ENDBRANCH  22  23
ENDBRANCH  14  22
ENDBRANCH   8  13
TORSDOF 3
ENDMDL
MODEL      209
REMARK 921   NORMALIZED FREE ENERGY PREDICTED BY IDOCK:   -3.51 KCAL/MOL
REMARK 922        TOTAL FREE ENERGY PREDICTED BY IDOCK:   -4.59 KCAL/MOL
REMARK 923 INTER-LIGAND FREE ENERGY PREDICTED BY IDOCK:   -4.19 KCAL/MOL
REMARK 924 INTRA-LIGAND FREE ENERGY PREDICTED BY IDOCK:   -0.40 KCAL/MOL
REMARK 927      BINDING AFFINITY PREDICTED BY RF-SCORE:    0.00 PKD
ROOT
HETATM    1  N   UNL     1      -5.958   6.278  72.313  1.00  0.00    -0.037 NA 
HETATM    2  C   UNL     1      -7.169   6.944  72.429  1.00  0.00    -0.078 A  
HETATM    3  H1  UNL     1      -5.303   6.176  73.089  1.00  0.00     0.000 HD 
HETATM    4  H2  UNL     1      -5.448   6.704  71.538  1.00  0.00     0.000 HD 
HETATM    5  C   UNL     1      -8.069   7.085  71.361  1.00  0.00    -0.108 A  
HETATM    6  N   UNL     1      -8.017   6.668  70.052  1.00  0.00    -0.114 NA 
HETATM    7  C   UNL     1      -9.123   7.134  69.507  1.00  0.00    -0.146 A  
HETATM    8  N   UNL     1      -9.905   7.800  70.422  1.00  0.00    -0.183 NA 
HETATM    9  N   UNL     1      -7.482   7.509  73.616  1.00  0.00    -0.099 NA 
HETATM   10  C   UNL     1      -9.236   7.793  71.614  1.00  0.00    -0.136 A  
HETATM   11  N   UNL     1      -9.591   8.372  72.774  1.00  0.00    -0.267 NA 
HETATM   12  C   UNL     1      -8.657   8.161  73.725  1.00  0.00    -0.240 A  
ENDROOT
BRANCH   8  13
HETATM   13  C   UNL     1     -11.194   8.374  70.098  1.00  0.00    -0.136 C  
HETATM   14  C   UNL     1     -10.813  10.407  69.009  1.00  0.00    -0.234 C  
HETATM   15  C   UNL     1     -11.377  10.775  70.383  1.00  0.00    -0.255 C  
HETATM   16  O   UNL     1     -13.284   9.398  70.917  1.00  0.00    -0.552 OA 
HETATM   17  O   UNL     1     -11.079   9.001  68.807  1.00  0.00    -0.006 OA 
HETATM   18  C   UNL     1     -11.835   9.447  70.991  1.00  0.00    -0.322 C  
HETATM   19  H   UNL     1     -13.681  10.061  71.470  1.00  0.00     0.000 HD 
HETATM   20  O   UNL     1     -12.459  11.700  70.230  1.00  0.00    -0.255 OA 
HETATM   21  H   UNL     1     -12.809  11.929  71.083  1.00  0.00     0.000 HD 
BRANCH  14  22
HETATM   22  C   UNL     1      -9.309  10.709  68.949  1.00  0.00    -0.184 C  
BRANCH  22  23
HETATM   23  O   UNL     1      -9.069  12.004  68.412  1.00  0.00    -0.188 OA 
HETATM   24  P   UNL     1      -7.503  12.138  67.689  1.00  0.00    -0.154 P  
HETATM   25  O   UNL     1      -6.102  12.258  67.043  1.00  0.00    -0.177 OA 
HETATM   26  O   UNL     1      -8.223  11.565  66.342  1.00  0.00    -0.161 OA 
HETATM   27  O   UNL     1      -7.864  13.721  67.499  1.00  0.00    -0.159 OA 
ENDBRANCH  22  23
ENDBRANCH  14  22
ENDBRANCH   8  13
TORSDOF 3
ENDMDL
MODEL      210
REMARK 921   NORMALIZED FREE ENERGY PREDICTED BY IDOCK:   -3.45 KCAL/MOL
REMARK 922        TOTAL FREE ENERGY PREDICTED BY IDOCK:   -4.53 KCAL/MOL
REMARK 923 INTER-LIGAND FREE ENERGY PREDICTED BY IDOCK:   -3.71 KCAL/MOL
REMARK 924 INTRA-LIGAND FREE ENERGY PREDICTED BY IDOCK:   -0.81 KCAL/MOL
REMARK 927      BINDING AFFINITY PREDICTED BY RF-SCORE:    0.00 PKD
ROOT
HETATM    1  N   UNL     1     -11.893  10.623  68.198  1.00  0.00    -0.788 NA 
HETATM    2  C   UNL     1     -10.891   9.821  68.725  1.00  0.00    -0.188 A  
HETATM    3  H1  UNL     1     -12.239  11.460  68.667  1.00  0.00     0.000 HD 
HETATM    4  H2  UNL     1     -12.698  10.024  68.012  1.00  0.00     0.000 HD 
HETATM    5  C   UNL     1     -10.416   8.669  68.080  1.00  0.00    -0.197 A  
HETATM    6  N   UNL     1     -10.766   8.067  66.895  1.00  0.00    -0.264 NA 
HETATM    7  C   UNL     1     -10.016   6.985  66.834  1.00  0.00    -0.217 A  
HETATM    8  N   UNL     1      -9.168   6.886  67.912  1.00  0.00    -0.125 NA 
HETATM    9  N   UNL     1     -10.371  10.149  69.929  1.00  0.00    -0.263 NA 
HETATM   10  C   UNL     1      -9.423   7.950  68.731  1.00  0.00    -0.147 A  
HETATM   11  N   UNL     1      -8.876   8.234  69.925  1.00  0.00    -0.137 NA 
HETATM   12  C   UNL     1      -9.401   9.365  70.442  1.00  0.00    -0.268 A  
ENDROOT
BRANCH   8  13
HETATM   13  C   UNL     1      -8.207   5.815  68.074  1.00  0.00    -0.104 C  
HETATM   14  C   UNL     1      -6.122   6.623  67.391  1.00  0.00    -0.028 C  
HETATM   15  C   UNL     1      -6.548   5.618  66.317  1.00  0.00    -0.055 C  
HETATM   16  O   UNL     1      -7.407   3.604  67.328  1.00  0.00    -0.062 OA 
HETATM   17  O   UNL     1      -6.976   6.402  68.536  1.00  0.00    -0.074 OA 
HETATM   18  C   UNL     1      -7.791   4.932  66.887  1.00  0.00    -0.099 C  
HETATM   19  H   UNL     1      -7.150   3.057  66.594  1.00  0.00     0.000 HD 
HETATM   20  O   UNL     1      -5.483   4.691  66.074  1.00  0.00    -0.015 OA 
HETATM   21  H   UNL     1      -5.747   4.068  65.407  1.00  0.00     0.000 HD 
BRANCH  14  22
HETATM   22  C   UNL     1      -6.251   8.058  66.863  1.00  0.00    -0.054 C  
BRANCH  22  23
HETATM   23  O   UNL     1      -6.870   8.077  65.582  1.00  0.00    -0.055 OA 
HETATM   24  P   UNL     1      -7.770   9.529  65.307  1.00  0.00    -0.122 P  
HETATM   25  O   UNL     1      -8.576  10.827  65.061  1.00  0.00    -0.174 OA 
HETATM   26  O   UNL     1      -6.355  10.147  64.781  1.00  0.00    -0.120 OA 
HETATM   27  O   UNL     1      -8.253   8.818  63.916  1.00  0.00    -0.159 OA 
ENDBRANCH  22  23
ENDBRANCH  14  22
ENDBRANCH   8  13
TORSDOF 3
ENDMDL
MODEL      211
REMARK 921   NORMALIZED FREE ENERGY PREDICTED BY IDOCK:   -3.43 KCAL/MOL
REMARK 922        TOTAL FREE ENERGY PREDICTED BY IDOCK:   -4.51 KCAL/MOL
REMARK 923 INTER-LIGAND FREE ENERGY PREDICTED BY IDOCK:   -3.65 KCAL/MOL
REMARK 924 INTRA-LIGAND FREE ENERGY PREDICTED BY IDOCK:   -0.86 KCAL/MOL
REMARK 927      BINDING AFFINITY PREDICTED BY RF-SCORE:    0.00 PKD
ROOT
HETATM    1  N   UNL     1      -7.023   5.242  64.213  1.00  0.00    -0.048 NA 
HETATM    2  C   UNL     1      -6.984   6.216  65.200  1.00  0.00    -0.056 A  
HETATM    3  H1  UNL     1      -6.217   5.004  63.636  1.00  0.00     0.000 HD 
HETATM    4  H2  UNL     1      -7.791   5.475  63.584  1.00  0.00     0.000 HD 
HETATM    5  C   UNL     1      -8.094   6.544  65.995  1.00  0.00    -0.121 A  
HETATM    6  N   UNL     1      -9.383   6.066  66.018  1.00  0.00    -0.122 NA 
HETATM    7  C   UNL     1      -9.991   6.787  66.938  1.00  0.00    -0.191 A  
HETATM    8  N   UNL     1      -9.137   7.684  67.536  1.00  0.00    -0.125 NA 
HETATM    9  N   UNL     1      -5.834   6.901  65.383  1.00  0.00    -0.034 NA 
HETATM   10  C   UNL     1      -7.918   7.553  66.931  1.00  0.00    -0.115 A  
HETATM   11  N   UNL     1      -6.798   8.262  67.150  1.00  0.00    -0.069 NA 
HETATM   12  C   UNL     1      -5.800   7.852  66.339  1.00  0.00    -0.040 A  
ENDROOT
BRANCH   8  13
HETATM   13  C   UNL     1      -9.537   8.570  68.609  1.00  0.00    -0.149 C  
HETATM   14  C   UNL     1     -10.501  10.467  67.642  1.00  0.00    -0.234 C  
HETATM   15  C   UNL     1      -9.161  10.933  68.216  1.00  0.00    -0.161 C  
HETATM   16  O   UNL     1      -8.843  10.066  70.445  1.00  0.00    -0.321 OA 
HETATM   17  O   UNL     1     -10.786   9.178  68.229  1.00  0.00    -0.199 OA 
HETATM   18  C   UNL     1      -8.651   9.749  69.041  1.00  0.00    -0.146 C  
HETATM   19  H   UNL     1      -8.295  10.794  70.712  1.00  0.00     0.000 HD 
HETATM   20  O   UNL     1      -9.360  12.103  69.018  1.00  0.00    -0.391 OA 
HETATM   21  H   UNL     1      -8.528  12.392  69.375  1.00  0.00     0.000 HD 
BRANCH  14  22
HETATM   22  C   UNL     1     -10.427  10.384  66.111  1.00  0.00    -0.154 C  
BRANCH  22  23
HETATM   23  O   UNL     1      -9.091  10.553  65.655  1.00  0.00    -0.167 OA 
HETATM   24  P   UNL     1      -8.848   9.903  64.070  1.00  0.00    -0.251 P  
HETATM   25  O   UNL     1      -8.631   9.320  62.652  1.00  0.00    -0.197 OA 
HETATM   26  O   UNL     1      -9.357  11.359  63.540  1.00  0.00    -0.224 OA 
HETATM   27  O   UNL     1      -7.271  10.268  64.297  1.00  0.00    -0.133 OA 
ENDBRANCH  22  23
ENDBRANCH  14  22
ENDBRANCH   8  13
TORSDOF 3
ENDMDL
MODEL      212
REMARK 921   NORMALIZED FREE ENERGY PREDICTED BY IDOCK:   -3.43 KCAL/MOL
REMARK 922        TOTAL FREE ENERGY PREDICTED BY IDOCK:   -4.51 KCAL/MOL
REMARK 923 INTER-LIGAND FREE ENERGY PREDICTED BY IDOCK:   -3.91 KCAL/MOL
REMARK 924 INTRA-LIGAND FREE ENERGY PREDICTED BY IDOCK:   -0.60 KCAL/MOL
REMARK 927      BINDING AFFINITY PREDICTED BY RF-SCORE:    0.00 PKD
ROOT
HETATM    1  N   UNL     1      -8.413   5.767  66.393  1.00  0.00    -0.119 NA 
HETATM    2  C   UNL     1      -8.182   6.983  67.018  1.00  0.00    -0.117 A  
HETATM    3  H1  UNL     1      -7.993   4.892  66.708  1.00  0.00     0.000 HD 
HETATM    4  H2  UNL     1      -8.179   5.880  65.407  1.00  0.00     0.000 HD 
HETATM    5  C   UNL     1      -8.761   8.187  66.585  1.00  0.00    -0.139 A  
HETATM    6  N   UNL     1      -9.607   8.478  65.543  1.00  0.00     0.090 NA 
HETATM    7  C   UNL     1      -9.770   9.785  65.597  1.00  0.00    -0.288 A  
HETATM    8  N   UNL     1      -9.093  10.343  66.657  1.00  0.00    -0.150 NA 
HETATM    9  N   UNL     1      -7.337   7.016  68.073  1.00  0.00    -0.094 NA 
HETATM   10  C   UNL     1      -8.426   9.334  67.292  1.00  0.00    -0.125 A  
HETATM   11  N   UNL     1      -7.593   9.416  68.344  1.00  0.00    -0.082 NA 
HETATM   12  C   UNL     1      -7.109   8.200  68.675  1.00  0.00    -0.072 A  
ENDROOT
BRANCH   8  13
HETATM   13  C   UNL     1      -9.135  11.755  66.973  1.00  0.00    -0.187 C  
HETATM   14  C   UNL     1     -10.834  12.081  68.546  1.00  0.00    -0.233 C  
HETATM   15  C   UNL     1     -11.348  12.706  67.247  1.00  0.00    -0.318 C  
HETATM   16  O   UNL     1      -9.633  14.048  66.210  1.00  0.00    -0.292 OA 
HETATM   17  O   UNL     1      -9.413  11.877  68.381  1.00  0.00    -0.200 OA 
HETATM   18  C   UNL     1     -10.147  12.693  66.298  1.00  0.00    -0.253 C  
HETATM   19  H   UNL     1     -10.259  14.628  65.792  1.00  0.00     0.000 HD 
HETATM   20  O   UNL     1     -11.820  14.034  67.503  1.00  0.00    -0.365 OA 
HETATM   21  H   UNL     1     -12.139  14.422  66.697  1.00  0.00     0.000 HD 
BRANCH  14  22
HETATM   22  C   UNL     1     -11.562  10.759  68.829  1.00  0.00    -0.280 C  
BRANCH  22  23
HETATM   23  O   UNL     1     -11.994  10.695  70.183  1.00  0.00    -0.283 OA 
HETATM   24  P   UNL     1     -12.548   9.116  70.623  1.00  0.00     0.431 P  
HETATM   25  O   UNL     1     -13.045   7.704  71.017  1.00  0.00    -0.188 OA 
HETATM   26  O   UNL     1     -10.984   8.809  70.967  1.00  0.00    -0.241 OA 
HETATM   27  O   UNL     1     -12.976   9.800  72.045  1.00  0.00    -0.400 OA 
ENDBRANCH  22  23
ENDBRANCH  14  22
ENDBRANCH   8  13
TORSDOF 3
ENDMDL
MODEL      213
REMARK 921   NORMALIZED FREE ENERGY PREDICTED BY IDOCK:   -3.42 KCAL/MOL
REMARK 922        TOTAL FREE ENERGY PREDICTED BY IDOCK:   -4.49 KCAL/MOL
REMARK 923 INTER-LIGAND FREE ENERGY PREDICTED BY IDOCK:   -4.24 KCAL/MOL
REMARK 924 INTRA-LIGAND FREE ENERGY PREDICTED BY IDOCK:   -0.25 KCAL/MOL
REMARK 927      BINDING AFFINITY PREDICTED BY RF-SCORE:    0.00 PKD
ROOT
HETATM    1  N   UNL     1      -9.362   3.643  63.995  1.00  0.00    -0.128 NA 
HETATM    2  C   UNL     1      -8.808   4.244  65.115  1.00  0.00    -0.134 A  
HETATM    3  H1  UNL     1      -8.810   3.121  63.314  1.00  0.00     0.000 HD 
HETATM    4  H2  UNL     1      -9.876   4.361  63.485  1.00  0.00     0.000 HD 
HETATM    5  C   UNL     1      -9.567   4.963  66.052  1.00  0.00    -0.176 A  
HETATM    6  N   UNL     1     -10.909   5.253  66.121  1.00  0.00    -0.191 NA 
HETATM    7  C   UNL     1     -11.035   6.005  67.196  1.00  0.00    -0.268 A  
HETATM    8  N   UNL     1      -9.835   6.178  67.845  1.00  0.00    -0.119 NA 
HETATM    9  N   UNL     1      -7.471   4.161  65.296  1.00  0.00    -0.076 NA 
HETATM   10  C   UNL     1      -8.878   5.530  67.116  1.00  0.00    -0.106 A  
HETATM   11  N   UNL     1      -7.554   5.475  67.337  1.00  0.00    -0.088 NA 
HETATM   12  C   UNL     1      -6.933   4.752  66.382  1.00  0.00    -0.067 A  
ENDROOT
BRANCH   8  13
HETATM   13  C   UNL     1      -9.697   6.926  69.077  1.00  0.00    -0.150 C  
HETATM   14  C   UNL     1     -10.259   9.150  68.624  1.00  0.00    -0.204 C  
HETATM   15  C   UNL     1      -8.747   9.146  68.858  1.00  0.00    -0.132 C  
HETATM   16  O   UNL     1      -8.190   7.835  70.806  1.00  0.00    -0.104 OA 
HETATM   17  O   UNL     1     -10.765   7.892  69.121  1.00  0.00    -0.204 OA 
HETATM   18  C   UNL     1      -8.430   7.741  69.377  1.00  0.00    -0.134 C  
HETATM   19  H   UNL     1      -7.405   8.339  70.991  1.00  0.00     0.000 HD 
HETATM   20  O   UNL     1      -8.401  10.162  69.807  1.00  0.00    -0.218 OA 
HETATM   21  H   UNL     1      -7.462  10.160  69.952  1.00  0.00     0.000 HD 
BRANCH  14  22
HETATM   22  C   UNL     1     -10.569   9.331  67.132  1.00  0.00    -0.216 C  
BRANCH  22  23
HETATM   23  O   UNL     1     -11.489  10.397  66.928  1.00  0.00    -0.110 OA 
HETATM   24  P   UNL     1     -10.702  11.865  66.458  1.00  0.00    -0.281 P  
HETATM   25  O   UNL     1      -9.999  13.177  66.037  1.00  0.00    -0.278 OA 
HETATM   26  O   UNL     1     -10.827  11.287  64.937  1.00  0.00    -0.291 OA 
HETATM   27  O   UNL     1     -12.182  12.549  66.576  1.00  0.00    -0.569 OA 
ENDBRANCH  22  23
ENDBRANCH  14  22
ENDBRANCH   8  13
TORSDOF 3
ENDMDL
MODEL      214
REMARK 921   NORMALIZED FREE ENERGY PREDICTED BY IDOCK:   -3.42 KCAL/MOL
REMARK 922        TOTAL FREE ENERGY PREDICTED BY IDOCK:   -4.49 KCAL/MOL
REMARK 923 INTER-LIGAND FREE ENERGY PREDICTED BY IDOCK:   -5.45 KCAL/MOL
REMARK 924 INTRA-LIGAND FREE ENERGY PREDICTED BY IDOCK:    0.96 KCAL/MOL
REMARK 927      BINDING AFFINITY PREDICTED BY RF-SCORE:    0.00 PKD
ROOT
HETATM    1  N   UNL     1     -12.525  14.614  63.872  1.00  0.00    -1.041 NA 
HETATM    2  C   UNL     1     -11.594  15.425  64.504  1.00  0.00    -0.296 A  
HETATM    3  H1  UNL     1     -13.278  14.981  63.292  1.00  0.00     0.000 HD 
HETATM    4  H2  UNL     1     -12.951  14.024  64.587  1.00  0.00     0.000 HD 
HETATM    5  C   UNL     1     -10.557  14.920  65.304  1.00  0.00    -0.401 A  
HETATM    6  N   UNL     1     -10.211  13.638  65.660  1.00  0.00    -0.299 NA 
HETATM    7  C   UNL     1      -9.182  13.781  66.471  1.00  0.00    -0.192 A  
HETATM    8  N   UNL     1      -8.826  15.101  66.621  1.00  0.00    -0.277 NA 
HETATM    9  N   UNL     1     -11.709  16.765  64.368  1.00  0.00    -0.669 NA 
HETATM   10  C   UNL     1      -9.709  15.848  65.893  1.00  0.00    -0.351 A  
HETATM   11  N   UNL     1      -9.783  17.186  65.788  1.00  0.00    -0.547 NA 
HETATM   12  C   UNL     1     -10.807  17.552  64.988  1.00  0.00     0.407 A  
ENDROOT
BRANCH   8  13
HETATM   13  C   UNL     1      -7.703  15.536  67.424  1.00  0.00    -0.194 C  
HETATM   14  C   UNL     1      -6.711  13.632  68.350  1.00  0.00    -0.100 C  
HETATM   15  C   UNL     1      -7.387  14.355  69.518  1.00  0.00    -0.011 C  
HETATM   16  O   UNL     1      -6.918  16.720  69.442  1.00  0.00    -0.234 OA 
HETATM   17  O   UNL     1      -6.647  14.572  67.254  1.00  0.00    -0.288 OA 
HETATM   18  C   UNL     1      -7.829  15.704  68.946  1.00  0.00    -0.186 C  
HETATM   19  H   UNL     1      -6.996  16.824  70.383  1.00  0.00     0.000 HD 
HETATM   20  O   UNL     1      -6.457  14.504  70.597  1.00  0.00    -0.287 OA 
HETATM   21  H   UNL     1      -6.876  14.953  71.322  1.00  0.00     0.000 HD 
BRANCH  14  22
HETATM   22  C   UNL     1      -7.504  12.375  67.967  1.00  0.00    -0.114 C  
BRANCH  22  23
HETATM   23  O   UNL     1      -6.634  11.275  67.732  1.00  0.00    -0.064 OA 
HETATM   24  P   UNL     1      -7.196   9.819  68.480  1.00  0.00    -0.070 P  
HETATM   25  O   UNL     1      -7.699   8.517  69.149  1.00  0.00    -0.088 OA 
HETATM   26  O   UNL     1      -8.056   9.606  67.110  1.00  0.00    -0.109 OA 
HETATM   27  O   UNL     1      -5.783   9.165  67.981  1.00  0.00    -0.038 OA 
ENDBRANCH  22  23
ENDBRANCH  14  22
ENDBRANCH   8  13
TORSDOF 3
ENDMDL
MODEL      215
REMARK 921   NORMALIZED FREE ENERGY PREDICTED BY IDOCK:   -3.41 KCAL/MOL
REMARK 922        TOTAL FREE ENERGY PREDICTED BY IDOCK:   -4.47 KCAL/MOL
REMARK 923 INTER-LIGAND FREE ENERGY PREDICTED BY IDOCK:   -3.61 KCAL/MOL
REMARK 924 INTRA-LIGAND FREE ENERGY PREDICTED BY IDOCK:   -0.87 KCAL/MOL
REMARK 927      BINDING AFFINITY PREDICTED BY RF-SCORE:    0.00 PKD
ROOT
HETATM    1  N   UNL     1      -8.697   2.290  72.164  1.00  0.00    -0.068 NA 
HETATM    2  C   UNL     1      -8.887   3.582  72.631  1.00  0.00    -0.085 A  
HETATM    3  H1  UNL     1      -9.332   1.522  72.380  1.00  0.00     0.000 HD 
HETATM    4  H2  UNL     1      -7.760   1.999  72.443  1.00  0.00     0.000 HD 
HETATM    5  C   UNL     1      -8.012   4.639  72.334  1.00  0.00    -0.095 A  
HETATM    6  N   UNL     1      -6.853   4.695  71.597  1.00  0.00    -0.037 NA 
HETATM    7  C   UNL     1      -6.440   5.941  71.715  1.00  0.00    -0.053 A  
HETATM    8  N   UNL     1      -7.307   6.701  72.465  1.00  0.00    -0.087 NA 
HETATM    9  N   UNL     1      -9.946   3.827  73.434  1.00  0.00    -0.120 NA 
HETATM   10  C   UNL     1      -8.314   5.877  72.885  1.00  0.00    -0.118 A  
HETATM   11  N   UNL     1      -9.352   6.169  73.687  1.00  0.00    -0.131 NA 
HETATM   12  C   UNL     1     -10.126   5.082  73.892  1.00  0.00    -0.198 A  
ENDROOT
BRANCH   8  13
HETATM   13  C   UNL     1      -7.115   8.114  72.716  1.00  0.00    -0.098 C  
HETATM   14  C   UNL     1      -8.058   9.287  70.927  1.00  0.00    -0.124 C  
HETATM   15  C   UNL     1      -6.545   9.457  70.780  1.00  0.00    -0.096 C  
HETATM   16  O   UNL     1      -5.537  10.001  72.904  1.00  0.00    -0.312 OA 
HETATM   17  O   UNL     1      -8.299   8.800  72.267  1.00  0.00    -0.367 OA 
HETATM   18  C   UNL     1      -5.954   8.887  72.072  1.00  0.00    -0.076 C  
HETATM   19  H   UNL     1      -4.819  10.479  72.505  1.00  0.00     0.000 HD 
HETATM   20  O   UNL     1      -6.228  10.843  70.608  1.00  0.00    -0.289 OA 
HETATM   21  H   UNL     1      -5.288  10.948  70.516  1.00  0.00     0.000 HD 
BRANCH  14  22
HETATM   22  C   UNL     1      -8.594   8.312  69.870  1.00  0.00    -0.125 C  
BRANCH  22  23
HETATM   23  O   UNL     1      -9.783   7.675  70.319  1.00  0.00    -0.179 OA 
HETATM   24  P   UNL     1     -10.631   6.883  69.035  1.00  0.00    -0.209 P  
HETATM   25  O   UNL     1     -11.390   6.175  67.887  1.00  0.00    -0.208 OA 
HETATM   26  O   UNL     1      -9.665   5.610  69.363  1.00  0.00    -0.141 OA 
HETATM   27  O   UNL     1     -11.793   6.595  70.149  1.00  0.00    -0.389 OA 
ENDBRANCH  22  23
ENDBRANCH  14  22
ENDBRANCH   8  13
TORSDOF 3
ENDMDL
MODEL      216
REMARK 921   NORMALIZED FREE ENERGY PREDICTED BY IDOCK:   -3.38 KCAL/MOL
REMARK 922        TOTAL FREE ENERGY PREDICTED BY IDOCK:   -4.45 KCAL/MOL
REMARK 923 INTER-LIGAND FREE ENERGY PREDICTED BY IDOCK:   -4.63 KCAL/MOL
REMARK 924 INTRA-LIGAND FREE ENERGY PREDICTED BY IDOCK:    0.18 KCAL/MOL
REMARK 927      BINDING AFFINITY PREDICTED BY RF-SCORE:    0.00 PKD
ROOT
HETATM    1  N   UNL     1     -12.394  15.316  63.967  1.00  0.00    -0.939 NA 
HETATM    2  C   UNL     1     -11.314  15.252  64.834  1.00  0.00    -0.384 A  
HETATM    3  H1  UNL     1     -12.942  16.164  63.822  1.00  0.00     0.000 HD 
HETATM    4  H2  UNL     1     -13.044  14.576  64.234  1.00  0.00     0.000 HD 
HETATM    5  C   UNL     1     -10.560  14.084  65.033  1.00  0.00    -0.410 A  
HETATM    6  N   UNL     1     -10.667  12.820  64.504  1.00  0.00    -0.335 NA 
HETATM    7  C   UNL     1      -9.719  12.126  65.101  1.00  0.00    -0.114 A  
HETATM    8  N   UNL     1      -8.980  12.902  65.964  1.00  0.00     0.167 NA 
HETATM    9  N   UNL     1     -10.989  16.357  65.541  1.00  0.00    -0.185 NA 
HETATM   10  C   UNL     1      -9.517  14.158  65.946  1.00  0.00    -0.098 A  
HETATM   11  N   UNL     1      -9.157  15.231  66.671  1.00  0.00    -0.261 NA 
HETATM   12  C   UNL     1      -9.942  16.292  66.388  1.00  0.00    -0.300 A  
ENDROOT
BRANCH   8  13
HETATM   13  C   UNL     1      -7.850  12.400  66.717  1.00  0.00     0.080 C  
HETATM   14  C   UNL     1      -8.593  10.583  67.987  1.00  0.00    -0.121 C  
HETATM   15  C   UNL     1      -8.326  11.707  68.991  1.00  0.00     0.143 C  
HETATM   16  O   UNL     1      -6.217  12.781  68.527  1.00  0.00    -0.061 OA 
HETATM   17  O   UNL     1      -7.952  10.964  66.749  1.00  0.00    -0.131 OA 
HETATM   18  C   UNL     1      -7.627  12.802  68.183  1.00  0.00    -0.134 C  
HETATM   19  H   UNL     1      -6.079  13.030  69.433  1.00  0.00     0.000 HD 
HETATM   20  O   UNL     1      -7.506  11.217  70.058  1.00  0.00    -0.378 OA 
HETATM   21  H   UNL     1      -7.340  11.914  70.682  1.00  0.00     0.000 HD 
BRANCH  14  22
HETATM   22  C   UNL     1     -10.103  10.380  67.799  1.00  0.00    -0.181 C  
BRANCH  22  23
HETATM   23  O   UNL     1     -10.816  10.746  68.974  1.00  0.00    -0.203 OA 
HETATM   24  P   UNL     1     -11.329  12.399  68.943  1.00  0.00    -0.321 P  
HETATM   25  O   UNL     1     -11.788  13.877  68.917  1.00  0.00    -0.318 OA 
HETATM   26  O   UNL     1     -12.644  11.836  68.157  1.00  0.00     0.144 OA 
HETATM   27  O   UNL     1     -11.837  12.138  70.475  1.00  0.00    -0.287 OA 
ENDBRANCH  22  23
ENDBRANCH  14  22
ENDBRANCH   8  13
TORSDOF 3
ENDMDL
MODEL      217
REMARK 921   NORMALIZED FREE ENERGY PREDICTED BY IDOCK:   -3.36 KCAL/MOL
REMARK 922        TOTAL FREE ENERGY PREDICTED BY IDOCK:   -4.42 KCAL/MOL
REMARK 923 INTER-LIGAND FREE ENERGY PREDICTED BY IDOCK:   -3.80 KCAL/MOL
REMARK 924 INTRA-LIGAND FREE ENERGY PREDICTED BY IDOCK:   -0.62 KCAL/MOL
REMARK 927      BINDING AFFINITY PREDICTED BY RF-SCORE:    0.00 PKD
ROOT
HETATM    1  N   UNL     1      -9.001  12.438  67.441  1.00  0.00    -0.177 NA 
HETATM    2  C   UNL     1      -9.841  11.695  68.257  1.00  0.00    -0.199 A  
HETATM    3  H1  UNL     1      -9.342  13.022  66.677  1.00  0.00     0.000 HD 
HETATM    4  H2  UNL     1      -8.310  11.798  67.049  1.00  0.00     0.000 HD 
HETATM    5  C   UNL     1      -9.372  10.890  69.307  1.00  0.00    -0.006 A  
HETATM    6  N   UNL     1      -8.104  10.627  69.769  1.00  0.00     0.022 NA 
HETATM    7  C   UNL     1      -8.276   9.757  70.744  1.00  0.00     0.298 A  
HETATM    8  N   UNL     1      -9.606   9.479  70.955  1.00  0.00    -0.186 NA 
HETATM    9  N   UNL     1     -11.170  11.723  68.010  1.00  0.00    -0.242 NA 
HETATM   10  C   UNL     1     -10.324  10.185  70.031  1.00  0.00    -0.250 A  
HETATM   11  N   UNL     1     -11.651  10.180  69.823  1.00  0.00    -0.215 NA 
HETATM   12  C   UNL     1     -11.984  10.995  68.800  1.00  0.00    -0.225 A  
ENDROOT
BRANCH   8  13
HETATM   13  C   UNL     1     -10.078   8.588  71.994  1.00  0.00    -0.316 C  
HETATM   14  C   UNL     1      -9.357   6.429  71.459  1.00  0.00    -0.148 C  
HETATM   15  C   UNL     1     -10.872   6.424  71.243  1.00  0.00    -0.257 C  
HETATM   16  O   UNL     1     -12.000   7.494  73.088  1.00  0.00    -0.511 OA 
HETATM   17  O   UNL     1      -9.046   7.611  72.230  1.00  0.00    -0.129 OA 
HETATM   18  C   UNL     1     -11.358   7.759  71.813  1.00  0.00    -0.261 C  
HETATM   19  H   UNL     1     -12.792   6.982  72.975  1.00  0.00     0.000 HD 
HETATM   20  O   UNL     1     -11.454   5.304  71.921  1.00  0.00    -0.011 OA 
HETATM   21  H   UNL     1     -12.395   5.301  71.786  1.00  0.00     0.000 HD 
BRANCH  14  22
HETATM   22  C   UNL     1      -8.624   6.428  70.111  1.00  0.00    -0.135 C  
BRANCH  22  23
HETATM   23  O   UNL     1      -9.485   6.002  69.062  1.00  0.00    -0.126 OA 
HETATM   24  P   UNL     1      -9.590   7.163  67.784  1.00  0.00    -0.136 P  
HETATM   25  O   UNL     1      -9.685   8.202  66.640  1.00  0.00    -0.211 OA 
HETATM   26  O   UNL     1      -8.268   6.421  67.182  1.00  0.00    -0.111 OA 
HETATM   27  O   UNL     1     -10.729   6.176  67.150  1.00  0.00    -0.268 OA 
ENDBRANCH  22  23
ENDBRANCH  14  22
ENDBRANCH   8  13
TORSDOF 3
ENDMDL
MODEL      218
REMARK 921   NORMALIZED FREE ENERGY PREDICTED BY IDOCK:   -3.34 KCAL/MOL
REMARK 922        TOTAL FREE ENERGY PREDICTED BY IDOCK:   -4.39 KCAL/MOL
REMARK 923 INTER-LIGAND FREE ENERGY PREDICTED BY IDOCK:   -4.16 KCAL/MOL
REMARK 924 INTRA-LIGAND FREE ENERGY PREDICTED BY IDOCK:   -0.23 KCAL/MOL
REMARK 927      BINDING AFFINITY PREDICTED BY RF-SCORE:    0.00 PKD
ROOT
HETATM    1  N   UNL     1      -7.764   6.923  66.670  1.00  0.00    -0.103 NA 
HETATM    2  C   UNL     1      -7.767   8.281  66.952  1.00  0.00    -0.095 A  
HETATM    3  H1  UNL     1      -7.177   6.254  67.167  1.00  0.00     0.000 HD 
HETATM    4  H2  UNL     1      -7.571   6.818  65.674  1.00  0.00     0.000 HD 
HETATM    5  C   UNL     1      -8.576   9.202  66.268  1.00  0.00    -0.126 A  
HETATM    6  N   UNL     1      -9.478   9.051  65.242  1.00  0.00    -0.121 NA 
HETATM    7  C   UNL     1      -9.891  10.274  64.976  1.00  0.00    -0.329 A  
HETATM    8  N   UNL     1      -9.323  11.203  65.816  1.00  0.00    -0.209 NA 
HETATM    9  N   UNL     1      -6.930   8.742  67.909  1.00  0.00    -0.077 NA 
HETATM   10  C   UNL     1      -8.462  10.535  66.641  1.00  0.00    -0.129 A  
HETATM   11  N   UNL     1      -7.647  11.040  67.583  1.00  0.00    -0.101 NA 
HETATM   12  C   UNL     1      -6.930  10.063  68.177  1.00  0.00    -0.075 A  
ENDROOT
BRANCH   8  13
HETATM   13  C   UNL     1      -9.635  12.615  65.769  1.00  0.00    -0.110 C  
HETATM   14  C   UNL     1     -11.170  13.061  67.476  1.00  0.00    -0.284 C  
HETATM   15  C   UNL     1     -11.956  13.193  66.169  1.00  0.00    -0.422 C  
HETATM   16  O   UNL     1     -10.709  14.473  64.549  1.00  0.00    -0.599 OA 
HETATM   17  O   UNL     1      -9.767  13.078  67.126  1.00  0.00    -0.219 OA 
HETATM   18  C   UNL     1     -10.900  13.129  65.063  1.00  0.00    -0.315 C  
HETATM   19  H   UNL     1     -11.491  14.790  64.112  1.00  0.00     0.000 HD 
HETATM   20  O   UNL     1     -12.673  14.432  66.159  1.00  0.00    -0.453 OA 
HETATM   21  H   UNL     1     -13.162  14.514  65.348  1.00  0.00     0.000 HD 
BRANCH  14  22
HETATM   22  C   UNL     1     -11.552  11.765  68.203  1.00  0.00    -0.323 C  
BRANCH  22  23
HETATM   23  O   UNL     1     -11.973  12.033  69.535  1.00  0.00    -0.303 OA 
HETATM   24  P   UNL     1     -11.698  13.679  69.994  1.00  0.00    -0.146 P  
HETATM   25  O   UNL     1     -11.452  15.151  70.404  1.00  0.00    -0.251 OA 
HETATM   26  O   UNL     1     -13.160  13.968  69.330  1.00  0.00     0.747 OA 
HETATM   27  O   UNL     1     -12.197  13.217  71.480  1.00  0.00    -0.115 OA 
ENDBRANCH  22  23
ENDBRANCH  14  22
ENDBRANCH   8  13
TORSDOF 3
ENDMDL
MODEL      219
REMARK 921   NORMALIZED FREE ENERGY PREDICTED BY IDOCK:   -3.32 KCAL/MOL
REMARK 922        TOTAL FREE ENERGY PREDICTED BY IDOCK:   -4.37 KCAL/MOL
REMARK 923 INTER-LIGAND FREE ENERGY PREDICTED BY IDOCK:   -3.86 KCAL/MOL
REMARK 924 INTRA-LIGAND FREE ENERGY PREDICTED BY IDOCK:   -0.51 KCAL/MOL
REMARK 927      BINDING AFFINITY PREDICTED BY RF-SCORE:    0.00 PKD
ROOT
HETATM    1  N   UNL     1     -13.594   9.515  70.825  1.00  0.00    -0.568 NA 
HETATM    2  C   UNL     1     -12.684   8.530  71.179  1.00  0.00    -0.110 A  
HETATM    3  H1  UNL     1     -14.600   9.417  70.962  1.00  0.00     0.000 HD 
HETATM    4  H2  UNL     1     -13.440   9.733  69.840  1.00  0.00     0.000 HD 
HETATM    5  C   UNL     1     -11.299   8.665  70.990  1.00  0.00    -0.274 A  
HETATM    6  N   UNL     1     -10.537   9.676  70.456  1.00  0.00    -0.284 NA 
HETATM    7  C   UNL     1      -9.302   9.220  70.491  1.00  0.00    -0.264 A  
HETATM    8  N   UNL     1      -9.231   7.970  71.062  1.00  0.00    -0.146 NA 
HETATM    9  N   UNL     1     -13.155   7.376  71.703  1.00  0.00    -0.365 NA 
HETATM   10  C   UNL     1     -10.507   7.591  71.373  1.00  0.00    -0.209 A  
HETATM   11  N   UNL     1     -10.927   6.426  71.896  1.00  0.00    -0.242 NA 
HETATM   12  C   UNL     1     -12.269   6.418  72.041  1.00  0.00    -0.269 A  
ENDROOT
BRANCH   8  13
HETATM   13  C   UNL     1      -7.988   7.256  71.262  1.00  0.00    -0.098 C  
HETATM   14  C   UNL     1      -7.499   6.112  69.282  1.00  0.00    -0.089 C  
HETATM   15  C   UNL     1      -7.886   5.034  70.297  1.00  0.00    -0.070 C  
HETATM   16  O   UNL     1      -6.798   5.427  72.414  1.00  0.00    -0.070 OA 
HETATM   17  O   UNL     1      -7.245   7.322  70.030  1.00  0.00    -0.073 OA 
HETATM   18  C   UNL     1      -7.977   5.766  71.638  1.00  0.00    -0.117 C  
HETATM   19  H   UNL     1      -6.792   4.505  72.647  1.00  0.00     0.000 HD 
HETATM   20  O   UNL     1      -6.891   4.004  70.311  1.00  0.00    -0.033 OA 
HETATM   21  H   UNL     1      -7.131   3.334  70.941  1.00  0.00     0.000 HD 
BRANCH  14  22
HETATM   22  C   UNL     1      -8.624   6.311  68.257  1.00  0.00    -0.117 C  
BRANCH  22  23
HETATM   23  O   UNL     1      -8.469   7.543  67.562  1.00  0.00    -0.119 OA 
HETATM   24  P   UNL     1      -7.342   7.423  66.254  1.00  0.00    -0.086 P  
HETATM   25  O   UNL     1      -6.334   7.317  65.085  1.00  0.00    -0.037 OA 
HETATM   26  O   UNL     1      -8.623   6.932  65.372  1.00  0.00    -0.131 OA 
HETATM   27  O   UNL     1      -7.547   9.038  66.096  1.00  0.00    -0.093 OA 
ENDBRANCH  22  23
ENDBRANCH  14  22
ENDBRANCH   8  13
TORSDOF 3
ENDMDL
MODEL      220
REMARK 921   NORMALIZED FREE ENERGY PREDICTED BY IDOCK:   -3.31 KCAL/MOL
REMARK 922        TOTAL FREE ENERGY PREDICTED BY IDOCK:   -4.36 KCAL/MOL
REMARK 923 INTER-LIGAND FREE ENERGY PREDICTED BY IDOCK:   -3.75 KCAL/MOL
REMARK 924 INTRA-LIGAND FREE ENERGY PREDICTED BY IDOCK:   -0.61 KCAL/MOL
REMARK 927      BINDING AFFINITY PREDICTED BY RF-SCORE:    0.00 PKD
ROOT
HETATM    1  N   UNL     1      -8.236   7.265  64.444  1.00  0.00    -0.329 NA 
HETATM    2  C   UNL     1      -8.065   7.971  65.626  1.00  0.00    -0.121 A  
HETATM    3  H1  UNL     1      -7.497   7.158  63.750  1.00  0.00     0.000 HD 
HETATM    4  H2  UNL     1      -9.047   7.659  63.968  1.00  0.00     0.000 HD 
HETATM    5  C   UNL     1      -9.083   8.118  66.582  1.00  0.00    -0.165 A  
HETATM    6  N   UNL     1     -10.383   7.674  66.618  1.00  0.00    -0.246 NA 
HETATM    7  C   UNL     1     -10.874   8.164  67.739  1.00  0.00    -0.002 A  
HETATM    8  N   UNL     1      -9.931   8.872  68.447  1.00  0.00    -0.172 NA 
HETATM    9  N   UNL     1      -6.874   8.569  65.853  1.00  0.00    -0.064 NA 
HETATM   10  C   UNL     1      -8.779   8.868  67.711  1.00  0.00    -0.125 A  
HETATM   11  N   UNL     1      -7.614   9.480  67.981  1.00  0.00    -0.086 NA 
HETATM   12  C   UNL     1      -6.713   9.259  67.000  1.00  0.00    -0.076 A  
ENDROOT
BRANCH   8  13
HETATM   13  C   UNL     1     -10.192   9.480  69.734  1.00  0.00    -0.228 C  
HETATM   14  C   UNL     1      -9.713   7.891  71.381  1.00  0.00    -0.164 C  
HETATM   15  C   UNL     1     -11.236   8.042  71.384  1.00  0.00    -0.252 C  
HETATM   16  O   UNL     1     -11.863  10.370  71.318  1.00  0.00    -0.350 OA 
HETATM   17  O   UNL     1      -9.180   9.017  70.648  1.00  0.00    -0.190 OA 
HETATM   18  C   UNL     1     -11.517   9.240  70.474  1.00  0.00    -0.248 C  
HETATM   19  H   UNL     1     -12.682  10.222  71.775  1.00  0.00     0.000 HD 
HETATM   20  O   UNL     1     -11.698   8.259  72.722  1.00  0.00    -0.425 OA 
HETATM   21  H   UNL     1     -12.644   8.352  72.724  1.00  0.00     0.000 HD 
BRANCH  14  22
HETATM   22  C   UNL     1      -9.307   6.558  70.737  1.00  0.00    -0.158 C  
BRANCH  22  23
HETATM   23  O   UNL     1      -8.087   6.077  71.288  1.00  0.00    -0.114 OA 
HETATM   24  P   UNL     1      -8.108   4.364  71.537  1.00  0.00    -0.094 P  
HETATM   25  O   UNL     1      -8.126   2.833  71.760  1.00  0.00    -0.055 OA 
HETATM   26  O   UNL     1      -7.604   4.268  69.988  1.00  0.00    -0.049 OA 
HETATM   27  O   UNL     1      -6.652   4.576  72.250  1.00  0.00    -0.034 OA 
ENDBRANCH  22  23
ENDBRANCH  14  22
ENDBRANCH   8  13
TORSDOF 3
ENDMDL
MODEL      221
REMARK 921   NORMALIZED FREE ENERGY PREDICTED BY IDOCK:   -3.27 KCAL/MOL
REMARK 922        TOTAL FREE ENERGY PREDICTED BY IDOCK:   -4.31 KCAL/MOL
REMARK 923 INTER-LIGAND FREE ENERGY PREDICTED BY IDOCK:   -4.17 KCAL/MOL
REMARK 924 INTRA-LIGAND FREE ENERGY PREDICTED BY IDOCK:   -0.14 KCAL/MOL
REMARK 927      BINDING AFFINITY PREDICTED BY RF-SCORE:    0.00 PKD
ROOT
HETATM    1  N   UNL     1      -8.434   8.453  72.917  1.00  0.00    -0.341 NA 
HETATM    2  C   UNL     1      -8.331   8.712  71.559  1.00  0.00    -0.166 A  
HETATM    3  H1  UNL     1      -7.754   8.787  73.600  1.00  0.00     0.000 HD 
HETATM    4  H2  UNL     1      -8.508   7.442  73.031  1.00  0.00     0.000 HD 
HETATM    5  C   UNL     1      -9.268   8.252  70.619  1.00  0.00    -0.152 A  
HETATM    6  N   UNL     1     -10.408   7.496  70.752  1.00  0.00    -0.202 NA 
HETATM    7  C   UNL     1     -10.848   7.334  69.520  1.00  0.00    -0.209 A  
HETATM    8  N   UNL     1     -10.059   7.988  68.602  1.00  0.00    -0.194 NA 
HETATM    9  N   UNL     1      -7.264   9.414  71.115  1.00  0.00    -0.304 NA 
HETATM   10  C   UNL     1      -9.029   8.568  69.289  1.00  0.00    -0.146 A  
HETATM   11  N   UNL     1      -7.986   9.261  68.801  1.00  0.00    -0.098 NA 
HETATM   12  C   UNL     1      -7.163   9.660  69.794  1.00  0.00    -0.094 A  
ENDROOT
BRANCH   8  13
HETATM   13  C   UNL     1     -10.340   8.009  67.182  1.00  0.00    -0.325 C  
HETATM   14  C   UNL     1      -9.489   6.036  66.260  1.00  0.00    -0.127 C  
HETATM   15  C   UNL     1      -8.580   7.156  65.750  1.00  0.00    -0.133 C  
HETATM   16  O   UNL     1      -9.887   9.033  64.983  1.00  0.00    -0.317 OA 
HETATM   17  O   UNL     1     -10.678   6.666  66.786  1.00  0.00    -0.292 OA 
HETATM   18  C   UNL     1      -9.276   8.453  66.166  1.00  0.00    -0.205 C  
HETATM   19  H   UNL     1      -9.230   9.308  64.355  1.00  0.00     0.000 HD 
HETATM   20  O   UNL     1      -8.437   7.052  64.328  1.00  0.00    -0.341 OA 
HETATM   21  H   UNL     1      -7.872   7.748  64.011  1.00  0.00     0.000 HD 
BRANCH  14  22
HETATM   22  C   UNL     1      -8.769   5.209  67.335  1.00  0.00    -0.103 C  
BRANCH  22  23
HETATM   23  O   UNL     1      -8.719   3.835  66.973  1.00  0.00    -0.104 OA 
HETATM   24  P   UNL     1      -9.633   3.497  65.543  1.00  0.00    -0.018 P  
HETATM   25  O   UNL     1     -10.451   3.195  64.264  1.00  0.00    -0.126 OA 
HETATM   26  O   UNL     1      -8.271   3.897  64.740  1.00  0.00    -0.092 OA 
HETATM   27  O   UNL     1      -9.285   1.928  65.841  1.00  0.00    -0.085 OA 
ENDBRANCH  22  23
ENDBRANCH  14  22
ENDBRANCH   8  13
TORSDOF 3
ENDMDL
MODEL      222
REMARK 921   NORMALIZED FREE ENERGY PREDICTED BY IDOCK:   -3.25 KCAL/MOL
REMARK 922        TOTAL FREE ENERGY PREDICTED BY IDOCK:   -4.30 KCAL/MOL
REMARK 923 INTER-LIGAND FREE ENERGY PREDICTED BY IDOCK:   -4.08 KCAL/MOL
REMARK 924 INTRA-LIGAND FREE ENERGY PREDICTED BY IDOCK:   -0.22 KCAL/MOL
REMARK 927      BINDING AFFINITY PREDICTED BY RF-SCORE:    0.00 PKD
ROOT
HETATM    1  N   UNL     1     -13.520   8.137  72.028  1.00  0.00    -0.455 NA 
HETATM    2  C   UNL     1     -12.270   7.536  71.999  1.00  0.00    -0.280 A  
HETATM    3  H1  UNL     1     -14.353   7.669  72.385  1.00  0.00     0.000 HD 
HETATM    4  H2  UNL     1     -13.729   8.452  71.080  1.00  0.00     0.000 HD 
HETATM    5  C   UNL     1     -11.123   8.179  71.507  1.00  0.00    -0.252 A  
HETATM    6  N   UNL     1     -10.929   9.429  70.969  1.00  0.00    -0.309 NA 
HETATM    7  C   UNL     1      -9.654   9.456  70.636  1.00  0.00    -0.268 A  
HETATM    8  N   UNL     1      -9.010   8.289  70.974  1.00  0.00    -0.146 NA 
HETATM    9  N   UNL     1     -12.158   6.261  72.435  1.00  0.00    -0.211 NA 
HETATM   10  C   UNL     1      -9.941   7.451  71.519  1.00  0.00    -0.181 A  
HETATM   11  N   UNL     1      -9.780   6.185  71.942  1.00  0.00    -0.154 NA 
HETATM   12  C   UNL     1     -10.944   5.677  72.401  1.00  0.00    -0.259 A  
ENDROOT
BRANCH   8  13
HETATM   13  C   UNL     1      -7.595   8.069  70.759  1.00  0.00    -0.077 C  
HETATM   14  C   UNL     1      -7.201   8.180  68.457  1.00  0.00    -0.088 C  
HETATM   15  C   UNL     1      -7.023   6.708  68.836  1.00  0.00    -0.079 C  
HETATM   16  O   UNL     1      -5.694   6.498  70.839  1.00  0.00    -0.025 OA 
HETATM   17  O   UNL     1      -7.178   8.937  69.688  1.00  0.00    -0.053 OA 
HETATM   18  C   UNL     1      -7.054   6.686  70.366  1.00  0.00    -0.068 C  
HETATM   19  H   UNL     1      -5.360   5.642  70.596  1.00  0.00     0.000 HD 
HETATM   20  O   UNL     1      -5.781   6.221  68.314  1.00  0.00    -0.011 OA 
HETATM   21  H   UNL     1      -5.670   5.307  68.550  1.00  0.00     0.000 HD 
BRANCH  14  22
HETATM   22  C   UNL     1      -8.519   8.381  67.697  1.00  0.00    -0.130 C  
BRANCH  22  23
HETATM   23  O   UNL     1      -8.282   8.590  66.310  1.00  0.00    -0.103 OA 
HETATM   24  P   UNL     1      -9.410   9.699  65.609  1.00  0.00    -0.269 P  
HETATM   25  O   UNL     1     -10.419  10.691  64.982  1.00  0.00    -0.295 OA 
HETATM   26  O   UNL     1      -8.371  10.858  66.099  1.00  0.00    -0.162 OA 
HETATM   27  O   UNL     1      -8.699   9.327  64.185  1.00  0.00    -0.201 OA 
ENDBRANCH  22  23
ENDBRANCH  14  22
ENDBRANCH   8  13
TORSDOF 3
ENDMDL
MODEL      223
REMARK 921   NORMALIZED FREE ENERGY PREDICTED BY IDOCK:   -3.22 KCAL/MOL
REMARK 922        TOTAL FREE ENERGY PREDICTED BY IDOCK:   -4.25 KCAL/MOL
REMARK 923 INTER-LIGAND FREE ENERGY PREDICTED BY IDOCK:   -3.83 KCAL/MOL
REMARK 924 INTRA-LIGAND FREE ENERGY PREDICTED BY IDOCK:   -0.42 KCAL/MOL
REMARK 927      BINDING AFFINITY PREDICTED BY RF-SCORE:    0.00 PKD
ROOT
HETATM    1  N   UNL     1      -7.832   8.282  72.481  1.00  0.00    -0.167 NA 
HETATM    2  C   UNL     1      -7.795   9.054  71.329  1.00  0.00    -0.085 A  
HETATM    3  H1  UNL     1      -7.035   8.183  73.109  1.00  0.00     0.000 HD 
HETATM    4  H2  UNL     1      -8.126   7.343  72.211  1.00  0.00     0.000 HD 
HETATM    5  C   UNL     1      -8.892   9.190  70.464  1.00  0.00    -0.224 A  
HETATM    6  N   UNL     1     -10.159   8.658  70.494  1.00  0.00    -0.190 NA 
HETATM    7  C   UNL     1     -10.733   9.095  69.391  1.00  0.00    -0.198 A  
HETATM    8  N   UNL     1      -9.900   9.919  68.671  1.00  0.00    -0.154 NA 
HETATM    9  N   UNL     1      -6.640   9.679  71.010  1.00  0.00    -0.251 NA 
HETATM   10  C   UNL     1      -8.708   9.978  69.336  1.00  0.00    -0.186 A  
HETATM   11  N   UNL     1      -7.582  10.618  68.976  1.00  0.00    -0.111 NA 
HETATM   12  C   UNL     1      -6.604  10.424  69.887  1.00  0.00    -0.124 A  
ENDROOT
BRANCH   8  13
HETATM   13  C   UNL     1     -10.295  10.570  67.439  1.00  0.00    -0.224 C  
HETATM   14  C   UNL     1      -9.501   9.271  65.664  1.00  0.00    -0.256 C  
HETATM   15  C   UNL     1      -8.648  10.541  65.660  1.00  0.00    -0.175 C  
HETATM   16  O   UNL     1     -10.031  12.500  65.924  1.00  0.00    -0.253 OA 
HETATM   17  O   UNL     1     -10.651   9.539  66.498  1.00  0.00    -0.173 OA 
HETATM   18  C   UNL     1      -9.322  11.475  66.669  1.00  0.00    -0.189 C  
HETATM   19  H   UNL     1      -9.429  13.060  65.448  1.00  0.00     0.000 HD 
HETATM   20  O   UNL     1      -8.619  11.101  64.342  1.00  0.00    -0.377 OA 
HETATM   21  H   UNL     1      -8.088  11.889  64.340  1.00  0.00     0.000 HD 
BRANCH  14  22
HETATM   22  C   UNL     1      -8.689   8.081  66.192  1.00  0.00    -0.154 C  
BRANCH  22  23
HETATM   23  O   UNL     1      -7.438   7.979  65.522  1.00  0.00    -0.076 OA 
HETATM   24  P   UNL     1      -7.090   6.360  65.021  1.00  0.00    -0.066 P  
HETATM   25  O   UNL     1      -6.777   4.912  64.574  1.00  0.00    -0.045 OA 
HETATM   26  O   UNL     1      -7.933   6.737  63.677  1.00  0.00    -0.120 OA 
HETATM   27  O   UNL     1      -5.634   6.948  64.564  1.00  0.00    -0.030 OA 
ENDBRANCH  22  23
ENDBRANCH  14  22
ENDBRANCH   8  13
TORSDOF 3
ENDMDL
MODEL      224
REMARK 921   NORMALIZED FREE ENERGY PREDICTED BY IDOCK:   -3.18 KCAL/MOL
REMARK 922        TOTAL FREE ENERGY PREDICTED BY IDOCK:   -4.21 KCAL/MOL
REMARK 923 INTER-LIGAND FREE ENERGY PREDICTED BY IDOCK:   -3.91 KCAL/MOL
REMARK 924 INTRA-LIGAND FREE ENERGY PREDICTED BY IDOCK:   -0.29 KCAL/MOL
REMARK 927      BINDING AFFINITY PREDICTED BY RF-SCORE:    0.00 PKD
ROOT
HETATM    1  N   UNL     1     -10.120   9.471  65.538  1.00  0.00    -0.348 NA 
HETATM    2  C   UNL     1     -10.159   9.630  66.916  1.00  0.00    -0.227 A  
HETATM    3  H1  UNL     1     -10.678  10.036  64.898  1.00  0.00     0.000 HD 
HETATM    4  H2  UNL     1     -10.325   8.492  65.338  1.00  0.00     0.000 HD 
HETATM    5  C   UNL     1      -9.391   8.852  67.797  1.00  0.00    -0.141 A  
HETATM    6  N   UNL     1      -8.500   7.828  67.583  1.00  0.00    -0.120 NA 
HETATM    7  C   UNL     1      -8.131   7.446  68.789  1.00  0.00    -0.128 A  
HETATM    8  N   UNL     1      -8.719   8.209  69.771  1.00  0.00    -0.134 NA 
HETATM    9  N   UNL     1     -10.996  10.556  67.434  1.00  0.00    -0.301 NA 
HETATM   10  C   UNL     1      -9.544   9.106  69.154  1.00  0.00    -0.161 A  
HETATM   11  N   UNL     1     -10.362  10.012  69.715  1.00  0.00    -0.240 NA 
HETATM   12  C   UNL     1     -11.037  10.704  68.773  1.00  0.00    -0.265 A  
ENDROOT
BRANCH   8  13
HETATM   13  C   UNL     1      -8.454   8.029  71.183  1.00  0.00    -0.123 C  
HETATM   14  C   UNL     1      -9.351   5.966  71.818  1.00  0.00    -0.148 C  
HETATM   15  C   UNL     1     -10.246   7.023  72.470  1.00  0.00    -0.184 C  
HETATM   16  O   UNL     1      -8.913   8.751  73.498  1.00  0.00    -0.150 OA 
HETATM   17  O   UNL     1      -8.145   6.639  71.395  1.00  0.00    -0.109 OA 
HETATM   18  C   UNL     1      -9.521   8.351  72.241  1.00  0.00    -0.297 C  
HETATM   19  H   UNL     1      -9.573   8.950  74.152  1.00  0.00     0.000 HD 
HETATM   20  O   UNL     1     -10.407   6.729  73.862  1.00  0.00    -0.327 OA 
HETATM   21  H   UNL     1     -10.963   7.385  74.266  1.00  0.00     0.000 HD 
BRANCH  14  22
HETATM   22  C   UNL     1     -10.074   5.309  70.634  1.00  0.00    -0.239 C  
BRANCH  22  23
HETATM   23  O   UNL     1      -9.226   4.377  69.973  1.00  0.00    -0.106 OA 
HETATM   24  P   UNL     1      -8.565   3.204  71.059  1.00  0.00    -0.075 P  
HETATM   25  O   UNL     1      -7.973   2.154  72.031  1.00  0.00    -0.047 OA 
HETATM   26  O   UNL     1      -9.934   2.365  70.774  1.00  0.00     0.000 OA 
HETATM   27  O   UNL     1      -7.696   2.688  69.774  1.00  0.00    -0.043 OA 
ENDBRANCH  22  23
ENDBRANCH  14  22
ENDBRANCH   8  13
TORSDOF 3
ENDMDL
MODEL      225
REMARK 921   NORMALIZED FREE ENERGY PREDICTED BY IDOCK:   -3.16 KCAL/MOL
REMARK 922        TOTAL FREE ENERGY PREDICTED BY IDOCK:   -4.19 KCAL/MOL
REMARK 923 INTER-LIGAND FREE ENERGY PREDICTED BY IDOCK:   -3.71 KCAL/MOL
REMARK 924 INTRA-LIGAND FREE ENERGY PREDICTED BY IDOCK:   -0.48 KCAL/MOL
REMARK 927      BINDING AFFINITY PREDICTED BY RF-SCORE:    0.00 PKD
ROOT
HETATM    1  N   UNL     1      -8.512   8.265  74.205  1.00  0.00    -0.324 NA 
HETATM    2  C   UNL     1      -8.341   8.198  72.830  1.00  0.00    -0.181 A  
HETATM    3  H1  UNL     1      -7.732   8.304  74.860  1.00  0.00     0.000 HD 
HETATM    4  H2  UNL     1      -9.100   7.477  74.478  1.00  0.00     0.000 HD 
HETATM    5  C   UNL     1      -9.416   8.143  71.928  1.00  0.00    -0.197 A  
HETATM    6  N   UNL     1     -10.777   8.128  72.118  1.00  0.00    -0.269 NA 
HETATM    7  C   UNL     1     -11.284   8.014  70.907  1.00  0.00    -0.266 A  
HETATM    8  N   UNL     1     -10.305   7.994  69.940  1.00  0.00    -0.216 NA 
HETATM    9  N   UNL     1      -7.083   8.154  72.338  1.00  0.00    -0.087 NA 
HETATM   10  C   UNL     1      -9.099   8.059  70.579  1.00  0.00    -0.153 A  
HETATM   11  N   UNL     1      -7.867   8.011  70.043  1.00  0.00    -0.102 NA 
HETATM   12  C   UNL     1      -6.920   8.083  71.002  1.00  0.00    -0.049 A  
ENDROOT
BRANCH   8  13
HETATM   13  C   UNL     1     -10.589   7.918  68.522  1.00  0.00    -0.106 C  
HETATM   14  C   UNL     1     -10.230   5.710  67.843  1.00  0.00    -0.187 C  
HETATM   15  C   UNL     1      -9.090   6.523  67.224  1.00  0.00    -0.117 C  
HETATM   16  O   UNL     1      -9.933   8.552  66.230  1.00  0.00    -0.370 OA 
HETATM   17  O   UNL     1     -11.234   6.655  68.275  1.00  0.00    -0.229 OA 
HETATM   18  C   UNL     1      -9.462   7.985  67.480  1.00  0.00    -0.146 C  
HETATM   19  H   UNL     1      -9.236   8.594  65.585  1.00  0.00     0.000 HD 
HETATM   20  O   UNL     1      -8.990   6.228  65.826  1.00  0.00    -0.243 OA 
HETATM   21  H   UNL     1      -8.283   6.732  65.442  1.00  0.00     0.000 HD 
BRANCH  14  22
HETATM   22  C   UNL     1      -9.711   4.867  69.016  1.00  0.00    -0.175 C  
BRANCH  22  23
HETATM   23  O   UNL     1      -8.308   4.652  68.908  1.00  0.00    -0.081 OA 
HETATM   24  P   UNL     1      -7.919   2.995  68.594  1.00  0.00    -0.056 P  
HETATM   25  O   UNL     1      -7.570   1.514  68.314  1.00  0.00    -0.046 OA 
HETATM   26  O   UNL     1      -8.116   3.386  67.023  1.00  0.00    -0.083 OA 
HETATM   27  O   UNL     1      -6.360   3.460  68.763  1.00  0.00    -0.028 OA 
ENDBRANCH  22  23
ENDBRANCH  14  22
ENDBRANCH   8  13
TORSDOF 3
ENDMDL
MODEL      226
REMARK 921   NORMALIZED FREE ENERGY PREDICTED BY IDOCK:   -3.16 KCAL/MOL
REMARK 922        TOTAL FREE ENERGY PREDICTED BY IDOCK:   -4.18 KCAL/MOL
REMARK 923 INTER-LIGAND FREE ENERGY PREDICTED BY IDOCK:   -3.83 KCAL/MOL
REMARK 924 INTRA-LIGAND FREE ENERGY PREDICTED BY IDOCK:   -0.35 KCAL/MOL
REMARK 927      BINDING AFFINITY PREDICTED BY RF-SCORE:    0.00 PKD
ROOT
HETATM    1  N   UNL     1      -9.430   9.730  63.437  1.00  0.00    -0.501 NA 
HETATM    2  C   UNL     1      -9.632   9.915  64.797  1.00  0.00    -0.271 A  
HETATM    3  H1  UNL     1      -9.954  10.236  62.724  1.00  0.00     0.000 HD 
HETATM    4  H2  UNL     1      -9.537   8.734  63.245  1.00  0.00     0.000 HD 
HETATM    5  C   UNL     1      -8.910   9.218  65.779  1.00  0.00    -0.177 A  
HETATM    6  N   UNL     1      -7.926   8.262  65.693  1.00  0.00    -0.106 NA 
HETATM    7  C   UNL     1      -7.665   7.936  66.943  1.00  0.00    -0.099 A  
HETATM    8  N   UNL     1      -8.413   8.672  67.833  1.00  0.00    -0.129 NA 
HETATM    9  N   UNL     1     -10.589  10.783  65.194  1.00  0.00    -0.222 NA 
HETATM   10  C   UNL     1      -9.231   9.488  67.103  1.00  0.00    -0.134 A  
HETATM   11  N   UNL     1     -10.172  10.339  67.546  1.00  0.00    -0.198 NA 
HETATM   12  C   UNL     1     -10.789  10.957  66.516  1.00  0.00    -0.171 A  
ENDROOT
BRANCH   8  13
HETATM   13  C   UNL     1      -8.294   8.544  69.270  1.00  0.00    -0.120 C  
HETATM   14  C   UNL     1      -9.184   6.468  69.875  1.00  0.00    -0.149 C  
HETATM   15  C   UNL     1     -10.177   7.511  70.394  1.00  0.00    -0.202 C  
HETATM   16  O   UNL     1      -9.018   9.316  71.499  1.00  0.00    -0.316 OA 
HETATM   17  O   UNL     1      -7.962   7.172  69.559  1.00  0.00    -0.122 OA 
HETATM   18  C   UNL     1      -9.476   8.857  70.200  1.00  0.00    -0.180 C  
HETATM   19  H   UNL     1      -9.750   9.510  72.073  1.00  0.00     0.000 HD 
HETATM   20  O   UNL     1     -10.475   7.252  71.771  1.00  0.00    -0.198 OA 
HETATM   21  H   UNL     1     -11.091   7.899  72.094  1.00  0.00     0.000 HD 
BRANCH  14  22
HETATM   22  C   UNL     1      -9.755   5.751  68.644  1.00  0.00    -0.131 C  
BRANCH  22  23
HETATM   23  O   UNL     1      -8.826   4.805  68.129  1.00  0.00    -0.102 OA 
HETATM   24  P   UNL     1      -8.305   3.672  69.329  1.00  0.00    -0.067 P  
HETATM   25  O   UNL     1      -7.839   2.660  70.403  1.00  0.00    -0.043 OA 
HETATM   26  O   UNL     1      -9.624   2.814  68.899  1.00  0.00    -0.141 OA 
HETATM   27  O   UNL     1      -7.277   3.122  68.184  1.00  0.00    -0.049 OA 
ENDBRANCH  22  23
ENDBRANCH  14  22
ENDBRANCH   8  13
TORSDOF 3
ENDMDL
MODEL      227
REMARK 921   NORMALIZED FREE ENERGY PREDICTED BY IDOCK:   -3.15 KCAL/MOL
REMARK 922        TOTAL FREE ENERGY PREDICTED BY IDOCK:   -4.18 KCAL/MOL
REMARK 923 INTER-LIGAND FREE ENERGY PREDICTED BY IDOCK:   -4.02 KCAL/MOL
REMARK 924 INTRA-LIGAND FREE ENERGY PREDICTED BY IDOCK:   -0.15 KCAL/MOL
REMARK 927      BINDING AFFINITY PREDICTED BY RF-SCORE:    0.00 PKD
ROOT
HETATM    1  N   UNL     1      -9.711   7.255  74.501  1.00  0.00    -0.389 NA 
HETATM    2  C   UNL     1      -9.170   7.920  73.411  1.00  0.00    -0.286 A  
HETATM    3  H1  UNL     1      -9.147   6.914  75.279  1.00  0.00     0.000 HD 
HETATM    4  H2  UNL     1     -10.245   6.463  74.142  1.00  0.00     0.000 HD 
HETATM    5  C   UNL     1      -9.946   8.390  72.339  1.00  0.00    -0.310 A  
HETATM    6  N   UNL     1     -11.295   8.325  72.083  1.00  0.00    -0.325 NA 
HETATM    7  C   UNL     1     -11.439   8.888  70.900  1.00  0.00    -0.288 A  
HETATM    8  N   UNL     1     -10.243   9.348  70.401  1.00  0.00    -0.235 NA 
HETATM    9  N   UNL     1      -7.831   8.098  73.364  1.00  0.00    -0.186 NA 
HETATM   10  C   UNL     1      -9.270   9.021  71.304  1.00  0.00    -0.244 A  
HETATM   11  N   UNL     1      -7.945   9.221  71.212  1.00  0.00    -0.332 NA 
HETATM   12  C   UNL     1      -7.307   8.740  72.300  1.00  0.00     0.083 A  
ENDROOT
BRANCH   8  13
HETATM   13  C   UNL     1     -10.122  10.044  69.137  1.00  0.00    -0.208 C  
HETATM   14  C   UNL     1      -9.117   8.584  67.614  1.00  0.00    -0.135 C  
HETATM   15  C   UNL     1      -8.066   9.655  67.914  1.00  0.00    -0.106 C  
HETATM   16  O   UNL     1      -9.050  11.856  67.850  1.00  0.00    -0.169 OA 
HETATM   17  O   UNL     1     -10.383   9.092  68.089  1.00  0.00    -0.199 OA 
HETATM   18  C   UNL     1      -8.807  10.722  68.723  1.00  0.00    -0.163 C  
HETATM   19  H   UNL     1      -8.237  12.275  67.594  1.00  0.00     0.000 HD 
HETATM   20  O   UNL     1      -7.542  10.176  66.687  1.00  0.00    -0.102 OA 
HETATM   21  H   UNL     1      -6.889  10.841  66.873  1.00  0.00     0.000 HD 
BRANCH  14  22
HETATM   22  C   UNL     1      -8.747   7.263  68.302  1.00  0.00    -0.125 C  
BRANCH  22  23
HETATM   23  O   UNL     1      -8.455   6.252  67.344  1.00  0.00    -0.109 OA 
HETATM   24  P   UNL     1      -6.871   6.423  66.670  1.00  0.00    -0.069 P  
HETATM   25  O   UNL     1      -5.454   6.576  66.066  1.00  0.00    -0.013 OA 
HETATM   26  O   UNL     1      -6.377   5.541  67.950  1.00  0.00    -0.039 OA 
HETATM   27  O   UNL     1      -7.296   5.193  65.681  1.00  0.00    -0.071 OA 
ENDBRANCH  22  23
ENDBRANCH  14  22
ENDBRANCH   8  13
TORSDOF 3
ENDMDL
MODEL      228
REMARK 921   NORMALIZED FREE ENERGY PREDICTED BY IDOCK:   -3.14 KCAL/MOL
REMARK 922        TOTAL FREE ENERGY PREDICTED BY IDOCK:   -4.16 KCAL/MOL
REMARK 923 INTER-LIGAND FREE ENERGY PREDICTED BY IDOCK:   -4.35 KCAL/MOL
REMARK 924 INTRA-LIGAND FREE ENERGY PREDICTED BY IDOCK:    0.19 KCAL/MOL
REMARK 927      BINDING AFFINITY PREDICTED BY RF-SCORE:    0.00 PKD
ROOT
HETATM    1  N   UNL     1      -9.196   9.706  70.558  1.00  0.00    -0.326 NA 
HETATM    2  C   UNL     1      -8.828  10.423  69.430  1.00  0.00    -0.123 A  
HETATM    3  H1  UNL     1      -8.561   9.075  71.047  1.00  0.00     0.000 HD 
HETATM    4  H2  UNL     1     -10.033   9.172  70.322  1.00  0.00     0.000 HD 
HETATM    5  C   UNL     1      -9.703  11.291  68.757  1.00  0.00    -0.174 A  
HETATM    6  N   UNL     1     -11.015  11.632  68.983  1.00  0.00    -0.228 NA 
HETATM    7  C   UNL     1     -11.324  12.449  67.995  1.00  0.00    -0.287 A  
HETATM    8  N   UNL     1     -10.252  12.679  67.165  1.00  0.00    -0.224 NA 
HETATM    9  N   UNL     1      -7.580  10.256  68.938  1.00  0.00    -0.087 NA 
HETATM   10  C   UNL     1      -9.207  11.930  67.629  1.00  0.00    -0.183 A  
HETATM   11  N   UNL     1      -7.978  11.796  67.102  1.00  0.00    -0.160 NA 
HETATM   12  C   UNL     1      -7.227  10.950  67.838  1.00  0.00    -0.086 A  
ENDROOT
BRANCH   8  13
HETATM   13  C   UNL     1     -10.305  13.571  66.025  1.00  0.00    -0.303 C  
HETATM   14  C   UNL     1      -9.195  15.543  66.614  1.00  0.00    -0.271 C  
HETATM   15  C   UNL     1     -10.679  15.911  66.538  1.00  0.00    -0.258 C  
HETATM   16  O   UNL     1     -11.686  14.987  64.550  1.00  0.00    -0.522 OA 
HETATM   17  O   UNL     1      -9.045  14.264  65.956  1.00  0.00    -0.092 OA 
HETATM   18  C   UNL     1     -11.362  14.682  65.932  1.00  0.00    -0.338 C  
HETATM   19  H   UNL     1     -12.340  15.674  64.492  1.00  0.00     0.000 HD 
HETATM   20  O   UNL     1     -10.847  17.078  65.724  1.00  0.00    -0.209 OA 
HETATM   21  H   UNL     1     -11.768  17.306  65.677  1.00  0.00     0.000 HD 
BRANCH  14  22
HETATM   22  C   UNL     1      -8.733  15.481  68.076  1.00  0.00    -0.163 C  
BRANCH  22  23
HETATM   23  O   UNL     1      -9.475  16.386  68.884  1.00  0.00    -0.235 OA 
HETATM   24  P   UNL     1     -10.903  15.661  69.541  1.00  0.00    -0.331 P  
HETATM   25  O   UNL     1     -12.180  15.014  70.129  1.00  0.00    -0.310 OA 
HETATM   26  O   UNL     1      -9.931  15.165  70.754  1.00  0.00     0.270 OA 
HETATM   27  O   UNL     1     -11.249  17.155  70.108  1.00  0.00     0.292 OA 
ENDBRANCH  22  23
ENDBRANCH  14  22
ENDBRANCH   8  13
TORSDOF 3
ENDMDL
MODEL      229
REMARK 921   NORMALIZED FREE ENERGY PREDICTED BY IDOCK:   -3.12 KCAL/MOL
REMARK 922        TOTAL FREE ENERGY PREDICTED BY IDOCK:   -4.14 KCAL/MOL
REMARK 923 INTER-LIGAND FREE ENERGY PREDICTED BY IDOCK:   -3.37 KCAL/MOL
REMARK 924 INTRA-LIGAND FREE ENERGY PREDICTED BY IDOCK:   -0.76 KCAL/MOL
REMARK 927      BINDING AFFINITY PREDICTED BY RF-SCORE:    0.00 PKD
ROOT
HETATM    1  N   UNL     1      -8.556   7.774  72.815  1.00  0.00    -0.138 NA 
HETATM    2  C   UNL     1      -7.928   8.633  71.926  1.00  0.00    -0.076 A  
HETATM    3  H1  UNL     1      -8.068   7.318  73.586  1.00  0.00     0.000 HD 
HETATM    4  H2  UNL     1      -9.009   7.043  72.266  1.00  0.00     0.000 HD 
HETATM    5  C   UNL     1      -8.600   9.260  70.864  1.00  0.00    -0.162 A  
HETATM    6  N   UNL     1      -9.907   9.205  70.442  1.00  0.00    -0.201 NA 
HETATM    7  C   UNL     1      -9.943   9.960  69.363  1.00  0.00    -0.212 A  
HETATM    8  N   UNL     1      -8.721  10.531  69.095  1.00  0.00    -0.160 NA 
HETATM    9  N   UNL     1      -6.602   8.852  72.069  1.00  0.00    -0.222 NA 
HETATM   10  C   UNL     1      -7.842  10.079  70.039  1.00  0.00    -0.158 A  
HETATM   11  N   UNL     1      -6.525  10.327  70.141  1.00  0.00    -0.112 NA 
HETATM   12  C   UNL     1      -5.992   9.682  71.200  1.00  0.00    -0.072 A  
ENDROOT
BRANCH   8  13
HETATM   13  C   UNL     1      -8.492  11.439  67.991  1.00  0.00    -0.145 C  
HETATM   14  C   UNL     1      -8.525  10.184  66.019  1.00  0.00    -0.131 C  
HETATM   15  C   UNL     1      -7.066  10.601  66.218  1.00  0.00    -0.137 C  
HETATM   16  O   UNL     1      -6.921  12.934  66.813  1.00  0.00    -0.366 OA 
HETATM   17  O   UNL     1      -9.323  11.011  66.895  1.00  0.00    -0.170 OA 
HETATM   18  C   UNL     1      -7.095  11.606  67.372  1.00  0.00    -0.124 C  
HETATM   19  H   UNL     1      -6.057  13.037  66.431  1.00  0.00     0.000 HD 
HETATM   20  O   UNL     1      -6.560  11.181  65.010  1.00  0.00    -0.229 OA 
HETATM   21  H   UNL     1      -5.654  11.440  65.133  1.00  0.00     0.000 HD 
BRANCH  14  22
HETATM   22  C   UNL     1      -8.704   8.693  66.337  1.00  0.00    -0.130 C  
BRANCH  22  23
HETATM   23  O   UNL     1      -7.606   8.197  67.092  1.00  0.00    -0.093 OA 
HETATM   24  P   UNL     1      -8.001   6.752  67.958  1.00  0.00    -0.115 P  
HETATM   25  O   UNL     1      -8.355   5.460  68.733  1.00  0.00    -0.096 OA 
HETATM   26  O   UNL     1      -7.582   5.975  66.586  1.00  0.00    -0.092 OA 
HETATM   27  O   UNL     1      -6.513   6.891  68.620  1.00  0.00    -0.034 OA 
ENDBRANCH  22  23
ENDBRANCH  14  22
ENDBRANCH   8  13
TORSDOF 3
ENDMDL
MODEL      230
REMARK 921   NORMALIZED FREE ENERGY PREDICTED BY IDOCK:   -2.95 KCAL/MOL
REMARK 922        TOTAL FREE ENERGY PREDICTED BY IDOCK:   -3.93 KCAL/MOL
REMARK 923 INTER-LIGAND FREE ENERGY PREDICTED BY IDOCK:   -3.56 KCAL/MOL
REMARK 924 INTRA-LIGAND FREE ENERGY PREDICTED BY IDOCK:   -0.38 KCAL/MOL
REMARK 927      BINDING AFFINITY PREDICTED BY RF-SCORE:    0.00 PKD
ROOT
HETATM    1  N   UNL     1      -8.927   5.521  63.077  1.00  0.00    -0.335 NA 
HETATM    2  C   UNL     1      -8.243   5.258  64.254  1.00  0.00    -0.132 A  
HETATM    3  H1  UNL     1      -8.457   5.716  62.193  1.00  0.00     0.000 HD 
HETATM    4  H2  UNL     1      -9.565   6.296  63.260  1.00  0.00     0.000 HD 
HETATM    5  C   UNL     1      -8.890   4.990  65.471  1.00  0.00    -0.146 A  
HETATM    6  N   UNL     1     -10.221   4.928  65.811  1.00  0.00    -0.201 NA 
HETATM    7  C   UNL     1     -10.224   4.691  67.108  1.00  0.00    -0.095 A  
HETATM    8  N   UNL     1      -8.951   4.558  67.609  1.00  0.00    -0.111 NA 
HETATM    9  N   UNL     1      -6.892   5.293  64.236  1.00  0.00    -0.046 NA 
HETATM   10  C   UNL     1      -8.081   4.764  66.576  1.00  0.00    -0.107 A  
HETATM   11  N   UNL     1      -6.737   4.788  66.607  1.00  0.00    -0.050 NA 
HETATM   12  C   UNL     1      -6.229   5.043  65.383  1.00  0.00    -0.034 A  
ENDROOT
BRANCH   8  13
HETATM   13  C   UNL     1      -8.669   4.253  68.996  1.00  0.00    -0.086 C  
HETATM   14  C   UNL     1      -9.184   6.151  70.261  1.00  0.00    -0.156 C  
HETATM   15  C   UNL     1      -7.657   6.041  70.283  1.00  0.00    -0.095 C  
HETATM   16  O   UNL     1      -6.972   3.770  70.721  1.00  0.00    -0.032 OA 
HETATM   17  O   UNL     1      -9.690   4.880  69.796  1.00  0.00    -0.154 OA 
HETATM   18  C   UNL     1      -7.348   4.680  69.655  1.00  0.00    -0.051 C  
HETATM   19  H   UNL     1      -6.155   4.035  71.128  1.00  0.00     0.000 HD 
HETATM   20  O   UNL     1      -7.185   6.133  71.632  1.00  0.00    -0.083 OA 
HETATM   21  H   UNL     1      -6.238   6.065  71.646  1.00  0.00     0.000 HD 
BRANCH  14  22
HETATM   22  C   UNL     1      -9.625   7.301  69.345  1.00  0.00    -0.154 C  
BRANCH  22  23
HETATM   23  O   UNL     1     -10.747   7.985  69.890  1.00  0.00    -0.244 OA 
HETATM   24  P   UNL     1     -10.807   7.879  71.616  1.00  0.00    -0.252 P  
HETATM   25  O   UNL     1     -10.862   7.784  73.160  1.00  0.00    -0.389 OA 
HETATM   26  O   UNL     1      -9.843   9.195  71.597  1.00  0.00    -0.305 OA 
HETATM   27  O   UNL     1     -12.250   8.637  71.487  1.00  0.00    -0.296 OA 
ENDBRANCH  22  23
ENDBRANCH  14  22
ENDBRANCH   8  13
TORSDOF 3
ENDMDL
MODEL      231
REMARK 921   NORMALIZED FREE ENERGY PREDICTED BY IDOCK:   -2.94 KCAL/MOL
REMARK 922        TOTAL FREE ENERGY PREDICTED BY IDOCK:   -3.93 KCAL/MOL
REMARK 923 INTER-LIGAND FREE ENERGY PREDICTED BY IDOCK:   -3.64 KCAL/MOL
REMARK 924 INTRA-LIGAND FREE ENERGY PREDICTED BY IDOCK:   -0.29 KCAL/MOL
REMARK 927      BINDING AFFINITY PREDICTED BY RF-SCORE:    0.00 PKD
ROOT
HETATM    1  N   UNL     1      -6.990   8.721  64.763  1.00  0.00    -0.073 NA 
HETATM    2  C   UNL     1      -6.832   8.092  65.989  1.00  0.00    -0.057 A  
HETATM    3  H1  UNL     1      -6.451   9.542  64.486  1.00  0.00     0.000 HD 
HETATM    4  H2  UNL     1      -7.977   8.958  64.666  1.00  0.00     0.000 HD 
HETATM    5  C   UNL     1      -7.574   6.963  66.370  1.00  0.00    -0.089 A  
HETATM    6  N   UNL     1      -8.556   6.247  65.728  1.00  0.00    -0.150 NA 
HETATM    7  C   UNL     1      -8.920   5.324  66.595  1.00  0.00    -0.117 A  
HETATM    8  N   UNL     1      -8.184   5.390  67.755  1.00  0.00    -0.100 NA 
HETATM    9  N   UNL     1      -5.945   8.609  66.869  1.00  0.00    -0.055 NA 
HETATM   10  C   UNL     1      -7.327   6.447  67.635  1.00  0.00    -0.088 A  
HETATM   11  N   UNL     1      -6.458   6.925  68.543  1.00  0.00    -0.035 NA 
HETATM   12  C   UNL     1      -5.798   7.999  68.062  1.00  0.00    -0.041 A  
ENDROOT
BRANCH   8  13
HETATM   13  C   UNL     1      -8.351   4.466  68.857  1.00  0.00    -0.079 C  
HETATM   14  C   UNL     1     -10.249   5.121  70.053  1.00  0.00    -0.284 C  
HETATM   15  C   UNL     1      -9.058   5.449  70.957  1.00  0.00    -0.143 C  
HETATM   16  O   UNL     1      -7.495   3.612  71.008  1.00  0.00    -0.037 OA 
HETATM   17  O   UNL     1      -9.762   4.234  69.021  1.00  0.00    -0.174 OA 
HETATM   18  C   UNL     1      -7.850   4.810  70.268  1.00  0.00    -0.058 C  
HETATM   19  H   UNL     1      -7.186   3.825  71.881  1.00  0.00     0.000 HD 
HETATM   20  O   UNL     1      -9.281   4.911  72.265  1.00  0.00    -0.129 OA 
HETATM   21  H   UNL     1      -8.542   5.115  72.826  1.00  0.00     0.000 HD 
BRANCH  14  22
HETATM   22  C   UNL     1     -10.841   6.406  69.458  1.00  0.00    -0.321 C  
BRANCH  22  23
HETATM   23  O   UNL     1     -12.104   6.703  70.040  1.00  0.00    -0.280 OA 
HETATM   24  P   UNL     1     -11.954   7.481  71.578  1.00  0.00    -0.337 P  
HETATM   25  O   UNL     1     -11.819   8.177  72.954  1.00  0.00    -0.352 OA 
HETATM   26  O   UNL     1     -11.872   8.866  70.719  1.00  0.00    -0.273 OA 
HETATM   27  O   UNL     1     -13.581   7.348  71.665  1.00  0.00    -0.370 OA 
ENDBRANCH  22  23
ENDBRANCH  14  22
ENDBRANCH   8  13
TORSDOF 3
ENDMDL
MODEL      232
REMARK 921   NORMALIZED FREE ENERGY PREDICTED BY IDOCK:   -2.94 KCAL/MOL
REMARK 922        TOTAL FREE ENERGY PREDICTED BY IDOCK:   -3.93 KCAL/MOL
REMARK 923 INTER-LIGAND FREE ENERGY PREDICTED BY IDOCK:   -3.25 KCAL/MOL
REMARK 924 INTRA-LIGAND FREE ENERGY PREDICTED BY IDOCK:   -0.67 KCAL/MOL
REMARK 927      BINDING AFFINITY PREDICTED BY RF-SCORE:    0.00 PKD
ROOT
HETATM    1  N   UNL     1      -8.420  10.573  69.824  1.00  0.00    -0.382 NA 
HETATM    2  C   UNL     1      -8.992   9.318  69.973  1.00  0.00    -0.198 A  
HETATM    3  H1  UNL     1      -8.965  11.410  69.619  1.00  0.00     0.000 HD 
HETATM    4  H2  UNL     1      -7.698  10.496  69.107  1.00  0.00     0.000 HD 
HETATM    5  C   UNL     1      -8.242   8.165  70.255  1.00  0.00    -0.122 A  
HETATM    6  N   UNL     1      -6.894   7.964  70.431  1.00  0.00    -0.041 NA 
HETATM    7  C   UNL     1      -6.770   6.665  70.616  1.00  0.00    -0.057 A  
HETATM    8  N   UNL     1      -7.988   6.026  70.606  1.00  0.00    -0.109 NA 
HETATM    9  N   UNL     1     -10.328   9.195  69.810  1.00  0.00    -0.206 NA 
HETATM   10  C   UNL     1      -8.943   6.971  70.358  1.00  0.00    -0.155 A  
HETATM   11  N   UNL     1     -10.267   6.799  70.204  1.00  0.00    -0.192 NA 
HETATM   12  C   UNL     1     -10.881   7.974  69.949  1.00  0.00    -0.217 A  
ENDROOT
BRANCH   8  13
HETATM   13  C   UNL     1      -8.142   4.603  70.828  1.00  0.00    -0.084 C  
HETATM   14  C   UNL     1      -7.810   3.524  68.781  1.00  0.00    -0.055 C  
HETATM   15  C   UNL     1      -9.304   3.386  69.083  1.00  0.00    -0.167 C  
HETATM   16  O   UNL     1      -9.653   2.732  71.378  1.00  0.00    -0.137 OA 
HETATM   17  O   UNL     1      -7.168   3.927  70.011  1.00  0.00    -0.041 OA 
HETATM   18  C   UNL     1      -9.466   3.888  70.520  1.00  0.00    -0.181 C  
HETATM   19  H   UNL     1     -10.472   2.289  71.188  1.00  0.00     0.000 HD 
HETATM   20  O   UNL     1      -9.702   2.018  68.940  1.00  0.00    -0.088 OA 
HETATM   21  H   UNL     1     -10.629   1.932  69.128  1.00  0.00     0.000 HD 
BRANCH  14  22
HETATM   22  C   UNL     1      -7.581   4.552  67.664  1.00  0.00    -0.078 C  
BRANCH  22  23
HETATM   23  O   UNL     1      -8.731   5.370  67.481  1.00  0.00    -0.109 OA 
HETATM   24  P   UNL     1      -8.506   6.553  66.239  1.00  0.00    -0.138 P  
HETATM   25  O   UNL     1      -8.305   7.612  65.128  1.00  0.00    -0.138 OA 
HETATM   26  O   UNL     1      -9.009   5.383  65.219  1.00  0.00    -0.157 OA 
HETATM   27  O   UNL     1      -9.971   7.123  66.690  1.00  0.00    -0.202 OA 
ENDBRANCH  22  23
ENDBRANCH  14  22
ENDBRANCH   8  13
TORSDOF 3
ENDMDL
MODEL      233
REMARK 921   NORMALIZED FREE ENERGY PREDICTED BY IDOCK:   -2.91 KCAL/MOL
REMARK 922        TOTAL FREE ENERGY PREDICTED BY IDOCK:   -3.89 KCAL/MOL
REMARK 923 INTER-LIGAND FREE ENERGY PREDICTED BY IDOCK:   -3.29 KCAL/MOL
REMARK 924 INTRA-LIGAND FREE ENERGY PREDICTED BY IDOCK:   -0.60 KCAL/MOL
REMARK 927      BINDING AFFINITY PREDICTED BY RF-SCORE:    0.00 PKD
ROOT
HETATM    1  N   UNL     1     -13.210  13.860  65.698  1.00  0.00    -0.629 NA 
HETATM    2  C   UNL     1     -12.361  13.785  66.792  1.00  0.00    -0.321 A  
HETATM    3  H1  UNL     1     -14.227  13.857  65.782  1.00  0.00     0.000 HD 
HETATM    4  H2  UNL     1     -12.955  13.105  65.060  1.00  0.00     0.000 HD 
HETATM    5  C   UNL     1     -10.962  13.789  66.675  1.00  0.00    -0.296 A  
HETATM    6  N   UNL     1     -10.130  13.850  65.583  1.00  0.00    -0.319 NA 
HETATM    7  C   UNL     1      -8.913  13.764  66.083  1.00  0.00     0.256 A  
HETATM    8  N   UNL     1      -8.926  13.691  67.456  1.00  0.00    -0.198 NA 
HETATM    9  N   UNL     1     -12.905  13.672  68.024  1.00  0.00     1.053 NA 
HETATM   10  C   UNL     1     -10.234  13.689  67.853  1.00  0.00    -0.250 A  
HETATM   11  N   UNL     1     -10.728  13.574  69.097  1.00  0.00    -0.146 NA 
HETATM   12  C   UNL     1     -12.078  13.593  69.085  1.00  0.00    -0.319 A  
ENDROOT
BRANCH   8  13
HETATM   13  C   UNL     1      -7.724  13.631  68.261  1.00  0.00    -0.140 C  
HETATM   14  C   UNL     1      -7.530  15.665  69.399  1.00  0.00    -0.221 C  
HETATM   15  C   UNL     1      -6.416  15.670  68.350  1.00  0.00    -0.113 C  
HETATM   16  O   UNL     1      -5.259  13.554  68.323  1.00  0.00    -0.083 OA 
HETATM   17  O   UNL     1      -8.001  14.302  69.505  1.00  0.00     0.119 OA 
HETATM   18  C   UNL     1      -6.407  14.253  67.774  1.00  0.00    -0.154 C  
HETATM   19  H   UNL     1      -4.444  13.938  68.021  1.00  0.00     0.000 HD 
HETATM   20  O   UNL     1      -5.170  16.009  68.969  1.00  0.00    -0.106 OA 
HETATM   21  H   UNL     1      -4.478  16.013  68.318  1.00  0.00     0.000 HD 
BRANCH  14  22
HETATM   22  C   UNL     1      -8.659  16.619  68.987  1.00  0.00    -0.190 C  
BRANCH  22  23
HETATM   23  O   UNL     1      -8.351  17.275  67.763  1.00  0.00    -0.205 OA 
HETATM   24  P   UNL     1      -8.643  18.979  67.838  1.00  0.00    -0.320 P  
HETATM   25  O   UNL     1      -8.905  20.503  67.905  1.00  0.00    -0.157 OA 
HETATM   26  O   UNL     1      -7.126  19.078  68.430  1.00  0.00    -0.254 OA 
HETATM   27  O   UNL     1      -8.280  18.985  66.244  1.00  0.00    -0.296 OA 
ENDBRANCH  22  23
ENDBRANCH  14  22
ENDBRANCH   8  13
TORSDOF 3
ENDMDL
MODEL      234
REMARK 921   NORMALIZED FREE ENERGY PREDICTED BY IDOCK:   -2.88 KCAL/MOL
REMARK 922        TOTAL FREE ENERGY PREDICTED BY IDOCK:   -3.85 KCAL/MOL
REMARK 923 INTER-LIGAND FREE ENERGY PREDICTED BY IDOCK:   -3.37 KCAL/MOL
REMARK 924 INTRA-LIGAND FREE ENERGY PREDICTED BY IDOCK:   -0.48 KCAL/MOL
REMARK 927      BINDING AFFINITY PREDICTED BY RF-SCORE:    0.00 PKD
ROOT
HETATM    1  N   UNL     1     -10.052   4.127  63.631  1.00  0.00    -0.342 NA 
HETATM    2  C   UNL     1      -9.155   4.484  64.625  1.00  0.00    -0.151 A  
HETATM    3  H1  UNL     1      -9.763   3.716  62.743  1.00  0.00     0.000 HD 
HETATM    4  H2  UNL     1     -10.615   4.950  63.416  1.00  0.00     0.000 HD 
HETATM    5  C   UNL     1      -9.553   5.050  65.847  1.00  0.00    -0.164 A  
HETATM    6  N   UNL     1     -10.789   5.384  66.347  1.00  0.00    -0.235 NA 
HETATM    7  C   UNL     1     -10.539   5.928  67.521  1.00  0.00    -0.273 A  
HETATM    8  N   UNL     1      -9.196   5.923  67.816  1.00  0.00    -0.109 NA 
HETATM    9  N   UNL     1      -7.834   4.308  64.396  1.00  0.00    -0.084 NA 
HETATM   10  C   UNL     1      -8.545   5.378  66.744  1.00  0.00    -0.110 A  
HETATM   11  N   UNL     1      -7.223   5.222  66.562  1.00  0.00    -0.076 NA 
HETATM   12  C   UNL     1      -6.963   4.661  65.362  1.00  0.00    -0.062 A  
ENDROOT
BRANCH   8  13
HETATM   13  C   UNL     1      -8.652   6.422  69.061  1.00  0.00    -0.124 C  
HETATM   14  C   UNL     1      -9.069   8.721  69.147  1.00  0.00    -0.141 C  
HETATM   15  C   UNL     1      -7.559   8.583  68.939  1.00  0.00    -0.096 C  
HETATM   16  O   UNL     1      -6.645   6.907  70.412  1.00  0.00    -0.049 OA 
HETATM   17  O   UNL     1      -9.557   7.425  69.560  1.00  0.00    -0.156 OA 
HETATM   18  C   UNL     1      -7.269   7.091  69.115  1.00  0.00    -0.090 C  
HETATM   19  H   UNL     1      -5.790   7.320  70.446  1.00  0.00     0.000 HD 
HETATM   20  O   UNL     1      -6.863   9.385  69.900  1.00  0.00    -0.050 OA 
HETATM   21  H   UNL     1      -5.926   9.300  69.770  1.00  0.00     0.000 HD 
BRANCH  14  22
HETATM   22  C   UNL     1      -9.748   9.191  67.853  1.00  0.00    -0.154 C  
BRANCH  22  23
HETATM   23  O   UNL     1      -8.830   9.889  67.020  1.00  0.00    -0.133 OA 
HETATM   24  P   UNL     1      -8.737   9.211  65.431  1.00  0.00    -0.198 P  
HETATM   25  O   UNL     1      -8.654   8.605  64.009  1.00  0.00    -0.127 OA 
HETATM   26  O   UNL     1      -9.998  10.187  65.087  1.00  0.00    -0.310 OA 
HETATM   27  O   UNL     1      -7.529  10.284  65.179  1.00  0.00    -0.139 OA 
ENDBRANCH  22  23
ENDBRANCH  14  22
ENDBRANCH   8  13
TORSDOF 3
ENDMDL
MODEL      235
REMARK 921   NORMALIZED FREE ENERGY PREDICTED BY IDOCK:   -2.86 KCAL/MOL
REMARK 922        TOTAL FREE ENERGY PREDICTED BY IDOCK:   -3.83 KCAL/MOL
REMARK 923 INTER-LIGAND FREE ENERGY PREDICTED BY IDOCK:   -3.24 KCAL/MOL
REMARK 924 INTRA-LIGAND FREE ENERGY PREDICTED BY IDOCK:   -0.59 KCAL/MOL
REMARK 927      BINDING AFFINITY PREDICTED BY RF-SCORE:    0.00 PKD
ROOT
HETATM    1  N   UNL     1     -11.367  11.451  69.139  1.00  0.00    -0.261 NA 
HETATM    2  C   UNL     1     -10.166  10.764  69.240  1.00  0.00    -0.194 A  
HETATM    3  H1  UNL     1     -11.540  12.165  68.432  1.00  0.00     0.000 HD 
HETATM    4  H2  UNL     1     -11.557  11.870  70.049  1.00  0.00     0.000 HD 
HETATM    5  C   UNL     1      -9.927   9.781  70.214  1.00  0.00    -0.253 A  
HETATM    6  N   UNL     1     -10.708   9.283  71.229  1.00  0.00    -0.326 NA 
HETATM    7  C   UNL     1      -9.936   8.416  71.852  1.00  0.00    -0.261 A  
HETATM    8  N   UNL     1      -8.701   8.306  71.255  1.00  0.00    -0.139 NA 
HETATM    9  N   UNL     1      -9.170  11.077  68.382  1.00  0.00    -0.168 NA 
HETATM   10  C   UNL     1      -8.672   9.188  70.212  1.00  0.00    -0.200 A  
HETATM   11  N   UNL     1      -7.652   9.465  69.381  1.00  0.00    -0.078 NA 
HETATM   12  C   UNL     1      -8.002  10.413  68.486  1.00  0.00    -0.114 A  
ENDROOT
BRANCH   8  13
HETATM   13  C   UNL     1      -7.674   7.394  71.713  1.00  0.00    -0.086 C  
HETATM   14  C   UNL     1      -7.838   5.442  70.436  1.00  0.00    -0.088 C  
HETATM   15  C   UNL     1      -8.320   5.061  71.837  1.00  0.00    -0.120 C  
HETATM   16  O   UNL     1      -6.832   5.940  73.520  1.00  0.00    -0.078 OA 
HETATM   17  O   UNL     1      -7.154   6.710  70.557  1.00  0.00    -0.065 OA 
HETATM   18  C   UNL     1      -7.992   6.272  72.713  1.00  0.00    -0.105 C  
HETATM   19  H   UNL     1      -7.029   5.247  74.139  1.00  0.00     0.000 HD 
HETATM   20  O   UNL     1      -7.642   3.878  72.277  1.00  0.00    -0.066 OA 
HETATM   21  H   UNL     1      -7.942   3.641  73.146  1.00  0.00     0.000 HD 
BRANCH  14  22
HETATM   22  C   UNL     1      -9.024   5.534  69.467  1.00  0.00    -0.113 C  
BRANCH  22  23
HETATM   23  O   UNL     1      -8.584   5.486  68.115  1.00  0.00    -0.101 OA 
HETATM   24  P   UNL     1      -8.638   3.884  67.462  1.00  0.00    -0.113 P  
HETATM   25  O   UNL     1      -8.685   2.452  66.878  1.00  0.00    -0.109 OA 
HETATM   26  O   UNL     1     -10.186   4.234  67.087  1.00  0.00    -0.099 OA 
HETATM   27  O   UNL     1      -7.920   4.533  66.144  1.00  0.00    -0.098 OA 
ENDBRANCH  22  23
ENDBRANCH  14  22
ENDBRANCH   8  13
TORSDOF 3
ENDMDL
MODEL      236
REMARK 921   NORMALIZED FREE ENERGY PREDICTED BY IDOCK:   -2.77 KCAL/MOL
REMARK 922        TOTAL FREE ENERGY PREDICTED BY IDOCK:   -3.72 KCAL/MOL
REMARK 923 INTER-LIGAND FREE ENERGY PREDICTED BY IDOCK:   -3.08 KCAL/MOL
REMARK 924 INTRA-LIGAND FREE ENERGY PREDICTED BY IDOCK:   -0.64 KCAL/MOL
REMARK 927      BINDING AFFINITY PREDICTED BY RF-SCORE:    0.00 PKD
ROOT
HETATM    1  N   UNL     1     -12.178   7.080  69.965  1.00  0.00    -0.523 NA 
HETATM    2  C   UNL     1     -11.031   7.858  69.916  1.00  0.00    -0.178 A  
HETATM    3  H1  UNL     1     -12.182   6.118  70.303  1.00  0.00     0.000 HD 
HETATM    4  H2  UNL     1     -12.585   7.076  69.030  1.00  0.00     0.000 HD 
HETATM    5  C   UNL     1     -11.025   9.183  69.450  1.00  0.00    -0.092 A  
HETATM    6  N   UNL     1     -12.023   9.989  68.958  1.00  0.00     0.191 NA 
HETATM    7  C   UNL     1     -11.415  11.111  68.629  1.00  0.00    -0.298 A  
HETATM    8  N   UNL     1     -10.073  11.075  68.925  1.00  0.00    -0.203 NA 
HETATM    9  N   UNL     1      -9.860   7.306  70.306  1.00  0.00    -0.179 NA 
HETATM   10  C   UNL     1      -9.801   9.837  69.437  1.00  0.00    -0.205 A  
HETATM   11  N   UNL     1      -8.613   9.332  69.813  1.00  0.00    -0.144 NA 
HETATM   12  C   UNL     1      -8.745   8.062  70.251  1.00  0.00    -0.134 A  
ENDROOT
BRANCH   8  13
HETATM   13  C   UNL     1      -9.178  12.191  68.704  1.00  0.00    -0.015 C  
HETATM   14  C   UNL     1      -8.051  11.811  66.691  1.00  0.00    -0.094 C  
HETATM   15  C   UNL     1      -7.003  11.631  67.792  1.00  0.00    -0.084 C  
HETATM   16  O   UNL     1      -7.154  13.412  69.412  1.00  0.00    -0.296 OA 
HETATM   17  O   UNL     1      -9.182  12.479  67.292  1.00  0.00    -0.177 OA 
HETATM   18  C   UNL     1      -7.689  12.106  69.075  1.00  0.00     0.128 C  
HETATM   19  H   UNL     1      -6.233  13.359  69.641  1.00  0.00     0.000 HD 
HETATM   20  O   UNL     1      -5.839  12.408  67.483  1.00  0.00    -0.112 OA 
HETATM   21  H   UNL     1      -5.188  12.296  68.167  1.00  0.00     0.000 HD 
BRANCH  14  22
HETATM   22  C   UNL     1      -8.449  10.450  66.103  1.00  0.00    -0.147 C  
BRANCH  22  23
HETATM   23  O   UNL     1      -7.640   9.408  66.636  1.00  0.00    -0.093 OA 
HETATM   24  P   UNL     1      -8.099   7.849  66.042  1.00  0.00    -0.126 P  
HETATM   25  O   UNL     1      -8.511   6.455  65.512  1.00  0.00    -0.148 OA 
HETATM   26  O   UNL     1      -7.097   8.176  64.797  1.00  0.00    -0.075 OA 
HETATM   27  O   UNL     1      -6.994   7.261  67.093  1.00  0.00    -0.073 OA 
ENDBRANCH  22  23
ENDBRANCH  14  22
ENDBRANCH   8  13
TORSDOF 3
ENDMDL
MODEL      237
REMARK 921   NORMALIZED FREE ENERGY PREDICTED BY IDOCK:   -2.69 KCAL/MOL
REMARK 922        TOTAL FREE ENERGY PREDICTED BY IDOCK:   -3.63 KCAL/MOL
REMARK 923 INTER-LIGAND FREE ENERGY PREDICTED BY IDOCK:   -3.22 KCAL/MOL
REMARK 924 INTRA-LIGAND FREE ENERGY PREDICTED BY IDOCK:   -0.40 KCAL/MOL
REMARK 927      BINDING AFFINITY PREDICTED BY RF-SCORE:    0.00 PKD
ROOT
HETATM    1  N   UNL     1      -9.099   5.342  63.096  1.00  0.00    -0.329 NA 
HETATM    2  C   UNL     1      -8.496   5.353  64.345  1.00  0.00    -0.106 A  
HETATM    3  H1  UNL     1      -8.583   5.487  62.229  1.00  0.00     0.000 HD 
HETATM    4  H2  UNL     1      -9.857   6.025  63.118  1.00  0.00     0.000 HD 
HETATM    5  C   UNL     1      -9.206   5.153  65.540  1.00  0.00    -0.136 A  
HETATM    6  N   UNL     1     -10.539   4.930  65.791  1.00  0.00    -0.234 NA 
HETATM    7  C   UNL     1     -10.628   4.874  67.105  1.00  0.00     0.030 A  
HETATM    8  N   UNL     1      -9.400   5.012  67.709  1.00  0.00    -0.122 NA 
HETATM    9  N   UNL     1      -7.168   5.596  64.417  1.00  0.00    -0.056 NA 
HETATM   10  C   UNL     1      -8.478   5.210  66.720  1.00  0.00    -0.106 A  
HETATM   11  N   UNL     1      -7.161   5.448  66.842  1.00  0.00    -0.065 NA 
HETATM   12  C   UNL     1      -6.585   5.612  65.632  1.00  0.00    -0.041 A  
ENDROOT
BRANCH   8  13
HETATM   13  C   UNL     1      -9.206   4.946  69.142  1.00  0.00    -0.118 C  
HETATM   14  C   UNL     1      -9.847   7.007  70.042  1.00  0.00    -0.177 C  
HETATM   15  C   UNL     1      -8.323   6.952  70.178  1.00  0.00    -0.135 C  
HETATM   16  O   UNL     1      -7.619   4.807  71.026  1.00  0.00    -0.072 OA 
HETATM   17  O   UNL     1     -10.292   5.661  69.761  1.00  0.00    -0.229 OA 
HETATM   18  C   UNL     1      -7.943   5.518  69.803  1.00  0.00    -0.090 C  
HETATM   19  H   UNL     1      -6.838   5.161  71.435  1.00  0.00     0.000 HD 
HETATM   20  O   UNL     1      -7.946   7.278  71.520  1.00  0.00    -0.098 OA 
HETATM   21  H   UNL     1      -7.000   7.244  71.605  1.00  0.00     0.000 HD 
BRANCH  14  22
HETATM   22  C   UNL     1     -10.251   7.977  68.923  1.00  0.00    -0.209 C  
BRANCH  22  23
HETATM   23  O   UNL     1     -10.811   9.169  69.460  1.00  0.00    -0.231 OA 
HETATM   24  P   UNL     1     -10.404  10.567  68.525  1.00  0.00    -0.208 P  
HETATM   25  O   UNL     1     -10.039  11.818  67.689  1.00  0.00    -0.189 OA 
HETATM   26  O   UNL     1     -11.718  10.190  67.635  1.00  0.00    -0.064 OA 
HETATM   27  O   UNL     1     -11.150  11.419  69.704  1.00  0.00    -0.238 OA 
ENDBRANCH  22  23
ENDBRANCH  14  22
ENDBRANCH   8  13
TORSDOF 3
ENDMDL
MODEL      238
REMARK 921   NORMALIZED FREE ENERGY PREDICTED BY IDOCK:   -2.66 KCAL/MOL
REMARK 922        TOTAL FREE ENERGY PREDICTED BY IDOCK:   -3.60 KCAL/MOL
REMARK 923 INTER-LIGAND FREE ENERGY PREDICTED BY IDOCK:   -3.19 KCAL/MOL
REMARK 924 INTRA-LIGAND FREE ENERGY PREDICTED BY IDOCK:   -0.41 KCAL/MOL
REMARK 927      BINDING AFFINITY PREDICTED BY RF-SCORE:    0.00 PKD
ROOT
HETATM    1  N   UNL     1      -5.373   6.674  71.815  1.00  0.00    -0.027 NA 
HETATM    2  C   UNL     1      -5.905   7.859  71.328  1.00  0.00    -0.034 A  
HETATM    3  H1  UNL     1      -4.531   6.638  72.390  1.00  0.00     0.000 HD 
HETATM    4  H2  UNL     1      -5.225   6.055  71.018  1.00  0.00     0.000 HD 
HETATM    5  C   UNL     1      -7.064   7.908  70.537  1.00  0.00    -0.046 A  
HETATM    6  N   UNL     1      -7.898   6.923  70.064  1.00  0.00    -0.108 NA 
HETATM    7  C   UNL     1      -8.789   7.560  69.332  1.00  0.00    -0.136 A  
HETATM    8  N   UNL     1      -8.587   8.921  69.346  1.00  0.00    -0.130 NA 
HETATM    9  N   UNL     1      -5.262   9.015  71.602  1.00  0.00    -0.040 NA 
HETATM   10  C   UNL     1      -7.473   9.161  70.101  1.00  0.00    -0.082 A  
HETATM   11  N   UNL     1      -6.869  10.336  70.347  1.00  0.00    -0.256 NA 
HETATM   12  C   UNL     1      -5.777  10.165  71.123  1.00  0.00    -0.054 A  
ENDROOT
BRANCH   8  13
HETATM   13  C   UNL     1      -9.448   9.860  68.659  1.00  0.00    -0.153 C  
HETATM   14  C   UNL     1      -8.611  10.138  66.494  1.00  0.00    -0.126 C  
HETATM   15  C   UNL     1      -8.326  11.455  67.219  1.00  0.00    -0.149 C  
HETATM   16  O   UNL     1     -10.261  12.181  68.462  1.00  0.00    -0.216 OA 
HETATM   17  O   UNL     1      -9.574   9.417  67.295  1.00  0.00    -0.142 OA 
HETATM   18  C   UNL     1      -9.077  11.347  68.548  1.00  0.00    -0.169 C  
HETATM   19  H   UNL     1     -10.032  13.101  68.393  1.00  0.00     0.000 HD 
HETATM   20  O   UNL     1      -8.788  12.554  66.425  1.00  0.00    -0.387 OA 
HETATM   21  H   UNL     1      -8.611  13.372  66.875  1.00  0.00     0.000 HD 
BRANCH  14  22
HETATM   22  C   UNL     1      -7.316   9.334  66.313  1.00  0.00    -0.092 C  
BRANCH  22  23
HETATM   23  O   UNL     1      -7.326   8.621  65.082  1.00  0.00    -0.085 OA 
HETATM   24  P   UNL     1      -8.373   9.346  63.910  1.00  0.00    -0.192 P  
HETATM   25  O   UNL     1      -9.310   9.994  62.862  1.00  0.00    -0.284 OA 
HETATM   26  O   UNL     1      -7.082  10.265  63.522  1.00  0.00    -0.132 OA 
HETATM   27  O   UNL     1      -8.029   8.045  62.982  1.00  0.00    -0.148 OA 
ENDBRANCH  22  23
ENDBRANCH  14  22
ENDBRANCH   8  13
TORSDOF 3
ENDMDL
MODEL      239
REMARK 921   NORMALIZED FREE ENERGY PREDICTED BY IDOCK:   -2.66 KCAL/MOL
REMARK 922        TOTAL FREE ENERGY PREDICTED BY IDOCK:   -3.60 KCAL/MOL
REMARK 923 INTER-LIGAND FREE ENERGY PREDICTED BY IDOCK:   -4.28 KCAL/MOL
REMARK 924 INTRA-LIGAND FREE ENERGY PREDICTED BY IDOCK:    0.68 KCAL/MOL
REMARK 927      BINDING AFFINITY PREDICTED BY RF-SCORE:    0.00 PKD
ROOT
HETATM    1  N   UNL     1      -5.633  12.846  70.672  1.00  0.00    -0.171 NA 
HETATM    2  C   UNL     1      -6.561  13.492  69.869  1.00  0.00     0.060 A  
HETATM    3  H1  UNL     1      -4.985  13.342  71.282  1.00  0.00     0.000 HD 
HETATM    4  H2  UNL     1      -5.079  12.236  70.070  1.00  0.00     0.000 HD 
HETATM    5  C   UNL     1      -7.454  12.808  69.029  1.00  0.00     0.103 A  
HETATM    6  N   UNL     1      -7.639  11.469  68.779  1.00  0.00    -0.133 NA 
HETATM    7  C   UNL     1      -8.583  11.427  67.860  1.00  0.00    -0.140 A  
HETATM    8  N   UNL     1      -9.041  12.683  67.536  1.00  0.00    -0.183 NA 
HETATM    9  N   UNL     1      -6.586  14.844  69.873  1.00  0.00    -0.168 NA 
HETATM   10  C   UNL     1      -8.315  13.583  68.265  1.00  0.00    -0.165 A  
HETATM   11  N   UNL     1      -8.377  14.926  68.234  1.00  0.00    -0.142 NA 
HETATM   12  C   UNL     1      -7.484  15.470  69.087  1.00  0.00    -0.191 A  
ENDROOT
BRANCH   8  13
HETATM   13  C   UNL     1     -10.105  12.921  66.584  1.00  0.00    -0.245 C  
HETATM   14  C   UNL     1     -10.418  10.954  65.360  1.00  0.00    -0.223 C  
HETATM   15  C   UNL     1      -9.787  11.951  64.385  1.00  0.00    -0.178 C  
HETATM   16  O   UNL     1     -10.861  14.105  64.555  1.00  0.00    -0.525 OA 
HETATM   17  O   UNL     1     -10.887  11.715  66.495  1.00  0.00    -0.261 OA 
HETATM   18  C   UNL     1      -9.802  13.291  65.124  1.00  0.00    -0.054 C  
HETATM   19  H   UNL     1     -10.673  14.334  63.652  1.00  0.00     0.000 HD 
HETATM   20  O   UNL     1     -10.552  11.994  63.175  1.00  0.00    -0.620 OA 
HETATM   21  H   UNL     1     -10.160  12.613  62.570  1.00  0.00     0.000 HD 
BRANCH  14  22
HETATM   22  C   UNL     1      -9.391   9.893  65.781  1.00  0.00    -0.204 C  
BRANCH  22  23
HETATM   23  O   UNL     1     -10.037   8.730  66.284  1.00  0.00    -0.291 OA 
HETATM   24  P   UNL     1      -9.004   7.341  66.260  1.00  0.00    -0.101 P  
HETATM   25  O   UNL     1      -8.081   6.099  66.239  1.00  0.00    -0.107 OA 
HETATM   26  O   UNL     1      -8.500   7.858  67.723  1.00  0.00    -0.124 OA 
HETATM   27  O   UNL     1     -10.325   6.507  66.743  1.00  0.00    -0.212 OA 
ENDBRANCH  22  23
ENDBRANCH  14  22
ENDBRANCH   8  13
TORSDOF 3
ENDMDL
MODEL      240
REMARK 921   NORMALIZED FREE ENERGY PREDICTED BY IDOCK:   -2.63 KCAL/MOL
REMARK 922        TOTAL FREE ENERGY PREDICTED BY IDOCK:   -3.56 KCAL/MOL
REMARK 923 INTER-LIGAND FREE ENERGY PREDICTED BY IDOCK:   -3.72 KCAL/MOL
REMARK 924 INTRA-LIGAND FREE ENERGY PREDICTED BY IDOCK:    0.15 KCAL/MOL
REMARK 927      BINDING AFFINITY PREDICTED BY RF-SCORE:    0.00 PKD
ROOT
HETATM    1  N   UNL     1      -5.636   5.505  73.022  1.00  0.00    -0.022 NA 
HETATM    2  C   UNL     1      -6.821   6.216  73.146  1.00  0.00    -0.075 A  
HETATM    3  H1  UNL     1      -4.917   5.494  73.745  1.00  0.00     0.000 HD 
HETATM    4  H2  UNL     1      -5.191   5.802  72.154  1.00  0.00     0.000 HD 
HETATM    5  C   UNL     1      -7.811   6.232  72.150  1.00  0.00    -0.104 A  
HETATM    6  N   UNL     1      -7.883   5.634  70.915  1.00  0.00    -0.102 NA 
HETATM    7  C   UNL     1      -9.025   6.051  70.406  1.00  0.00    -0.149 A  
HETATM    8  N   UNL     1      -9.711   6.862  71.280  1.00  0.00    -0.172 NA 
HETATM    9  N   UNL     1      -7.017   6.952  74.263  1.00  0.00    -0.089 NA 
HETATM   10  C   UNL     1      -8.938   7.003  72.399  1.00  0.00    -0.128 A  
HETATM   11  N   UNL     1      -9.178   7.750  73.490  1.00  0.00    -0.273 NA 
HETATM   12  C   UNL     1      -8.166   7.647  74.378  1.00  0.00    -0.226 A  
ENDROOT
BRANCH   8  13
HETATM   13  C   UNL     1     -11.013   7.423  70.990  1.00  0.00    -0.251 C  
HETATM   14  C   UNL     1     -11.008   8.112  68.756  1.00  0.00     0.187 C  
HETATM   15  C   UNL     1     -11.018   9.399  69.585  1.00  0.00    -0.197 C  
HETATM   16  O   UNL     1     -12.629   9.248  71.374  1.00  0.00    -0.314 OA 
HETATM   17  O   UNL     1     -11.366   7.034  69.649  1.00  0.00    -0.220 OA 
HETATM   18  C   UNL     1     -11.253   8.940  71.026  1.00  0.00    -0.281 C  
HETATM   19  H   UNL     1     -12.777  10.187  71.396  1.00  0.00     0.000 HD 
HETATM   20  O   UNL     1     -12.057  10.267  69.118  1.00  0.00    -0.556 OA 
HETATM   21  H   UNL     1     -12.062  11.066  69.632  1.00  0.00     0.000 HD 
BRANCH  14  22
HETATM   22  C   UNL     1      -9.625   7.888  68.129  1.00  0.00    -0.152 C  
BRANCH  22  23
HETATM   23  O   UNL     1      -9.565   8.435  66.817  1.00  0.00    -0.182 OA 
HETATM   24  P   UNL     1      -8.078   9.268  66.519  1.00  0.00    -0.104 P  
HETATM   25  O   UNL     1      -6.748  10.013  66.252  1.00  0.00    -0.085 OA 
HETATM   26  O   UNL     1      -7.502   7.805  66.082  1.00  0.00    -0.076 OA 
HETATM   27  O   UNL     1      -8.750   9.697  65.092  1.00  0.00    -0.145 OA 
ENDBRANCH  22  23
ENDBRANCH  14  22
ENDBRANCH   8  13
TORSDOF 3
ENDMDL
MODEL      241
REMARK 921   NORMALIZED FREE ENERGY PREDICTED BY IDOCK:   -2.62 KCAL/MOL
REMARK 922        TOTAL FREE ENERGY PREDICTED BY IDOCK:   -3.55 KCAL/MOL
REMARK 923 INTER-LIGAND FREE ENERGY PREDICTED BY IDOCK:   -3.19 KCAL/MOL
REMARK 924 INTRA-LIGAND FREE ENERGY PREDICTED BY IDOCK:   -0.35 KCAL/MOL
REMARK 927      BINDING AFFINITY PREDICTED BY RF-SCORE:    0.00 PKD
ROOT
HETATM    1  N   UNL     1      -9.902   6.639  71.253  1.00  0.00    -0.177 NA 
HETATM    2  C   UNL     1      -9.515   6.061  70.054  1.00  0.00    -0.156 A  
HETATM    3  H1  UNL     1     -10.602   6.226  71.869  1.00  0.00     0.000 HD 
HETATM    4  H2  UNL     1     -10.199   7.593  71.051  1.00  0.00     0.000 HD 
HETATM    5  C   UNL     1      -8.551   6.629  69.206  1.00  0.00    -0.131 A  
HETATM    6  N   UNL     1      -7.812   7.784  69.298  1.00  0.00    -0.114 NA 
HETATM    7  C   UNL     1      -7.112   7.824  68.182  1.00  0.00    -0.085 A  
HETATM    8  N   UNL     1      -7.342   6.722  67.392  1.00  0.00    -0.092 NA 
HETATM    9  N   UNL     1     -10.116   4.913  69.668  1.00  0.00    -0.236 NA 
HETATM   10  C   UNL     1      -8.276   5.952  68.025  1.00  0.00    -0.105 A  
HETATM   11  N   UNL     1      -8.846   4.812  67.600  1.00  0.00    -0.104 NA 
HETATM   12  C   UNL     1      -9.744   4.355  68.499  1.00  0.00    -0.113 A  
ENDROOT
BRANCH   8  13
HETATM   13  C   UNL     1      -6.670   6.494  66.129  1.00  0.00    -0.049 C  
HETATM   14  C   UNL     1      -7.593   7.960  64.559  1.00  0.00    -0.111 C  
HETATM   15  C   UNL     1      -8.082   6.566  64.160  1.00  0.00    -0.042 C  
HETATM   16  O   UNL     1      -6.270   4.975  64.227  1.00  0.00    -0.022 OA 
HETATM   17  O   UNL     1      -6.503   7.773  65.488  1.00  0.00    -0.041 OA 
HETATM   18  C   UNL     1      -7.293   5.600  65.046  1.00  0.00    -0.071 C  
HETATM   19  H   UNL     1      -6.655   4.422  63.557  1.00  0.00     0.000 HD 
HETATM   20  O   UNL     1      -7.833   6.346  62.766  1.00  0.00    -0.090 OA 
HETATM   21  H   UNL     1      -8.137   5.481  62.519  1.00  0.00     0.000 HD 
BRANCH  14  22
HETATM   22  C   UNL     1      -8.736   8.769  65.188  1.00  0.00    -0.167 C  
BRANCH  22  23
HETATM   23  O   UNL     1      -9.143   9.828  64.330  1.00  0.00    -0.229 OA 
HETATM   24  P   UNL     1     -10.326  10.854  65.067  1.00  0.00    -0.223 P  
HETATM   25  O   UNL     1     -11.384  11.771  65.726  1.00  0.00    -0.318 OA 
HETATM   26  O   UNL     1      -9.048  11.661  65.681  1.00  0.00    -0.182 OA 
HETATM   27  O   UNL     1     -10.404  11.598  63.613  1.00  0.00    -0.334 OA 
ENDBRANCH  22  23
ENDBRANCH  14  22
ENDBRANCH   8  13
TORSDOF 3
ENDMDL
MODEL      242
REMARK 921   NORMALIZED FREE ENERGY PREDICTED BY IDOCK:   -2.40 KCAL/MOL
REMARK 922        TOTAL FREE ENERGY PREDICTED BY IDOCK:   -3.30 KCAL/MOL
REMARK 923 INTER-LIGAND FREE ENERGY PREDICTED BY IDOCK:   -3.59 KCAL/MOL
REMARK 924 INTRA-LIGAND FREE ENERGY PREDICTED BY IDOCK:    0.29 KCAL/MOL
REMARK 927      BINDING AFFINITY PREDICTED BY RF-SCORE:    0.00 PKD
ROOT
HETATM    1  N   UNL     1     -13.269  10.229  70.822  1.00  0.00    -0.494 NA 
HETATM    2  C   UNL     1     -12.334  10.928  70.074  1.00  0.00    -0.313 A  
HETATM    3  H1  UNL     1     -13.915  10.682  71.469  1.00  0.00     0.000 HD 
HETATM    4  H2  UNL     1     -12.767   9.512  71.346  1.00  0.00     0.000 HD 
HETATM    5  C   UNL     1     -11.446  10.304  69.184  1.00  0.00    -0.147 A  
HETATM    6  N   UNL     1     -11.257   8.986  68.845  1.00  0.00     0.179 NA 
HETATM    7  C   UNL     1     -10.246   8.998  68.000  1.00  0.00    -0.212 A  
HETATM    8  N   UNL     1      -9.801  10.275  67.749  1.00  0.00    -0.166 NA 
HETATM    9  N   UNL     1     -12.255  12.269  70.231  1.00  0.00    -0.301 NA 
HETATM   10  C   UNL     1     -10.549  11.126  68.514  1.00  0.00    -0.191 A  
HETATM   11  N   UNL     1     -10.432  12.459  68.637  1.00  0.00    -0.225 NA 
HETATM   12  C   UNL     1     -11.342  12.946  69.507  1.00  0.00    -0.153 A  
ENDROOT
BRANCH   8  13
HETATM   13  C   UNL     1      -8.729  10.577  66.825  1.00  0.00    -0.132 C  
HETATM   14  C   UNL     1      -7.265   8.754  66.814  1.00  0.00    -0.082 C  
HETATM   15  C   UNL     1      -6.513   9.883  67.522  1.00  0.00    -0.068 C  
HETATM   16  O   UNL     1      -6.748  11.955  66.310  1.00  0.00    -0.337 OA 
HETATM   17  O   UNL     1      -8.390   9.358  66.137  1.00  0.00    -0.113 OA 
HETATM   18  C   UNL     1      -7.382  11.126  67.319  1.00  0.00    -0.118 C  
HETATM   19  H   UNL     1      -5.915  12.295  66.616  1.00  0.00     0.000 HD 
HETATM   20  O   UNL     1      -5.211  10.034  66.944  1.00  0.00    -0.040 OA 
HETATM   21  H   UNL     1      -4.744  10.734  67.384  1.00  0.00     0.000 HD 
BRANCH  14  22
HETATM   22  C   UNL     1      -7.721   7.695  67.828  1.00  0.00    -0.122 C  
BRANCH  22  23
HETATM   23  O   UNL     1      -7.435   6.383  67.358  1.00  0.00    -0.085 OA 
HETATM   24  P   UNL     1      -8.761   5.296  67.594  1.00  0.00    -0.105 P  
HETATM   25  O   UNL     1      -9.946   4.324  67.805  1.00  0.00    -0.116 OA 
HETATM   26  O   UNL     1      -9.291   5.843  66.151  1.00  0.00    -0.160 OA 
HETATM   27  O   UNL     1      -7.744   4.137  67.052  1.00  0.00    -0.090 OA 
ENDBRANCH  22  23
ENDBRANCH  14  22
ENDBRANCH   8  13
TORSDOF 3
ENDMDL
MODEL      243
REMARK 921   NORMALIZED FREE ENERGY PREDICTED BY IDOCK:   -1.96 KCAL/MOL
REMARK 922        TOTAL FREE ENERGY PREDICTED BY IDOCK:   -2.77 KCAL/MOL
REMARK 923 INTER-LIGAND FREE ENERGY PREDICTED BY IDOCK:   -2.58 KCAL/MOL
REMARK 924 INTRA-LIGAND FREE ENERGY PREDICTED BY IDOCK:   -0.19 KCAL/MOL
REMARK 927      BINDING AFFINITY PREDICTED BY RF-SCORE:    0.00 PKD
ROOT
HETATM    1  N   UNL     1      -9.777   3.301  69.149  1.00  0.00    -0.021 NA 
HETATM    2  C   UNL     1      -8.796   4.225  68.821  1.00  0.00    -0.101 A  
HETATM    3  H1  UNL     1      -9.586   2.455  69.685  1.00  0.00     0.000 HD 
HETATM    4  H2  UNL     1     -10.231   3.017  68.281  1.00  0.00     0.000 HD 
HETATM    5  C   UNL     1      -9.058   5.391  68.084  1.00  0.00    -0.109 A  
HETATM    6  N   UNL     1     -10.213   5.889  67.530  1.00  0.00    -0.168 NA 
HETATM    7  C   UNL     1      -9.840   6.990  66.909  1.00  0.00    -0.199 A  
HETATM    8  N   UNL     1      -8.498   7.242  67.073  1.00  0.00    -0.117 NA 
HETATM    9  N   UNL     1      -7.523   3.976  69.204  1.00  0.00    -0.054 NA 
HETATM   10  C   UNL     1      -7.976   6.217  67.810  1.00  0.00    -0.106 A  
HETATM   11  N   UNL     1      -6.697   6.012  68.168  1.00  0.00    -0.062 NA 
HETATM   12  C   UNL     1      -6.570   4.872  68.879  1.00  0.00    -0.045 A  
ENDROOT
BRANCH   8  13
HETATM   13  C   UNL     1      -7.836   8.410  66.531  1.00  0.00    -0.092 C  
HETATM   14  C   UNL     1      -8.827  10.298  67.489  1.00  0.00    -0.128 C  
HETATM   15  C   UNL     1      -9.274  10.295  66.026  1.00  0.00    -0.164 C  
HETATM   16  O   UNL     1      -7.410   9.839  64.565  1.00  0.00    -0.123 OA 
HETATM   17  O   UNL     1      -7.719   9.376  67.592  1.00  0.00    -0.088 OA 
HETATM   18  C   UNL     1      -8.442   9.197  65.359  1.00  0.00    -0.149 C  
HETATM   19  H   UNL     1      -7.785  10.325  63.840  1.00  0.00     0.000 HD 
HETATM   20  O   UNL     1      -9.036  11.582  65.444  1.00  0.00    -0.376 OA 
HETATM   21  H   UNL     1      -9.314  11.580  64.535  1.00  0.00     0.000 HD 
BRANCH  14  22
HETATM   22  C   UNL     1      -9.987   9.887  68.406  1.00  0.00    -0.158 C  
BRANCH  22  23
HETATM   23  O   UNL     1     -11.158  10.641  68.114  1.00  0.00    -0.244 OA 
HETATM   24  P   UNL     1     -11.492  11.832  69.323  1.00  0.00    -0.328 P  
HETATM   25  O   UNL     1     -11.792  12.898  70.405  1.00  0.00    -0.284 OA 
HETATM   26  O   UNL     1     -10.496  12.793  68.460  1.00  0.00    -0.240 OA 
HETATM   27  O   UNL     1     -12.872  12.109  68.491  1.00  0.00     0.770 OA 
ENDBRANCH  22  23
ENDBRANCH  14  22
ENDBRANCH   8  13
TORSDOF 3
ENDMDL
MODEL      244
REMARK 921   NORMALIZED FREE ENERGY PREDICTED BY IDOCK:   -1.72 KCAL/MOL
REMARK 922        TOTAL FREE ENERGY PREDICTED BY IDOCK:   -2.49 KCAL/MOL
REMARK 923 INTER-LIGAND FREE ENERGY PREDICTED BY IDOCK:   -2.09 KCAL/MOL
REMARK 924 INTRA-LIGAND FREE ENERGY PREDICTED BY IDOCK:   -0.40 KCAL/MOL
REMARK 927      BINDING AFFINITY PREDICTED BY RF-SCORE:    0.00 PKD
ROOT
HETATM    1  N   UNL     1      -5.447   8.053  71.568  1.00  0.00    -0.034 NA 
HETATM    2  C   UNL     1      -5.916   8.674  70.420  1.00  0.00    -0.027 A  
HETATM    3  H1  UNL     1      -4.636   8.387  72.088  1.00  0.00     0.000 HD 
HETATM    4  H2  UNL     1      -5.279   7.073  71.338  1.00  0.00     0.000 HD 
HETATM    5  C   UNL     1      -7.032   8.214  69.703  1.00  0.00    -0.049 A  
HETATM    6  N   UNL     1      -7.872   7.143  69.896  1.00  0.00    -0.111 NA 
HETATM    7  C   UNL     1      -8.705   7.182  68.876  1.00  0.00    -0.128 A  
HETATM    8  N   UNL     1      -8.461   8.257  68.054  1.00  0.00    -0.131 NA 
HETATM    9  N   UNL     1      -5.250   9.754  69.954  1.00  0.00    -0.033 NA 
HETATM   10  C   UNL     1      -7.379   8.922  68.560  1.00  0.00    -0.081 A  
HETATM   11  N   UNL     1      -6.750   9.998  68.058  1.00  0.00    -0.063 NA 
HETATM   12  C   UNL     1      -5.705  10.353  68.835  1.00  0.00    -0.041 A  
ENDROOT
BRANCH   8  13
HETATM   13  C   UNL     1      -9.256   8.561  66.882  1.00  0.00    -0.158 C  
HETATM   14  C   UNL     1      -8.356   7.368  65.084  1.00  0.00    -0.079 C  
HETATM   15  C   UNL     1      -8.020   8.836  64.815  1.00  0.00    -0.132 C  
HETATM   16  O   UNL     1      -9.944  10.237  65.208  1.00  0.00    -0.290 OA 
HETATM   17  O   UNL     1      -9.373   7.351  66.111  1.00  0.00    -0.146 OA 
HETATM   18  C   UNL     1      -8.806   9.622  65.867  1.00  0.00    -0.153 C  
HETATM   19  H   UNL     1      -9.665  10.894  64.580  1.00  0.00     0.000 HD 
HETATM   20  O   UNL     1      -8.407   9.184  63.481  1.00  0.00    -0.170 OA 
HETATM   21  H   UNL     1      -8.198  10.096  63.313  1.00  0.00     0.000 HD 
BRANCH  14  22
HETATM   22  C   UNL     1      -7.101   6.602  65.524  1.00  0.00    -0.064 C  
BRANCH  22  23
HETATM   23  O   UNL     1      -7.264   5.202  65.333  1.00  0.00    -0.065 OA 
HETATM   24  P   UNL     1      -6.768   4.691  63.756  1.00  0.00    -0.044 P  
HETATM   25  O   UNL     1      -6.325   4.233  62.345  1.00  0.00    -0.020 OA 
HETATM   26  O   UNL     1      -5.280   4.564  64.412  1.00  0.00    -0.011 OA 
HETATM   27  O   UNL     1      -7.345   3.223  64.187  1.00  0.00    -0.060 OA 
ENDBRANCH  22  23
ENDBRANCH  14  22
ENDBRANCH   8  13
TORSDOF 3
ENDMDL
MODEL      245
REMARK 921   NORMALIZED FREE ENERGY PREDICTED BY IDOCK:   -1.72 KCAL/MOL
REMARK 922        TOTAL FREE ENERGY PREDICTED BY IDOCK:   -2.49 KCAL/MOL
REMARK 923 INTER-LIGAND FREE ENERGY PREDICTED BY IDOCK:   -1.97 KCAL/MOL
REMARK 924 INTRA-LIGAND FREE ENERGY PREDICTED BY IDOCK:   -0.52 KCAL/MOL
REMARK 927      BINDING AFFINITY PREDICTED BY RF-SCORE:    0.00 PKD
ROOT
HETATM    1  N   UNL     1      -9.141   6.461  71.295  1.00  0.00    -0.148 NA 
HETATM    2  C   UNL     1      -8.882   5.415  70.422  1.00  0.00    -0.129 A  
HETATM    3  H1  UNL     1      -9.886   6.433  71.991  1.00  0.00     0.000 HD 
HETATM    4  H2  UNL     1      -9.280   7.301  70.733  1.00  0.00     0.000 HD 
HETATM    5  C   UNL     1      -7.857   5.454  69.464  1.00  0.00    -0.085 A  
HETATM    6  N   UNL     1      -6.934   6.420  69.142  1.00  0.00    -0.065 NA 
HETATM    7  C   UNL     1      -6.263   5.918  68.126  1.00  0.00    -0.032 A  
HETATM    8  N   UNL     1      -6.689   4.651  67.804  1.00  0.00    -0.050 NA 
HETATM    9  N   UNL     1      -9.674   4.320  70.476  1.00  0.00    -0.201 NA 
HETATM   10  C   UNL     1      -7.724   4.343  68.642  1.00  0.00    -0.071 A  
HETATM   11  N   UNL     1      -8.484   3.235  68.658  1.00  0.00    -0.076 NA 
HETATM   12  C   UNL     1      -9.425   3.307  69.623  1.00  0.00    -0.139 A  
ENDROOT
BRANCH   8  13
HETATM   13  C   UNL     1      -6.094   3.853  66.753  1.00  0.00    -0.028 C  
HETATM   14  C   UNL     1      -7.140   4.430  64.743  1.00  0.00    -0.062 C  
HETATM   15  C   UNL     1      -7.626   3.016  65.071  1.00  0.00    -0.076 C  
HETATM   16  O   UNL     1      -5.783   1.619  65.754  1.00  0.00    -0.012 OA 
HETATM   17  O   UNL     1      -5.991   4.685  65.581  1.00  0.00    -0.022 OA 
HETATM   18  C   UNL     1      -6.764   2.565  66.252  1.00  0.00    -0.043 C  
HETATM   19  H   UNL     1      -6.198   0.822  65.445  1.00  0.00     0.000 HD 
HETATM   20  O   UNL     1      -7.460   2.171  63.927  1.00  0.00    -0.056 OA 
HETATM   21  H   UNL     1      -7.762   1.293  64.130  1.00  0.00     0.000 HD 
BRANCH  14  22
HETATM   22  C   UNL     1      -8.257   5.452  64.995  1.00  0.00    -0.137 C  
BRANCH  22  23
HETATM   23  O   UNL     1      -8.127   6.574  64.129  1.00  0.00    -0.113 OA 
HETATM   24  P   UNL     1      -8.160   8.076  64.988  1.00  0.00    -0.116 P  
HETATM   25  O   UNL     1      -8.190   9.419  65.756  1.00  0.00    -0.112 OA 
HETATM   26  O   UNL     1      -6.553   7.856  65.165  1.00  0.00    -0.047 OA 
HETATM   27  O   UNL     1      -8.145   8.777  63.511  1.00  0.00    -0.155 OA 
ENDBRANCH  22  23
ENDBRANCH  14  22
ENDBRANCH   8  13
TORSDOF 3
ENDMDL
MODEL      246
REMARK 921   NORMALIZED FREE ENERGY PREDICTED BY IDOCK:   -1.43 KCAL/MOL
REMARK 922        TOTAL FREE ENERGY PREDICTED BY IDOCK:   -2.15 KCAL/MOL
REMARK 923 INTER-LIGAND FREE ENERGY PREDICTED BY IDOCK:   -1.44 KCAL/MOL
REMARK 924 INTRA-LIGAND FREE ENERGY PREDICTED BY IDOCK:   -0.71 KCAL/MOL
REMARK 927      BINDING AFFINITY PREDICTED BY RF-SCORE:    0.00 PKD
ROOT
HETATM    1  N   UNL     1      -5.683   8.760  70.948  1.00  0.00    -0.033 NA 
HETATM    2  C   UNL     1      -5.984   9.742  70.015  1.00  0.00    -0.046 A  
HETATM    3  H1  UNL     1      -4.908   8.839  71.606  1.00  0.00     0.000 HD 
HETATM    4  H2  UNL     1      -5.565   7.883  70.441  1.00  0.00     0.000 HD 
HETATM    5  C   UNL     1      -7.051   9.634  69.109  1.00  0.00    -0.062 A  
HETATM    6  N   UNL     1      -7.983   8.646  68.898  1.00  0.00    -0.111 NA 
HETATM    7  C   UNL     1      -8.700   9.074  67.879  1.00  0.00    -0.129 A  
HETATM    8  N   UNL     1      -8.294  10.316  67.449  1.00  0.00    -0.118 NA 
HETATM    9  N   UNL     1      -5.196  10.839  69.957  1.00  0.00    -0.043 NA 
HETATM   10  C   UNL     1      -7.224  10.684  68.217  1.00  0.00    -0.083 A  
HETATM   11  N   UNL     1      -6.469  11.791  68.120  1.00  0.00    -0.050 NA 
HETATM   12  C   UNL     1      -5.486  11.789  69.046  1.00  0.00    -0.050 A  
ENDROOT
BRANCH   8  13
HETATM   13  C   UNL     1      -8.938  11.036  66.372  1.00  0.00    -0.181 C  
HETATM   14  C   UNL     1     -10.564  12.425  67.318  1.00  0.00    -0.223 C  
HETATM   15  C   UNL     1     -11.336  11.325  66.587  1.00  0.00    -0.079 C  
HETATM   16  O   UNL     1     -10.409  10.946  64.392  1.00  0.00    -0.337 OA 
HETATM   17  O   UNL     1      -9.202  12.373  66.838  1.00  0.00    -0.197 OA 
HETATM   18  C   UNL     1     -10.278  10.562  65.786  1.00  0.00    -0.243 C  
HETATM   19  H   UNL     1     -11.237  10.653  64.030  1.00  0.00     0.000 HD 
HETATM   20  O   UNL     1     -12.332  11.912  65.742  1.00  0.00    -0.343 OA 
HETATM   21  H   UNL     1     -12.812  11.229  65.288  1.00  0.00     0.000 HD 
BRANCH  14  22
HETATM   22  C   UNL     1     -10.634  12.210  68.836  1.00  0.00    -0.146 C  
BRANCH  22  23
HETATM   23  O   UNL     1      -9.681  13.023  69.510  1.00  0.00     0.803 OA 
HETATM   24  P   UNL     1     -10.017  14.712  69.339  1.00  0.00     0.153 P  
HETATM   25  O   UNL     1     -10.318  16.223  69.185  1.00  0.00    -0.237 OA 
HETATM   26  O   UNL     1     -10.975  14.517  70.645  1.00  0.00    -0.003 OA 
HETATM   27  O   UNL     1      -8.598  14.946  70.115  1.00  0.00     0.315 OA 
ENDBRANCH  22  23
ENDBRANCH  14  22
ENDBRANCH   8  13
TORSDOF 3
ENDMDL
MODEL      247
REMARK 921   NORMALIZED FREE ENERGY PREDICTED BY IDOCK:    2.74 KCAL/MOL
REMARK 922        TOTAL FREE ENERGY PREDICTED BY IDOCK:    2.75 KCAL/MOL
REMARK 923 INTER-LIGAND FREE ENERGY PREDICTED BY IDOCK:    2.73 KCAL/MOL
REMARK 924 INTRA-LIGAND FREE ENERGY PREDICTED BY IDOCK:    0.02 KCAL/MOL
REMARK 927      BINDING AFFINITY PREDICTED BY RF-SCORE:    0.00 PKD
ROOT
HETATM    1  N   UNL     1     -12.963   7.152  70.035  1.00  0.00     0.520 NA 
HETATM    2  C   UNL     1     -11.888   8.007  69.841  1.00  0.00     0.544 A  
HETATM    3  H1  UNL     1     -12.873   6.136  70.025  1.00  0.00     0.000 HD 
HETATM    4  H2  UNL     1     -13.678   7.401  69.352  1.00  0.00     0.000 HD 
HETATM    5  C   UNL     1     -12.011   9.405  69.854  1.00  0.00     0.351 A  
HETATM    6  N   UNL     1     -13.095  10.232  70.028  1.00  0.00     0.087 NA 
HETATM    7  C   UNL     1     -12.614  11.451  69.886  1.00  0.00    -0.027 A  
HETATM    8  N   UNL     1     -11.256  11.445  69.667  1.00  0.00    -0.252 NA 
HETATM    9  N   UNL     1     -10.672   7.468  69.598  1.00  0.00    -0.240 NA 
HETATM   10  C   UNL     1     -10.854  10.139  69.626  1.00  0.00    -0.263 A  
HETATM   11  N   UNL     1      -9.627   9.651  69.381  1.00  0.00    -0.179 NA 
HETATM   12  C   UNL     1      -9.630   8.301  69.405  1.00  0.00    -0.171 A  
ENDROOT
BRANCH   8  13
HETATM   13  C   UNL     1     -10.469  12.650  69.518  1.00  0.00     0.559 C  
HETATM   14  C   UNL     1      -9.641  12.694  67.332  1.00  0.00    -0.194 C  
HETATM   15  C   UNL     1      -8.430  12.422  68.227  1.00  0.00    -0.170 C  
HETATM   16  O   UNL     1      -8.431  13.898  70.135  1.00  0.00     1.052 OA 
HETATM   17  O   UNL     1     -10.703  13.163  68.193  1.00  0.00    -0.229 OA 
HETATM   18  C   UNL     1      -8.939  12.625  69.656  1.00  0.00     2.073 C  
HETATM   19  H   UNL     1      -7.485  13.882  70.221  1.00  0.00     0.000 HD 
HETATM   20  O   UNL     1      -7.371  13.329  67.897  1.00  0.00    -0.103 OA 
HETATM   21  H   UNL     1      -6.619  13.160  68.452  1.00  0.00     0.000 HD 
BRANCH  14  22
HETATM   22  C   UNL     1     -10.048  11.420  66.580  1.00  0.00    -0.215 C  
BRANCH  22  23
HETATM   23  O   UNL     1      -9.818  11.556  65.183  1.00  0.00    -0.244 OA 
HETATM   24  P   UNL     1      -8.555  10.515  64.619  1.00  0.00    -0.080 P  
HETATM   25  O   UNL     1      -7.427   9.584  64.115  1.00  0.00    -0.112 OA 
HETATM   26  O   UNL     1      -9.734   9.399  64.452  1.00  0.00     0.121 OA 
HETATM   27  O   UNL     1      -8.740  11.275  63.184  1.00  0.00    -0.095 OA 
ENDBRANCH  22  23
ENDBRANCH  14  22
ENDBRANCH   8  13
TORSDOF 3
ENDMDL
MODEL      248
REMARK 921   NORMALIZED FREE ENERGY PREDICTED BY IDOCK:    4.32 KCAL/MOL
REMARK 922        TOTAL FREE ENERGY PREDICTED BY IDOCK:    4.60 KCAL/MOL
REMARK 923 INTER-LIGAND FREE ENERGY PREDICTED BY IDOCK:    3.15 KCAL/MOL
REMARK 924 INTRA-LIGAND FREE ENERGY PREDICTED BY IDOCK:    1.46 KCAL/MOL
REMARK 927      BINDING AFFINITY PREDICTED BY RF-SCORE:    0.00 PKD
ROOT
HETATM    1  N   UNL     1     -13.187  13.023  66.265  1.00  0.00     0.737 NA 
HETATM    2  C   UNL     1     -12.283  13.619  67.131  1.00  0.00    -0.297 A  
HETATM    3  H1  UNL     1     -14.171  13.288  66.219  1.00  0.00     0.000 HD 
HETATM    4  H2  UNL     1     -13.150  12.017  66.430  1.00  0.00     0.000 HD 
HETATM    5  C   UNL     1     -10.929  13.254  67.195  1.00  0.00    -0.272 A  
HETATM    6  N   UNL     1     -10.198  12.311  66.513  1.00  0.00    -0.212 NA 
HETATM    7  C   UNL     1      -8.989  12.384  67.032  1.00  0.00    -0.209 A  
HETATM    8  N   UNL     1      -8.901  13.363  67.994  1.00  0.00    -0.175 NA 
HETATM    9  N   UNL     1     -12.734  14.575  67.975  1.00  0.00     0.600 NA 
HETATM   10  C   UNL     1     -10.142  13.921  68.124  1.00  0.00    -0.250 A  
HETATM   11  N   UNL     1     -10.543  14.875  68.981  1.00  0.00    -0.239 NA 
HETATM   12  C   UNL     1     -11.855  15.149  68.820  1.00  0.00    -0.303 A  
ENDROOT
BRANCH   8  13
HETATM   13  C   UNL     1      -7.675  13.683  68.694  1.00  0.00    -0.107 C  
HETATM   14  C   UNL     1      -7.509  16.013  68.806  1.00  0.00    -0.176 C  
HETATM   15  C   UNL     1      -6.426  15.568  67.819  1.00  0.00    -0.164 C  
HETATM   16  O   UNL     1      -5.208  13.676  68.686  1.00  0.00    -0.075 OA 
HETATM   17  O   UNL     1      -7.935  14.832  69.522  1.00  0.00    -0.124 OA 
HETATM   18  C   UNL     1      -6.391  14.042  67.930  1.00  0.00    -0.161 C  
HETATM   19  H   UNL     1      -4.414  13.897  68.213  1.00  0.00     0.000 HD 
HETATM   20  O   UNL     1      -5.173  16.164  68.175  1.00  0.00    -0.096 OA 
HETATM   21  H   UNL     1      -4.502  15.889  67.562  1.00  0.00     0.000 HD 
BRANCH  14  22
HETATM   22  C   UNL     1      -8.678  16.670  68.059  1.00  0.00    -0.194 C  
BRANCH  22  23
HETATM   23  O   UNL     1      -8.346  16.899  66.694  1.00  0.00    -0.206 OA 
HETATM   24  P   UNL     1      -9.389  16.042  65.611  1.00  0.00     0.288 P  
HETATM   25  O   UNL     1     -10.321  15.275  64.642  1.00  0.00    -0.226 OA 
HETATM   26  O   UNL     1     -10.364  17.344  65.733  1.00  0.00    -0.543 OA 
HETATM   27  O   UNL     1      -8.403  16.591  64.428  1.00  0.00     5.553 OA 
ENDBRANCH  22  23
ENDBRANCH  14  22
ENDBRANCH   8  13
TORSDOF 3
ENDMDL
MODEL      249
REMARK 921   NORMALIZED FREE ENERGY PREDICTED BY IDOCK:    5.46 KCAL/MOL
REMARK 922        TOTAL FREE ENERGY PREDICTED BY IDOCK:    5.94 KCAL/MOL
REMARK 923 INTER-LIGAND FREE ENERGY PREDICTED BY IDOCK:    4.71 KCAL/MOL
REMARK 924 INTRA-LIGAND FREE ENERGY PREDICTED BY IDOCK:    1.23 KCAL/MOL
REMARK 927      BINDING AFFINITY PREDICTED BY RF-SCORE:    0.00 PKD
ROOT
HETATM    1  N   UNL     1     -11.353   3.440  68.490  1.00  0.00     6.937 NA 
HETATM    2  C   UNL     1     -10.065   3.907  68.273  1.00  0.00     0.366 A  
HETATM    3  H1  UNL     1     -11.553   2.499  68.828  1.00  0.00     0.000 HD 
HETATM    4  H2  UNL     1     -11.876   3.570  67.624  1.00  0.00     0.000 HD 
HETATM    5  C   UNL     1      -9.790   5.203  67.807  1.00  0.00    -0.156 A  
HETATM    6  N   UNL     1     -10.610   6.250  67.462  1.00  0.00    -0.240 NA 
HETATM    7  C   UNL     1      -9.791   7.194  67.045  1.00  0.00    -0.198 A  
HETATM    8  N   UNL     1      -8.474   6.812  67.143  1.00  0.00    -0.120 NA 
HETATM    9  N   UNL     1      -9.029   3.066  68.490  1.00  0.00    -0.122 NA 
HETATM   10  C   UNL     1      -8.454   5.529  67.615  1.00  0.00    -0.102 A  
HETATM   11  N   UNL     1      -7.393   4.730  67.816  1.00  0.00    -0.070 NA 
HETATM   12  C   UNL     1      -7.779   3.520  68.272  1.00  0.00    -0.060 A  
ENDROOT
BRANCH   8  13
HETATM   13  C   UNL     1      -7.366   7.675  66.791  1.00  0.00    -0.089 C  
HETATM   14  C   UNL     1      -7.481   9.571  68.154  1.00  0.00    -0.079 C  
HETATM   15  C   UNL     1      -7.855  10.049  66.749  1.00  0.00    -0.110 C  
HETATM   16  O   UNL     1      -6.329   9.154  65.110  1.00  0.00    -0.066 OA 
HETATM   17  O   UNL     1      -6.873   8.269  68.007  1.00  0.00    -0.063 OA 
HETATM   18  C   UNL     1      -7.553   8.862  65.833  1.00  0.00    -0.093 C  
HETATM   19  H   UNL     1      -6.445   9.887  64.517  1.00  0.00     0.000 HD 
HETATM   20  O   UNL     1      -7.079  11.204  66.409  1.00  0.00    -0.187 OA 
HETATM   21  H   UNL     1      -7.311  11.501  65.537  1.00  0.00     0.000 HD 
BRANCH  14  22
HETATM   22  C   UNL     1      -8.727   9.512  69.049  1.00  0.00    -0.142 C  
BRANCH  22  23
HETATM   23  O   UNL     1      -8.375   9.643  70.421  1.00  0.00    -0.186 OA 
HETATM   24  P   UNL     1      -6.917   8.797  70.810  1.00  0.00    -0.085 P  
HETATM   25  O   UNL     1      -5.612   8.040  71.159  1.00  0.00    -0.033 OA 
HETATM   26  O   UNL     1      -6.158  10.165  70.347  1.00  0.00    -0.077 OA 
HETATM   27  O   UNL     1      -7.236   9.213  72.359  1.00  0.00    -0.317 OA 
ENDBRANCH  22  23
ENDBRANCH  14  22
ENDBRANCH   8  13
TORSDOF 3
ENDMDL
MODEL      250
REMARK 921   NORMALIZED FREE ENERGY PREDICTED BY IDOCK:    7.04 KCAL/MOL
REMARK 922        TOTAL FREE ENERGY PREDICTED BY IDOCK:    7.81 KCAL/MOL
REMARK 923 INTER-LIGAND FREE ENERGY PREDICTED BY IDOCK:    6.30 KCAL/MOL
REMARK 924 INTRA-LIGAND FREE ENERGY PREDICTED BY IDOCK:    1.51 KCAL/MOL
REMARK 927      BINDING AFFINITY PREDICTED BY RF-SCORE:    0.00 PKD
ROOT
HETATM    1  N   UNL     1      -9.173  17.977  65.750  1.00  0.00    -0.378 NA 
HETATM    2  C   UNL     1      -8.325  17.184  66.509  1.00  0.00    -0.274 A  
HETATM    3  H1  UNL     1      -9.020  18.975  65.607  1.00  0.00     0.000 HD 
HETATM    4  H2  UNL     1     -10.115  17.863  66.124  1.00  0.00     0.000 HD 
HETATM    5  C   UNL     1      -8.536  15.810  66.706  1.00  0.00    -0.269 A  
HETATM    6  N   UNL     1      -9.523  14.959  66.270  1.00  0.00    -0.297 NA 
HETATM    7  C   UNL     1      -9.227  13.795  66.813  1.00  0.00    -0.244 A  
HETATM    8  N   UNL     1      -8.067  13.852  67.550  1.00  0.00    -0.171 NA 
HETATM    9  N   UNL     1      -7.265  17.767  67.112  1.00  0.00    -0.177 NA 
HETATM   10  C   UNL     1      -7.618  15.143  67.506  1.00  0.00    -0.192 A  
HETATM   11  N   UNL     1      -6.552  15.677  68.126  1.00  0.00    -0.118 NA 
HETATM   12  C   UNL     1      -6.447  16.996  67.855  1.00  0.00    -0.141 A  
ENDROOT
BRANCH   8  13
HETATM   13  C   UNL     1      -7.491  12.705  68.218  1.00  0.00    -0.123 C  
HETATM   14  C   UNL     1      -7.481  13.150  70.513  1.00  0.00     2.986 C  
HETATM   15  C   UNL     1      -6.015  13.202  70.077  1.00  0.00    -0.135 C  
HETATM   16  O   UNL     1      -5.486  11.332  68.647  1.00  0.00    -0.044 OA 
HETATM   17  O   UNL     1      -8.216  12.508  69.447  1.00  0.00     0.612 OA 
HETATM   18  C   UNL     1      -6.012  12.685  68.636  1.00  0.00    -0.065 C  
HETATM   19  H   UNL     1      -4.572  11.320  68.906  1.00  0.00     0.000 HD 
HETATM   20  O   UNL     1      -5.223  12.383  70.945  1.00  0.00    -0.132 OA 
HETATM   21  H   UNL     1      -4.313  12.415  70.674  1.00  0.00     0.000 HD 
BRANCH  14  22
HETATM   22  C   UNL     1      -8.009  14.566  70.786  1.00  0.00     2.253 C  
BRANCH  22  23
HETATM   23  O   UNL     1      -9.201  14.816  70.052  1.00  0.00     0.283 OA 
HETATM   24  P   UNL     1     -10.011  16.251  70.581  1.00  0.00     1.990 P  
HETATM   25  O   UNL     1     -10.735  17.535  71.053  1.00  0.00     1.093 OA 
HETATM   26  O   UNL     1      -9.038  17.027  69.525  1.00  0.00     0.110 OA 
HETATM   27  O   UNL     1     -11.195  15.816  69.540  1.00  0.00    -0.269 OA 
ENDBRANCH  22  23
ENDBRANCH  14  22
ENDBRANCH   8  13
TORSDOF 3
ENDMDL
MODEL      251
REMARK 921   NORMALIZED FREE ENERGY PREDICTED BY IDOCK:   11.02 KCAL/MOL
REMARK 922        TOTAL FREE ENERGY PREDICTED BY IDOCK:   12.49 KCAL/MOL
REMARK 923 INTER-LIGAND FREE ENERGY PREDICTED BY IDOCK:   11.01 KCAL/MOL
REMARK 924 INTRA-LIGAND FREE ENERGY PREDICTED BY IDOCK:    1.47 KCAL/MOL
REMARK 927      BINDING AFFINITY PREDICTED BY RF-SCORE:    0.00 PKD
ROOT
HETATM    1  N   UNL     1     -12.848  12.982  69.835  1.00  0.00     0.365 NA 
HETATM    2  C   UNL     1     -12.138  11.811  69.614  1.00  0.00    -0.258 A  
HETATM    3  H1  UNL     1     -13.444  13.412  69.128  1.00  0.00     0.000 HD 
HETATM    4  H2  UNL     1     -12.181  13.690  70.144  1.00  0.00     0.000 HD 
HETATM    5  C   UNL     1     -11.317  11.219  70.588  1.00  0.00     0.357 A  
HETATM    6  N   UNL     1     -11.006  11.585  71.876  1.00  0.00     5.110 NA 
HETATM    7  C   UNL     1     -10.144  10.676  72.284  1.00  0.00     8.298 A  
HETATM    8  N   UNL     1      -9.917   9.717  71.325  1.00  0.00    -0.071 NA 
HETATM    9  N   UNL     1     -12.216  11.230  68.396  1.00  0.00    -0.555 NA 
HETATM   10  C   UNL     1     -10.648  10.059  70.223  1.00  0.00    -0.295 A  
HETATM   11  N   UNL     1     -10.694   9.445  69.028  1.00  0.00    -0.214 NA 
HETATM   12  C   UNL     1     -11.520  10.096  68.182  1.00  0.00     0.041 A  
ENDROOT
BRANCH   8  13
HETATM   13  C   UNL     1      -9.045   8.579  71.529  1.00  0.00    -0.216 C  
HETATM   14  C   UNL     1      -7.652   8.407  69.660  1.00  0.00    -0.089 C  
HETATM   15  C   UNL     1      -8.613   7.220  69.568  1.00  0.00    -0.134 C  
HETATM   16  O   UNL     1      -8.825   6.128  71.709  1.00  0.00    -0.137 OA 
HETATM   17  O   UNL     1      -7.749   8.925  71.005  1.00  0.00    -0.109 OA 
HETATM   18  C   UNL     1      -9.360   7.211  70.904  1.00  0.00    -0.160 C  
HETATM   19  H   UNL     1      -9.020   5.282  71.322  1.00  0.00     0.000 HD 
HETATM   20  O   UNL     1      -7.872   6.013  69.356  1.00  0.00    -0.096 OA 
HETATM   21  H   UNL     1      -8.469   5.276  69.299  1.00  0.00     0.000 HD 
BRANCH  14  22
HETATM   22  C   UNL     1      -8.018   9.475  68.619  1.00  0.00    -0.092 C  
BRANCH  22  23
HETATM   23  O   UNL     1      -7.748   9.015  67.300  1.00  0.00    -0.094 OA 
HETATM   24  P   UNL     1      -8.715   9.819  66.112  1.00  0.00    -0.144 P  
HETATM   25  O   UNL     1      -9.580  10.538  65.049  1.00  0.00    -0.228 OA 
HETATM   26  O   UNL     1      -7.533  10.945  66.107  1.00  0.00    -0.140 OA 
HETATM   27  O   UNL     1      -8.052   8.772  65.046  1.00  0.00    -0.126 OA 
ENDBRANCH  22  23
ENDBRANCH  14  22
ENDBRANCH   8  13
TORSDOF 3
ENDMDL
MODEL      252
REMARK 921   NORMALIZED FREE ENERGY PREDICTED BY IDOCK:   15.66 KCAL/MOL
REMARK 922        TOTAL FREE ENERGY PREDICTED BY IDOCK:   17.94 KCAL/MOL
REMARK 923 INTER-LIGAND FREE ENERGY PREDICTED BY IDOCK:    2.72 KCAL/MOL
REMARK 924 INTRA-LIGAND FREE ENERGY PREDICTED BY IDOCK:   15.22 KCAL/MOL
REMARK 927      BINDING AFFINITY PREDICTED BY RF-SCORE:    0.00 PKD
ROOT
HETATM    1  N   UNL     1      -7.630   9.260  69.339  1.00  0.00    -0.077 NA 
HETATM    2  C   UNL     1      -7.684  10.646  69.337  1.00  0.00    -0.129 A  
HETATM    3  H1  UNL     1      -7.074   8.726  70.006  1.00  0.00     0.000 HD 
HETATM    4  H2  UNL     1      -7.351   8.964  68.403  1.00  0.00     0.000 HD 
HETATM    5  C   UNL     1      -8.450  11.380  68.418  1.00  0.00    -0.155 A  
HETATM    6  N   UNL     1      -9.258  10.993  67.376  1.00  0.00    -0.151 NA 
HETATM    7  C   UNL     1      -9.672  12.121  66.835  1.00  0.00    -0.206 A  
HETATM    8  N   UNL     1      -9.195  13.220  67.510  1.00  0.00    -0.203 NA 
HETATM    9  N   UNL     1      -6.942  11.320  70.243  1.00  0.00     0.043 NA 
HETATM   10  C   UNL     1      -8.395  12.764  68.520  1.00  0.00    -0.054 A  
HETATM   11  N   UNL     1      -7.673  13.478  69.401  1.00  0.00     0.350 NA 
HETATM   12  C   UNL     1      -6.991  12.667  70.236  1.00  0.00     1.245 A  
ENDROOT
BRANCH   8  13
HETATM   13  C   UNL     1      -9.531  14.582  67.152  1.00  0.00    -0.231 C  
HETATM   14  C   UNL     1     -11.748  14.595  66.408  1.00  0.00    -0.322 C  
HETATM   15  C   UNL     1     -10.893  14.840  65.163  1.00  0.00    -0.404 C  
HETATM   16  O   UNL     1      -9.180  16.479  65.613  1.00  0.00    -0.481 OA 
HETATM   17  O   UNL     1     -10.894  14.814  67.554  1.00  0.00    -0.274 OA 
HETATM   18  C   UNL     1      -9.474  15.059  65.693  1.00  0.00    -0.144 C  
HETATM   19  H   UNL     1      -9.145  16.774  64.711  1.00  0.00     0.000 HD 
HETATM   20  O   UNL     1     -11.386  15.983  64.455  1.00  0.00    -0.738 OA 
HETATM   21  H   UNL     1     -10.856  16.136  63.681  1.00  0.00     0.000 HD 
BRANCH  14  22
HETATM   22  C   UNL     1     -12.316  13.169  66.395  1.00  0.00    -0.231 C  
BRANCH  22  23
HETATM   23  O   UNL     1     -11.693  12.362  67.387  1.00  0.00    -0.347 OA 
HETATM   24  P   UNL     1     -11.819  10.673  67.036  1.00  0.00     2.436 P  
HETATM   25  O   UNL     1     -11.933   9.161  66.722  1.00  0.00     3.289 OA 
HETATM   26  O   UNL     1     -10.458  10.889  66.162  1.00  0.00    -0.247 OA 
HETATM   27  O   UNL     1     -11.130  10.444  68.501  1.00  0.00    -0.247 OA 
ENDBRANCH  22  23
ENDBRANCH  14  22
ENDBRANCH   8  13
TORSDOF 3
ENDMDL
MODEL      253
REMARK 921   NORMALIZED FREE ENERGY PREDICTED BY IDOCK:   16.56 KCAL/MOL
REMARK 922        TOTAL FREE ENERGY PREDICTED BY IDOCK:   18.99 KCAL/MOL
REMARK 923 INTER-LIGAND FREE ENERGY PREDICTED BY IDOCK:   12.93 KCAL/MOL
REMARK 924 INTRA-LIGAND FREE ENERGY PREDICTED BY IDOCK:    6.06 KCAL/MOL
REMARK 927      BINDING AFFINITY PREDICTED BY RF-SCORE:    0.00 PKD
ROOT
HETATM    1  N   UNL     1     -11.398   8.214  64.718  1.00  0.00     9.516 NA 
HETATM    2  C   UNL     1     -10.699   8.851  65.733  1.00  0.00     1.847 A  
HETATM    3  H1  UNL     1     -11.731   7.253  64.792  1.00  0.00     0.000 HD 
HETATM    4  H2  UNL     1     -10.834   8.278  63.871  1.00  0.00     0.000 HD 
HETATM    5  C   UNL     1     -10.241  10.174  65.632  1.00  0.00    -0.218 A  
HETATM    6  N   UNL     1     -10.329  11.104  64.623  1.00  0.00    -0.309 NA 
HETATM    7  C   UNL     1      -9.669  12.152  65.074  1.00  0.00    -0.091 A  
HETATM    8  N   UNL     1      -9.193  11.950  66.349  1.00  0.00    -0.214 NA 
HETATM    9  N   UNL     1     -10.420   8.156  66.858  1.00  0.00    -0.333 NA 
HETATM   10  C   UNL     1      -9.536  10.679  66.716  1.00  0.00    -0.169 A  
HETATM   11  N   UNL     1      -9.234  10.028  67.853  1.00  0.00    -0.137 NA 
HETATM   12  C   UNL     1      -9.734   8.775  67.840  1.00  0.00    -0.157 A  
ENDROOT
BRANCH   8  13
HETATM   13  C   UNL     1      -8.469  12.956  67.097  1.00  0.00    -0.179 C  
HETATM   14  C   UNL     1      -9.421  13.077  69.229  1.00  0.00     0.849 C  
HETATM   15  C   UNL     1      -9.818  14.377  68.525  1.00  0.00    -0.233 C  
HETATM   16  O   UNL     1      -7.923  15.344  67.389  1.00  0.00    -0.155 OA 
HETATM   17  O   UNL     1      -8.352  12.488  68.454  1.00  0.00    -0.167 OA 
HETATM   18  C   UNL     1      -9.005  14.390  67.229  1.00  0.00    -0.212 C  
HETATM   19  H   UNL     1      -8.254  16.231  67.470  1.00  0.00     0.000 HD 
HETATM   20  O   UNL     1      -9.511  15.495  69.366  1.00  0.00    -0.250 OA 
HETATM   21  H   UNL     1      -9.758  16.302  68.929  1.00  0.00     0.000 HD 
BRANCH  14  22
HETATM   22  C   UNL     1     -10.627  12.133  69.332  1.00  0.00     0.194 C  
BRANCH  22  23
HETATM   23  O   UNL     1     -10.562  11.349  70.517  1.00  0.00     1.004 OA 
HETATM   24  P   UNL     1      -9.538   9.966  70.337  1.00  0.00     0.251 P  
HETATM   25  O   UNL     1      -8.622   8.729  70.175  1.00  0.00    -0.130 OA 
HETATM   26  O   UNL     1      -8.329  10.971  70.773  1.00  0.00     2.215 OA 
HETATM   27  O   UNL     1     -10.052   9.547  71.831  1.00  0.00     0.004 OA 
ENDBRANCH  22  23
ENDBRANCH  14  22
ENDBRANCH   8  13
TORSDOF 3
ENDMDL
MODEL      254
REMARK 921   NORMALIZED FREE ENERGY PREDICTED BY IDOCK:   32.00 KCAL/MOL
REMARK 922        TOTAL FREE ENERGY PREDICTED BY IDOCK:   37.14 KCAL/MOL
REMARK 923 INTER-LIGAND FREE ENERGY PREDICTED BY IDOCK:   20.85 KCAL/MOL
REMARK 924 INTRA-LIGAND FREE ENERGY PREDICTED BY IDOCK:   16.29 KCAL/MOL
REMARK 927      BINDING AFFINITY PREDICTED BY RF-SCORE:    0.00 PKD
ROOT
HETATM    1  N   UNL     1     -12.187   3.203  68.532  1.00  0.00    17.580 NA 
HETATM    2  C   UNL     1     -10.854   3.427  68.223  1.00  0.00     4.359 A  
HETATM    3  H1  UNL     1     -12.519   2.345  68.972  1.00  0.00     0.000 HD 
HETATM    4  H2  UNL     1     -12.725   3.334  67.675  1.00  0.00     0.000 HD 
HETATM    5  C   UNL     1     -10.397   4.608  67.617  1.00  0.00     0.096 A  
HETATM    6  N   UNL     1     -11.054   5.739  67.195  1.00  0.00    -0.092 NA 
HETATM    7  C   UNL     1     -10.116   6.490  66.654  1.00  0.00    -0.137 A  
HETATM    8  N   UNL     1      -8.874   5.906  66.746  1.00  0.00    -0.117 NA 
HETATM    9  N   UNL     1      -9.957   2.451  68.490  1.00  0.00     0.405 NA 
HETATM   10  C   UNL     1      -9.038   4.690  67.346  1.00  0.00    -0.123 A  
HETATM   11  N   UNL     1      -8.110   3.749  67.592  1.00  0.00    -0.089 NA 
HETATM   12  C   UNL     1      -8.663   2.668  68.184  1.00  0.00    -0.103 A  
ENDROOT
BRANCH   8  13
HETATM   13  C   UNL     1      -7.661   6.537  66.269  1.00  0.00    -0.095 C  
HETATM   14  C   UNL     1      -6.892   7.964  67.953  1.00  0.00    -0.072 C  
HETATM   15  C   UNL     1      -7.400   8.879  66.836  1.00  0.00    -0.083 C  
HETATM   16  O   UNL     1      -6.616   8.115  64.687  1.00  0.00    -0.062 OA 
HETATM   17  O   UNL     1      -6.757   6.642  67.385  1.00  0.00    -0.061 OA 
HETATM   18  C   UNL     1      -7.683   7.946  65.657  1.00  0.00    -0.096 C  
HETATM   19  H   UNL     1      -6.630   8.987  64.308  1.00  0.00     0.000 HD 
HETATM   20  O   UNL     1      -6.403   9.858  66.523  1.00  0.00    -0.067 OA 
HETATM   21  H   UNL     1      -6.718  10.427  65.830  1.00  0.00     0.000 HD 
BRANCH  14  22
HETATM   22  C   UNL     1      -7.869   7.971  69.137  1.00  0.00    -0.108 C  
BRANCH  22  23
HETATM   23  O   UNL     1      -7.556   6.936  70.062  1.00  0.00    -0.094 OA 
HETATM   24  P   UNL     1      -7.413   5.390  69.297  1.00  0.00    -0.075 P  
HETATM   25  O   UNL     1      -7.285   4.008  68.614  1.00  0.00    -0.054 OA 
HETATM   26  O   UNL     1      -5.859   5.813  69.037  1.00  0.00    -0.014 OA 
HETATM   27  O   UNL     1      -7.249   4.796  70.812  1.00  0.00    -0.046 OA 
ENDBRANCH  22  23
ENDBRANCH  14  22
ENDBRANCH   8  13
TORSDOF 3
ENDMDL
