MODEL        1
REMARK 921   NORMALIZED FREE ENERGY PREDICTED BY IDOCK:   -8.06 KCAL/MOL
REMARK 922        TOTAL FREE ENERGY PREDICTED BY IDOCK:  -13.37 KCAL/MOL
REMARK 923 INTER-LIGAND FREE ENERGY PREDICTED BY IDOCK:  -11.83 KCAL/MOL
REMARK 924 INTRA-LIGAND FREE ENERGY PREDICTED BY IDOCK:   -1.54 KCAL/MOL
REMARK 927      BINDING AFFINITY PREDICTED BY RF-SCORE:    0.00 PKD
ROOT
HETATM    1  C   UNL     1      -8.803  11.008  62.396  1.00  0.00    -0.307 C  
HETATM    2  N   UNL     1     -10.012  10.750  63.188  1.00  0.00    -0.328 NA 
HETATM    3  C   UNL     1      -9.618  10.113  64.454  1.00  0.00    -0.302 C  
ENDROOT
BRANCH   2   4
HETATM    4  C   UNL     1     -10.727  12.004  63.481  1.00  0.00    -0.455 C  
BRANCH   4   5
HETATM    5  C   UNL     1     -10.577  12.556  64.870  1.00  0.00    -0.330 C  
HETATM    6  C   UNL     1     -10.475  13.846  65.238  1.00  0.00    -0.386 C  
BRANCH   6   7
HETATM    7  C   UNL     1     -10.317  14.175  66.681  1.00  0.00    -0.277 C  
HETATM    8  N   UNL     1     -11.419  14.816  67.225  1.00  0.00    -0.361 N  
HETATM    9  O   UNL     1      -9.321  13.817  67.301  1.00  0.00    -0.221 OA 
HETATM   10  H   UNL     1     -12.179  15.102  66.608  1.00  0.00     0.000 HD 
BRANCH   8  11
HETATM   11  C   UNL     1     -11.522  15.087  68.610  1.00  0.00    -0.311 A  
HETATM   12  C   UNL     1     -10.951  16.218  69.197  1.00  0.00    -0.324 A  
HETATM   13  N   UNL     1     -13.121  13.818  73.050  1.00  0.00    -0.448 NA 
HETATM   14  C   UNL     1     -11.154  16.448  70.567  1.00  0.00    -0.214 A  
HETATM   15  C   UNL     1     -12.176  14.164  69.447  1.00  0.00    -0.329 A  
HETATM   16  C   UNL     1     -11.862  15.576  71.389  1.00  0.00    -0.401 A  
HETATM   17  C   UNL     1     -12.336  14.381  70.842  1.00  0.00    -0.419 A  
HETATM   18  N   UNL     1     -12.031  15.900  72.675  1.00  0.00    -0.463 NA 
HETATM   19  C   UNL     1     -12.680  15.016  73.439  1.00  0.00    -0.530 A  
HETATM   20  C   UNL     1     -12.939  13.487  71.759  1.00  0.00    -0.348 A  
BRANCH  12  21
HETATM   21  O   UNL     1     -10.062  17.076  68.619  1.00  0.00    -0.267 OA 
BRANCH  21  22
HETATM   22  C   UNL     1     -10.490  18.213  67.879  1.00  0.00    -0.392 C  
HETATM   23  C   UNL     1      -9.677  20.208  66.809  1.00  0.00    -0.443 C  
HETATM   24  C   UNL     1     -10.075  17.975  66.430  1.00  0.00    -0.384 C  
HETATM   25  O   UNL     1     -10.038  19.255  65.804  1.00  0.00    -0.459 OA 
HETATM   26  C   UNL     1      -9.801  19.533  68.170  1.00  0.00    -0.506 C  
ENDBRANCH  21  22
ENDBRANCH  12  21
BRANCH  20  27
HETATM   27  N   UNL     1     -13.362  12.203  71.310  1.00  0.00     0.036 NA 
HETATM   28  H   UNL     1     -14.301  12.159  70.914  1.00  0.00     0.000 HD 
BRANCH  27  29
HETATM   29  C   UNL     1     -12.648  10.979  71.341  1.00  0.00    -0.393 A  
HETATM   30  C   UNL     1     -11.433  10.785  70.665  1.00  0.00    -0.314 A  
HETATM   31  C   UNL     1     -10.741   9.576  70.768  1.00  0.00    -0.321 A  
HETATM   32 CL   UNL     1      -9.276   9.365  69.880  1.00  0.00    -0.204 Cl 
HETATM   33  C   UNL     1     -11.236   8.555  71.569  1.00  0.00    -0.279 A  
HETATM   34  C   UNL     1     -12.407   8.739  72.289  1.00  0.00    -0.448 A  
HETATM   35  F   UNL     1     -10.583   7.391  71.679  1.00  0.00    -0.206 F  
HETATM   36  C   UNL     1     -13.104   9.947  72.183  1.00  0.00    -0.497 A  
ENDBRANCH  27  29
ENDBRANCH  20  27
ENDBRANCH   8  11
ENDBRANCH   6   7
ENDBRANCH   4   5
ENDBRANCH   2   4
TORSDOF 8
ENDMDL
MODEL        2
REMARK 921   NORMALIZED FREE ENERGY PREDICTED BY IDOCK:   -7.56 KCAL/MOL
REMARK 922        TOTAL FREE ENERGY PREDICTED BY IDOCK:  -12.63 KCAL/MOL
REMARK 923 INTER-LIGAND FREE ENERGY PREDICTED BY IDOCK:  -11.23 KCAL/MOL
REMARK 924 INTRA-LIGAND FREE ENERGY PREDICTED BY IDOCK:   -1.40 KCAL/MOL
REMARK 927      BINDING AFFINITY PREDICTED BY RF-SCORE:    0.00 PKD
ROOT
HETATM    1  C   UNL     1      -9.568   4.248  66.805  1.00  0.00    -0.202 C  
HETATM    2  N   UNL     1     -10.419   5.168  67.572  1.00  0.00    -0.130 NA 
HETATM    3  C   UNL     1      -9.871   5.294  68.931  1.00  0.00    -0.164 C  
ENDROOT
BRANCH   2   4
HETATM    4  C   UNL     1     -10.458   6.499  66.941  1.00  0.00    -0.277 C  
BRANCH   4   5
HETATM    5  C   UNL     1     -10.614   7.676  67.862  1.00  0.00    -0.233 C  
HETATM    6  C   UNL     1     -10.054   8.893  67.747  1.00  0.00    -0.263 C  
BRANCH   6   7
HETATM    7  C   UNL     1     -10.333   9.918  68.789  1.00  0.00    -0.203 C  
HETATM    8  N   UNL     1     -11.654  10.339  68.811  1.00  0.00    -0.512 N  
HETATM    9  O   UNL     1      -9.461  10.261  69.581  1.00  0.00    -0.211 OA 
HETATM   10  H   UNL     1     -12.288  10.016  68.079  1.00  0.00     0.000 HD 
BRANCH   8  11
HETATM   11  C   UNL     1     -12.151  11.202  69.816  1.00  0.00    -0.344 A  
HETATM   12  C   UNL     1     -12.766  10.726  70.974  1.00  0.00    -0.415 A  
HETATM   13  N   UNL     1     -12.915  15.728  71.492  1.00  0.00    -0.475 NA 
HETATM   14  C   UNL     1     -13.174  11.645  71.954  1.00  0.00    -0.475 A  
HETATM   15  C   UNL     1     -12.076  12.595  69.629  1.00  0.00    -0.277 A  
HETATM   16  C   UNL     1     -13.039  13.023  71.809  1.00  0.00    -0.373 A  
HETATM   17  C   UNL     1     -12.535  13.520  70.605  1.00  0.00    -0.405 A  
HETATM   18  N   UNL     1     -13.426  13.816  72.813  1.00  0.00    -0.666 NA 
HETATM   19  C   UNL     1     -13.318  15.133  72.616  1.00  0.00    -0.464 A  
HETATM   20  C   UNL     1     -12.537  14.930  70.477  1.00  0.00    -0.360 A  
BRANCH  12  21
HETATM   21  O   UNL     1     -13.175   9.447  71.215  1.00  0.00    -0.343 OA 
BRANCH  21  22
HETATM   22  C   UNL     1     -12.253   8.363  71.271  1.00  0.00    -0.277 C  
HETATM   23  C   UNL     1     -11.056   6.957  72.811  1.00  0.00    -0.269 C  
HETATM   24  C   UNL     1     -13.052   7.130  71.683  1.00  0.00    -0.361 C  
HETATM   25  O   UNL     1     -12.113   6.198  72.214  1.00  0.00    -0.311 OA 
HETATM   26  C   UNL     1     -11.195   8.405  72.356  1.00  0.00    -0.438 C  
ENDBRANCH  21  22
ENDBRANCH  12  21
BRANCH  20  27
HETATM   27  N   UNL     1     -12.135  15.523  69.246  1.00  0.00    -0.545 NA 
HETATM   28  H   UNL     1     -12.849  15.558  68.518  1.00  0.00     0.000 HD 
BRANCH  27  29
HETATM   29  C   UNL     1     -10.874  16.069  68.901  1.00  0.00    -0.286 A  
HETATM   30  C   UNL     1     -10.731  17.238  68.137  1.00  0.00    -0.363 A  
HETATM   31  C   UNL     1      -9.466  17.766  67.865  1.00  0.00    -0.270 A  
HETATM   32 CL   UNL     1      -9.335  19.178  66.880  1.00  0.00    -0.341 Cl 
HETATM   33  C   UNL     1      -8.330  17.152  68.377  1.00  0.00    -0.251 A  
HETATM   34  C   UNL     1      -8.445  16.027  69.177  1.00  0.00    -0.247 A  
HETATM   35  F   UNL     1      -7.111  17.647  68.126  1.00  0.00    -0.191 F  
HETATM   36  C   UNL     1      -9.710  15.493  69.446  1.00  0.00    -0.283 A  
ENDBRANCH  27  29
ENDBRANCH  20  27
ENDBRANCH   8  11
ENDBRANCH   6   7
ENDBRANCH   4   5
ENDBRANCH   2   4
TORSDOF 8
ENDMDL
MODEL        3
REMARK 921   NORMALIZED FREE ENERGY PREDICTED BY IDOCK:   -7.54 KCAL/MOL
REMARK 922        TOTAL FREE ENERGY PREDICTED BY IDOCK:  -12.60 KCAL/MOL
REMARK 923 INTER-LIGAND FREE ENERGY PREDICTED BY IDOCK:  -11.26 KCAL/MOL
REMARK 924 INTRA-LIGAND FREE ENERGY PREDICTED BY IDOCK:   -1.34 KCAL/MOL
REMARK 927      BINDING AFFINITY PREDICTED BY RF-SCORE:    0.00 PKD
ROOT
HETATM    1  C   UNL     1      -9.749  18.281  68.315  1.00  0.00    -0.335 C  
HETATM    2  N   UNL     1     -10.537  17.928  67.127  1.00  0.00    -0.343 NA 
HETATM    3  C   UNL     1     -10.387  18.997  66.128  1.00  0.00    -0.468 C  
ENDROOT
BRANCH   2   4
HETATM    4  C   UNL     1     -10.075  16.656  66.547  1.00  0.00    -0.305 C  
BRANCH   4   5
HETATM    5  C   UNL     1     -10.610  15.398  67.169  1.00  0.00    -0.305 C  
HETATM    6  C   UNL     1     -10.902  14.235  66.559  1.00  0.00    -0.304 C  
BRANCH   6   7
HETATM    7  C   UNL     1     -11.441  13.109  67.370  1.00  0.00    -0.332 C  
HETATM    8  N   UNL     1     -11.072  13.163  68.705  1.00  0.00    -0.257 N  
HETATM    9  O   UNL     1     -12.201  12.285  66.872  1.00  0.00    -0.530 OA 
HETATM   10  H   UNL     1     -10.403  13.872  69.004  1.00  0.00     0.000 HD 
BRANCH   8  11
HETATM   11  C   UNL     1     -11.595  12.266  69.666  1.00  0.00    -0.278 A  
HETATM   12  C   UNL     1     -12.513  12.663  70.639  1.00  0.00    -0.239 A  
HETATM   13  N   UNL     1     -11.799   7.771  71.571  1.00  0.00    -0.283 NA 
HETATM   14  C   UNL     1     -13.034  11.698  71.516  1.00  0.00    -0.463 A  
HETATM   15  C   UNL     1     -11.142  10.934  69.685  1.00  0.00    -0.328 A  
HETATM   16  C   UNL     1     -12.645  10.362  71.495  1.00  0.00    -0.439 A  
HETATM   17  C   UNL     1     -11.639   9.974  70.607  1.00  0.00    -0.422 A  
HETATM   18  N   UNL     1     -13.224   9.511  72.348  1.00  0.00    -0.415 NA 
HETATM   19  C   UNL     1     -12.792   8.246  72.325  1.00  0.00    -0.277 A  
HETATM   20  C   UNL     1     -11.207   8.630  70.722  1.00  0.00    -0.261 A  
BRANCH  12  21
HETATM   21  O   UNL     1     -12.863  13.943  70.957  1.00  0.00    -0.328 OA 
BRANCH  21  22
HETATM   22  C   UNL     1     -13.194  14.321  72.289  1.00  0.00    -0.417 C  
HETATM   23  C   UNL     1     -12.719  15.966  73.977  1.00  0.00    -0.570 C  
HETATM   24  C   UNL     1     -14.096  15.547  72.185  1.00  0.00    -0.526 C  
HETATM   25  O   UNL     1     -14.024  16.211  73.444  1.00  0.00    -0.488 OA 
HETATM   26  C   UNL     1     -12.073  14.853  73.160  1.00  0.00    -0.377 C  
ENDBRANCH  21  22
ENDBRANCH  12  21
BRANCH  20  27
HETATM   27  N   UNL     1     -10.118   8.174  69.926  1.00  0.00    -0.191 NA 
HETATM   28  H   UNL     1      -9.225   8.642  70.087  1.00  0.00     0.000 HD 
BRANCH  27  29
HETATM   29  C   UNL     1     -10.112   7.157  68.940  1.00  0.00    -0.177 A  
HETATM   30  C   UNL     1      -9.746   5.830  69.214  1.00  0.00    -0.188 A  
HETATM   31  C   UNL     1      -9.805   4.850  68.219  1.00  0.00    -0.136 A  
HETATM   32 CL   UNL     1      -9.299   3.241  68.588  1.00  0.00    -0.233 Cl 
HETATM   33  C   UNL     1     -10.257   5.176  66.946  1.00  0.00    -0.239 A  
HETATM   34  C   UNL     1     -10.674   6.467  66.663  1.00  0.00    -0.271 A  
HETATM   35  F   UNL     1     -10.320   4.247  65.982  1.00  0.00    -0.229 F  
HETATM   36  C   UNL     1     -10.610   7.450  67.656  1.00  0.00    -0.309 A  
ENDBRANCH  27  29
ENDBRANCH  20  27
ENDBRANCH   8  11
ENDBRANCH   6   7
ENDBRANCH   4   5
ENDBRANCH   2   4
TORSDOF 8
ENDMDL
MODEL        4
REMARK 921   NORMALIZED FREE ENERGY PREDICTED BY IDOCK:   -7.36 KCAL/MOL
REMARK 922        TOTAL FREE ENERGY PREDICTED BY IDOCK:  -12.34 KCAL/MOL
REMARK 923 INTER-LIGAND FREE ENERGY PREDICTED BY IDOCK:  -11.07 KCAL/MOL
REMARK 924 INTRA-LIGAND FREE ENERGY PREDICTED BY IDOCK:   -1.27 KCAL/MOL
REMARK 927      BINDING AFFINITY PREDICTED BY RF-SCORE:    0.00 PKD
ROOT
HETATM    1  C   UNL     1      -9.647  10.583  64.254  1.00  0.00    -0.307 C  
HETATM    2  N   UNL     1      -9.089   9.232  64.113  1.00  0.00    -0.097 NA 
HETATM    3  C   UNL     1      -7.732   9.340  63.556  1.00  0.00    -0.119 C  
ENDROOT
BRANCH   2   4
HETATM    4  C   UNL     1      -9.023   8.550  65.417  1.00  0.00    -0.099 C  
BRANCH   4   5
HETATM    5  C   UNL     1      -9.397   9.365  66.623  1.00  0.00    -0.211 C  
HETATM    6  C   UNL     1      -9.928   8.931  67.780  1.00  0.00    -0.241 C  
BRANCH   6   7
HETATM    7  C   UNL     1     -10.238   9.918  68.848  1.00  0.00    -0.196 C  
HETATM    8  N   UNL     1     -11.528  10.421  68.778  1.00  0.00    -0.458 N  
HETATM    9  O   UNL     1      -9.422  10.166  69.731  1.00  0.00    -0.220 OA 
HETATM   10  H   UNL     1     -12.111  10.176  67.978  1.00  0.00     0.000 HD 
BRANCH   8  11
HETATM   11  C   UNL     1     -12.062  11.264  69.782  1.00  0.00    -0.325 A  
HETATM   12  C   UNL     1     -12.697  10.763  70.919  1.00  0.00    -0.384 A  
HETATM   13  N   UNL     1     -12.932  15.755  71.498  1.00  0.00    -0.475 NA 
HETATM   14  C   UNL     1     -13.142  11.663  71.901  1.00  0.00    -0.490 A  
HETATM   15  C   UNL     1     -12.003  12.660  69.615  1.00  0.00    -0.352 A  
HETATM   16  C   UNL     1     -13.023  13.044  71.777  1.00  0.00    -0.321 A  
HETATM   17  C   UNL     1     -12.498  13.565  70.592  1.00  0.00    -0.405 A  
HETATM   18  N   UNL     1     -13.446  13.818  72.781  1.00  0.00    -0.666 NA 
HETATM   19  C   UNL     1     -13.353  15.140  72.605  1.00  0.00    -0.464 A  
HETATM   20  C   UNL     1     -12.518  14.976  70.483  1.00  0.00    -0.371 A  
BRANCH  12  21
HETATM   21  O   UNL     1     -13.092   9.475  71.133  1.00  0.00    -0.326 OA 
BRANCH  21  22
HETATM   22  C   UNL     1     -12.156   8.406  71.207  1.00  0.00    -0.284 C  
HETATM   23  C   UNL     1     -10.947   7.035  72.771  1.00  0.00    -0.294 C  
HETATM   24  C   UNL     1     -12.939   7.166  71.630  1.00  0.00    -0.370 C  
HETATM   25  O   UNL     1     -11.989   6.254  72.177  1.00  0.00    -0.329 OA 
HETATM   26  C   UNL     1     -11.105   8.476  72.298  1.00  0.00    -0.430 C  
ENDBRANCH  21  22
ENDBRANCH  12  21
BRANCH  20  27
HETATM   27  N   UNL     1     -12.096  15.591  69.269  1.00  0.00    -0.545 NA 
HETATM   28  H   UNL     1     -12.768  15.564  68.502  1.00  0.00     0.000 HD 
BRANCH  27  29
HETATM   29  C   UNL     1     -10.865  16.235  68.989  1.00  0.00    -0.315 A  
HETATM   30  C   UNL     1     -10.783  17.555  68.520  1.00  0.00    -0.237 A  
HETATM   31  C   UNL     1      -9.543  18.164  68.306  1.00  0.00    -0.317 A  
HETATM   32 CL   UNL     1      -9.490  19.772  67.681  1.00  0.00    -0.436 Cl 
HETATM   33  C   UNL     1      -8.370  17.473  68.585  1.00  0.00    -0.258 A  
HETATM   34  C   UNL     1      -8.423  16.187  69.099  1.00  0.00    -0.239 A  
HETATM   35  F   UNL     1      -7.175  18.044  68.387  1.00  0.00    -0.217 F  
HETATM   36  C   UNL     1      -9.663  15.574  69.308  1.00  0.00    -0.272 A  
ENDBRANCH  27  29
ENDBRANCH  20  27
ENDBRANCH   8  11
ENDBRANCH   6   7
ENDBRANCH   4   5
ENDBRANCH   2   4
TORSDOF 8
ENDMDL
MODEL        5
REMARK 921   NORMALIZED FREE ENERGY PREDICTED BY IDOCK:   -7.33 KCAL/MOL
REMARK 922        TOTAL FREE ENERGY PREDICTED BY IDOCK:  -12.29 KCAL/MOL
REMARK 923 INTER-LIGAND FREE ENERGY PREDICTED BY IDOCK:  -10.84 KCAL/MOL
REMARK 924 INTRA-LIGAND FREE ENERGY PREDICTED BY IDOCK:   -1.45 KCAL/MOL
REMARK 927      BINDING AFFINITY PREDICTED BY RF-SCORE:    0.00 PKD
ROOT
HETATM    1  C   UNL     1      -9.011   4.511  66.794  1.00  0.00    -0.115 C  
HETATM    2  N   UNL     1      -8.998   5.976  66.700  1.00  0.00    -0.124 NA 
HETATM    3  C   UNL     1      -8.447   6.359  65.391  1.00  0.00    -0.123 C  
ENDROOT
BRANCH   2   4
HETATM    4  C   UNL     1     -10.359   6.524  66.831  1.00  0.00    -0.243 C  
BRANCH   4   5
HETATM    5  C   UNL     1     -10.535   7.669  67.788  1.00  0.00    -0.282 C  
HETATM    6  C   UNL     1     -10.010   8.905  67.702  1.00  0.00    -0.248 C  
BRANCH   6   7
HETATM    7  C   UNL     1     -10.302   9.891  68.777  1.00  0.00    -0.203 C  
HETATM    8  N   UNL     1     -11.605  10.362  68.755  1.00  0.00    -0.497 N  
HETATM    9  O   UNL     1      -9.459  10.162  69.626  1.00  0.00    -0.222 OA 
HETATM   10  H   UNL     1     -12.214  10.099  67.979  1.00  0.00     0.000 HD 
BRANCH   8  11
HETATM   11  C   UNL     1     -12.120  11.197  69.775  1.00  0.00    -0.344 A  
HETATM   12  C   UNL     1     -12.730  10.688  70.922  1.00  0.00    -0.404 A  
HETATM   13  N   UNL     1     -12.965  15.675  71.537  1.00  0.00    -0.467 NA 
HETATM   14  C   UNL     1     -13.157  11.581  71.919  1.00  0.00    -0.492 A  
HETATM   15  C   UNL     1     -12.068  12.594  69.616  1.00  0.00    -0.277 A  
HETATM   16  C   UNL     1     -13.044  12.963  71.801  1.00  0.00    -0.360 A  
HETATM   17  C   UNL     1     -12.545  13.492  70.608  1.00  0.00    -0.345 A  
HETATM   18  N   UNL     1     -13.448  13.730  72.818  1.00  0.00    -0.666 NA 
HETATM   19  C   UNL     1     -13.361  15.053  72.648  1.00  0.00    -0.457 A  
HETATM   20  C   UNL     1     -12.571  14.904  70.508  1.00  0.00    -0.360 A  
BRANCH  12  21
HETATM   21  O   UNL     1     -13.117   9.397  71.137  1.00  0.00    -0.307 OA 
BRANCH  21  22
HETATM   22  C   UNL     1     -12.171   8.342  71.264  1.00  0.00    -0.277 C  
HETATM   23  C   UNL     1     -11.020   7.001  72.894  1.00  0.00    -0.302 C  
HETATM   24  C   UNL     1     -12.957   7.095  71.660  1.00  0.00    -0.370 C  
HETATM   25  O   UNL     1     -12.022   6.201  72.259  1.00  0.00    -0.318 OA 
HETATM   26  C   UNL     1     -11.174   8.435  72.403  1.00  0.00    -0.438 C  
ENDBRANCH  21  22
ENDBRANCH  12  21
BRANCH  20  27
HETATM   27  N   UNL     1     -12.176  15.527  69.290  1.00  0.00    -0.590 NA 
HETATM   28  H   UNL     1     -12.894  15.580  68.566  1.00  0.00     0.000 HD 
BRANCH  27  29
HETATM   29  C   UNL     1     -10.918  16.083  68.951  1.00  0.00    -0.309 A  
HETATM   30  C   UNL     1      -9.699  15.534  69.380  1.00  0.00    -0.283 A  
HETATM   31  C   UNL     1      -8.482  16.089  68.978  1.00  0.00    -0.244 A  
HETATM   32 CL   UNL     1      -7.009  15.410  69.569  1.00  0.00    -0.176 Cl 
HETATM   33  C   UNL     1      -8.463  17.182  68.119  1.00  0.00    -0.227 A  
HETATM   34  C   UNL     1      -9.651  17.712  67.639  1.00  0.00    -0.268 A  
HETATM   35  F   UNL     1      -7.304  17.724  67.724  1.00  0.00    -0.188 F  
HETATM   36  C   UNL     1     -10.871  17.161  68.046  1.00  0.00    -0.317 A  
ENDBRANCH  27  29
ENDBRANCH  20  27
ENDBRANCH   8  11
ENDBRANCH   6   7
ENDBRANCH   4   5
ENDBRANCH   2   4
TORSDOF 8
ENDMDL
MODEL        6
REMARK 921   NORMALIZED FREE ENERGY PREDICTED BY IDOCK:   -7.28 KCAL/MOL
REMARK 922        TOTAL FREE ENERGY PREDICTED BY IDOCK:  -12.23 KCAL/MOL
REMARK 923 INTER-LIGAND FREE ENERGY PREDICTED BY IDOCK:  -11.01 KCAL/MOL
REMARK 924 INTRA-LIGAND FREE ENERGY PREDICTED BY IDOCK:   -1.22 KCAL/MOL
REMARK 927      BINDING AFFINITY PREDICTED BY RF-SCORE:    0.00 PKD
ROOT
HETATM    1  C   UNL     1      -9.565   5.610  71.858  1.00  0.00    -0.152 C  
HETATM    2  N   UNL     1     -10.953   5.823  72.286  1.00  0.00    -0.250 NA 
HETATM    3  C   UNL     1     -11.280   4.837  73.328  1.00  0.00    -0.340 C  
ENDROOT
BRANCH   2   4
HETATM    4  C   UNL     1     -11.135   7.179  72.831  1.00  0.00    -0.298 C  
BRANCH   4   5
HETATM    5  C   UNL     1     -10.850   8.323  71.898  1.00  0.00    -0.350 C  
HETATM    6  C   UNL     1     -11.622   8.783  70.898  1.00  0.00    -0.320 C  
BRANCH   6   7
HETATM    7  C   UNL     1     -11.139   9.928  70.080  1.00  0.00    -0.285 C  
HETATM    8  N   UNL     1     -12.161  10.696  69.545  1.00  0.00    -0.501 N  
HETATM    9  O   UNL     1      -9.939  10.172  69.989  1.00  0.00    -0.240 OA 
HETATM   10  H   UNL     1     -13.125  10.380  69.651  1.00  0.00     0.000 HD 
BRANCH   8  11
HETATM   11  C   UNL     1     -11.910  11.906  68.856  1.00  0.00    -0.307 A  
HETATM   12  C   UNL     1     -11.973  13.152  69.484  1.00  0.00    -0.294 A  
HETATM   13  N   UNL     1     -10.772  14.252  64.724  1.00  0.00    -0.422 NA 
HETATM   14  C   UNL     1     -11.646  14.302  68.746  1.00  0.00    -0.357 A  
HETATM   15  C   UNL     1     -11.637  11.872  67.476  1.00  0.00    -0.374 A  
HETATM   16  C   UNL     1     -11.306  14.269  67.397  1.00  0.00    -0.332 A  
HETATM   17  C   UNL     1     -11.355  13.045  66.726  1.00  0.00    -0.365 A  
HETATM   18  N   UNL     1     -10.977  15.414  66.790  1.00  0.00    -0.308 NA 
HETATM   19  C   UNL     1     -10.697  15.345  65.485  1.00  0.00    -0.384 A  
HETATM   20  C   UNL     1     -11.115  13.102  65.332  1.00  0.00    -0.278 A  
BRANCH  12  21
HETATM   21  O   UNL     1     -12.478  13.417  70.723  1.00  0.00    -0.354 OA 
BRANCH  21  22
HETATM   22  C   UNL     1     -12.710  14.748  71.169  1.00  0.00    -0.334 C  
HETATM   23  C   UNL     1     -13.425  16.021  73.080  1.00  0.00    -0.486 C  
HETATM   24  C   UNL     1     -11.557  15.105  72.102  1.00  0.00    -0.400 C  
HETATM   25  O   UNL     1     -12.013  16.183  72.915  1.00  0.00    -0.488 OA 
HETATM   26  C   UNL     1     -13.904  14.981  72.074  1.00  0.00    -0.578 C  
ENDBRANCH  21  22
ENDBRANCH  12  21
BRANCH  20  27
HETATM   27  N   UNL     1     -11.243  11.919  64.550  1.00  0.00    -0.321 NA 
HETATM   28  H   UNL     1     -12.183  11.714  64.208  1.00  0.00     0.000 HD 
BRANCH  27  29
HETATM   29  C   UNL     1     -10.238  10.990  64.185  1.00  0.00    -0.357 A  
HETATM   30  C   UNL     1      -9.711  10.044  65.078  1.00  0.00    -0.386 A  
HETATM   31  C   UNL     1      -8.756   9.115  64.656  1.00  0.00    -0.166 A  
HETATM   32 CL   UNL     1      -8.100   8.001  65.801  1.00  0.00    -0.114 Cl 
HETATM   33  C   UNL     1      -8.336   9.099  63.332  1.00  0.00    -0.192 A  
HETATM   34  C   UNL     1      -8.878   9.988  62.417  1.00  0.00    -0.263 A  
HETATM   35  F   UNL     1      -7.422   8.213  62.913  1.00  0.00    -0.095 F  
HETATM   36  C   UNL     1      -9.830  10.923  62.839  1.00  0.00    -0.313 A  
ENDBRANCH  27  29
ENDBRANCH  20  27
ENDBRANCH   8  11
ENDBRANCH   6   7
ENDBRANCH   4   5
ENDBRANCH   2   4
TORSDOF 8
ENDMDL
MODEL        7
REMARK 921   NORMALIZED FREE ENERGY PREDICTED BY IDOCK:   -7.24 KCAL/MOL
REMARK 922        TOTAL FREE ENERGY PREDICTED BY IDOCK:  -12.17 KCAL/MOL
REMARK 923 INTER-LIGAND FREE ENERGY PREDICTED BY IDOCK:  -11.03 KCAL/MOL
REMARK 924 INTRA-LIGAND FREE ENERGY PREDICTED BY IDOCK:   -1.14 KCAL/MOL
REMARK 927      BINDING AFFINITY PREDICTED BY RF-SCORE:    0.00 PKD
ROOT
HETATM    1  C   UNL     1     -13.881  13.509  72.273  1.00  0.00    -0.581 C  
HETATM    2  N   UNL     1     -13.680  14.963  72.219  1.00  0.00    -0.415 NA 
HETATM    3  C   UNL     1     -12.902  15.374  73.398  1.00  0.00    -0.538 C  
ENDROOT
BRANCH   2   4
HETATM    4  C   UNL     1     -12.950  15.350  71.000  1.00  0.00    -0.492 C  
BRANCH   4   5
HETATM    5  C   UNL     1     -12.090  14.293  70.366  1.00  0.00    -0.409 C  
HETATM    6  C   UNL     1     -12.016  13.961  69.065  1.00  0.00    -0.402 C  
BRANCH   6   7
HETATM    7  C   UNL     1     -11.100  12.863  68.651  1.00  0.00    -0.269 C  
HETATM    8  N   UNL     1     -11.743  11.827  67.992  1.00  0.00    -0.312 N  
HETATM    9  O   UNL     1      -9.889  12.956  68.826  1.00  0.00    -0.112 OA 
HETATM   10  H   UNL     1     -12.761  11.834  67.935  1.00  0.00     0.000 HD 
BRANCH   8  11
HETATM   11  C   UNL     1     -11.031  10.759  67.396  1.00  0.00    -0.300 A  
HETATM   12  C   UNL     1     -10.280  10.919  66.230  1.00  0.00    -0.247 A  
HETATM   13  N   UNL     1      -9.704   6.057  67.386  1.00  0.00    -0.111 NA 
HETATM   14  C   UNL     1      -9.549   9.825  65.737  1.00  0.00    -0.318 A  
HETATM   15  C   UNL     1     -11.115   9.473  67.959  1.00  0.00    -0.056 A  
HETATM   16  C   UNL     1      -9.571   8.566  66.330  1.00  0.00    -0.245 A  
HETATM   17  C   UNL     1     -10.411   8.360  67.427  1.00  0.00    -0.355 A  
HETATM   18  N   UNL     1      -8.814   7.597  65.807  1.00  0.00    -0.140 NA 
HETATM   19  C   UNL     1      -8.895   6.393  66.380  1.00  0.00    -0.141 A  
HETATM   20  C   UNL     1     -10.476   7.029  67.905  1.00  0.00    -0.214 A  
BRANCH  12  21
HETATM   21  O   UNL     1     -10.290  11.997  65.394  1.00  0.00    -0.248 OA 
BRANCH  21  22
HETATM   22  C   UNL     1     -11.484  12.721  65.119  1.00  0.00    -0.321 C  
HETATM   23  C   UNL     1     -12.295  14.740  64.094  1.00  0.00    -0.231 C  
HETATM   24  C   UNL     1     -11.765  12.552  63.628  1.00  0.00    -0.515 C  
HETATM   25  O   UNL     1     -12.620  13.629  63.253  1.00  0.00    -0.816 OA 
HETATM   26  C   UNL     1     -11.424  14.232  65.237  1.00  0.00    -0.344 C  
ENDBRANCH  21  22
ENDBRANCH  12  21
BRANCH  20  27
HETATM   27  N   UNL     1     -11.381   6.705  68.955  1.00  0.00    -0.576 NA 
HETATM   28  H   UNL     1     -12.313   6.410  68.662  1.00  0.00     0.000 HD 
BRANCH  27  29
HETATM   29  C   UNL     1     -11.157   6.740  70.354  1.00  0.00    -0.308 A  
HETATM   30  C   UNL     1     -10.278   5.865  71.010  1.00  0.00    -0.266 A  
HETATM   31  C   UNL     1     -10.052   5.972  72.384  1.00  0.00    -0.175 A  
HETATM   32 CL   UNL     1      -8.999   4.843  73.157  1.00  0.00    -0.111 Cl 
HETATM   33  C   UNL     1     -10.678   6.972  73.118  1.00  0.00    -0.326 A  
HETATM   34  C   UNL     1     -11.512   7.882  72.487  1.00  0.00    -0.455 A  
HETATM   35  F   UNL     1     -10.471   7.087  74.436  1.00  0.00    -0.378 F  
HETATM   36  C   UNL     1     -11.743   7.773  71.112  1.00  0.00    -0.304 A  
ENDBRANCH  27  29
ENDBRANCH  20  27
ENDBRANCH   8  11
ENDBRANCH   6   7
ENDBRANCH   4   5
ENDBRANCH   2   4
TORSDOF 8
ENDMDL
MODEL        8
REMARK 921   NORMALIZED FREE ENERGY PREDICTED BY IDOCK:   -7.12 KCAL/MOL
REMARK 922        TOTAL FREE ENERGY PREDICTED BY IDOCK:  -11.98 KCAL/MOL
REMARK 923 INTER-LIGAND FREE ENERGY PREDICTED BY IDOCK:  -10.59 KCAL/MOL
REMARK 924 INTRA-LIGAND FREE ENERGY PREDICTED BY IDOCK:   -1.39 KCAL/MOL
REMARK 927      BINDING AFFINITY PREDICTED BY RF-SCORE:    0.00 PKD
ROOT
HETATM    1  C   UNL     1     -12.454  15.593  74.201  1.00  0.00    -0.661 C  
HETATM    2  N   UNL     1     -13.005  15.950  72.887  1.00  0.00    -0.474 NA 
HETATM    3  C   UNL     1     -11.907  15.979  71.909  1.00  0.00    -0.534 C  
ENDROOT
BRANCH   2   4
HETATM    4  C   UNL     1     -14.013  14.968  72.454  1.00  0.00    -0.492 C  
BRANCH   4   5
HETATM    5  C   UNL     1     -13.524  13.834  71.599  1.00  0.00    -0.409 C  
HETATM    6  C   UNL     1     -13.278  12.565  71.973  1.00  0.00    -0.524 C  
BRANCH   6   7
HETATM    7  C   UNL     1     -12.780  11.597  70.959  1.00  0.00    -0.298 C  
HETATM    8  N   UNL     1     -11.771  12.106  70.157  1.00  0.00    -0.525 N  
HETATM    9  O   UNL     1     -13.198  10.443  70.934  1.00  0.00    -0.377 OA 
HETATM   10  H   UNL     1     -11.526  13.093  70.237  1.00  0.00     0.000 HD 
BRANCH   8  11
HETATM   11  C   UNL     1     -11.070  11.301  69.228  1.00  0.00    -0.255 A  
HETATM   12  C   UNL     1     -11.242  11.425  67.849  1.00  0.00    -0.288 A  
HETATM   13  N   UNL     1      -7.858   7.733  68.319  1.00  0.00    -0.119 NA 
HETATM   14  C   UNL     1     -10.460  10.633  66.992  1.00  0.00    -0.295 A  
HETATM   15  C   UNL     1     -10.203  10.298  69.701  1.00  0.00    -0.268 A  
HETATM   16  C   UNL     1      -9.548   9.688  67.451  1.00  0.00    -0.148 A  
HETATM   17  C   UNL     1      -9.451   9.467  68.827  1.00  0.00    -0.147 A  
HETATM   18  N   UNL     1      -8.825   9.006  66.557  1.00  0.00    -0.130 NA 
HETATM   19  C   UNL     1      -7.991   8.079  67.038  1.00  0.00    -0.108 A  
HETATM   20  C   UNL     1      -8.594   8.410  69.218  1.00  0.00    -0.130 A  
BRANCH  12  21
HETATM   21  O   UNL     1     -12.217  12.133  67.209  1.00  0.00    -0.496 OA 
BRANCH  21  22
HETATM   22  C   UNL     1     -12.030  13.492  66.829  1.00  0.00    -0.404 C  
HETATM   23  C   UNL     1     -10.556  14.942  65.601  1.00  0.00    -0.344 C  
HETATM   24  C   UNL     1     -12.397  13.588  65.351  1.00  0.00    -0.478 C  
HETATM   25  O   UNL     1     -11.762  14.762  64.851  1.00  0.00    -0.375 OA 
HETATM   26  C   UNL     1     -10.608  14.021  66.814  1.00  0.00    -0.277 C  
ENDBRANCH  21  22
ENDBRANCH  12  21
BRANCH  20  27
HETATM   27  N   UNL     1      -8.511   8.048  70.592  1.00  0.00    -0.122 NA 
HETATM   28  H   UNL     1      -7.757   8.487  71.122  1.00  0.00     0.000 HD 
BRANCH  27  29
HETATM   29  C   UNL     1      -9.337   7.157  71.322  1.00  0.00    -0.155 A  
HETATM   30  C   UNL     1      -9.204   5.762  71.253  1.00  0.00    -0.161 A  
HETATM   31  C   UNL     1     -10.010   4.926  72.031  1.00  0.00    -0.187 A  
HETATM   32 CL   UNL     1      -9.845   3.214  71.877  1.00  0.00    -0.240 Cl 
HETATM   33  C   UNL     1     -10.939   5.472  72.908  1.00  0.00    -0.285 A  
HETATM   34  C   UNL     1     -11.055   6.847  73.034  1.00  0.00    -0.267 A  
HETATM   35  F   UNL     1     -11.718   4.683  73.660  1.00  0.00    -0.351 F  
HETATM   36  C   UNL     1     -10.253   7.685  72.252  1.00  0.00    -0.268 A  
ENDBRANCH  27  29
ENDBRANCH  20  27
ENDBRANCH   8  11
ENDBRANCH   6   7
ENDBRANCH   4   5
ENDBRANCH   2   4
TORSDOF 8
ENDMDL
MODEL        9
REMARK 921   NORMALIZED FREE ENERGY PREDICTED BY IDOCK:   -7.10 KCAL/MOL
REMARK 922        TOTAL FREE ENERGY PREDICTED BY IDOCK:  -11.96 KCAL/MOL
REMARK 923 INTER-LIGAND FREE ENERGY PREDICTED BY IDOCK:  -10.90 KCAL/MOL
REMARK 924 INTRA-LIGAND FREE ENERGY PREDICTED BY IDOCK:   -1.06 KCAL/MOL
REMARK 927      BINDING AFFINITY PREDICTED BY RF-SCORE:    0.00 PKD
ROOT
HETATM    1  C   UNL     1     -13.140   8.598  71.586  1.00  0.00    -0.346 C  
HETATM    2  N   UNL     1     -11.806   8.960  72.082  1.00  0.00    -0.363 NA 
HETATM    3  C   UNL     1     -11.277   7.837  72.871  1.00  0.00    -0.376 C  
ENDROOT
BRANCH   2   4
HETATM    4  C   UNL     1     -10.887   9.241  70.965  1.00  0.00    -0.314 C  
BRANCH   4   5
HETATM    5  C   UNL     1     -11.108  10.526  70.219  1.00  0.00    -0.359 C  
HETATM    6  C   UNL     1     -11.750  10.702  69.050  1.00  0.00    -0.305 C  
BRANCH   6   7
HETATM    7  C   UNL     1     -11.842  12.071  68.474  1.00  0.00    -0.311 C  
HETATM    8  N   UNL     1     -11.374  13.060  69.325  1.00  0.00    -0.362 N  
HETATM    9  O   UNL     1     -12.225  12.242  67.321  1.00  0.00    -0.485 OA 
HETATM   10  H   UNL     1     -11.113  12.810  70.279  1.00  0.00     0.000 HD 
BRANCH   8  11
HETATM   11  C   UNL     1     -11.246  14.407  68.911  1.00  0.00    -0.262 A  
HETATM   12  C   UNL     1     -11.750  15.471  69.661  1.00  0.00    -0.357 A  
HETATM   13  N   UNL     1      -9.687  17.689  65.644  1.00  0.00    -0.445 NA 
HETATM   14  C   UNL     1     -11.525  16.784  69.215  1.00  0.00     0.259 A  
HETATM   15  C   UNL     1     -10.637  14.696  67.676  1.00  0.00    -0.256 A  
HETATM   16  C   UNL     1     -10.860  17.081  68.029  1.00  0.00    -0.330 A  
HETATM   17  C   UNL     1     -10.455  16.025  67.209  1.00  0.00    -0.308 A  
HETATM   18  N   UNL     1     -10.665  18.363  67.706  1.00  0.00    -0.394 NA 
HETATM   19  C   UNL     1     -10.059  18.606  66.539  1.00  0.00    -0.394 A  
HETATM   20  C   UNL     1      -9.895  16.399  65.963  1.00  0.00    -0.335 A  
BRANCH  12  21
HETATM   21  O   UNL     1     -12.596  15.390  70.728  1.00  0.00    -0.381 OA 
BRANCH  21  22
HETATM   22  C   UNL     1     -12.115  15.189  72.052  1.00  0.00    -0.379 C  
HETATM   23  C   UNL     1     -12.575  15.729  74.350  1.00  0.00    -0.536 C  
HETATM   24  C   UNL     1     -13.057  14.188  72.714  1.00  0.00    -0.478 C  
HETATM   25  O   UNL     1     -12.903  14.355  74.121  1.00  0.00    -0.147 OA 
HETATM   26  C   UNL     1     -12.208  16.360  73.012  1.00  0.00    -0.554 C  
ENDBRANCH  21  22
ENDBRANCH  12  21
BRANCH  20  27
HETATM   27  N   UNL     1      -9.546  15.390  65.021  1.00  0.00    -0.221 NA 
HETATM   28  H   UNL     1      -8.590  15.427  64.665  1.00  0.00     0.000 HD 
BRANCH  27  29
HETATM   29  C   UNL     1     -10.353  14.342  64.512  1.00  0.00    -0.038 A  
HETATM   30  C   UNL     1      -9.920  13.009  64.444  1.00  0.00    -0.131 A  
HETATM   31  C   UNL     1     -10.771  12.001  63.982  1.00  0.00    -0.375 A  
HETATM   32 CL   UNL     1     -10.180  10.383  63.869  1.00  0.00    -0.208 Cl 
HETATM   33  C   UNL     1     -12.074  12.306  63.609  1.00  0.00    -0.554 A  
HETATM   34  C   UNL     1     -12.544  13.606  63.715  1.00  0.00    -0.106 A  
HETATM   35  F   UNL     1     -12.902  11.351  63.165  1.00  0.00    -0.554 F  
HETATM   36  C   UNL     1     -11.692  14.617  64.173  1.00  0.00    -0.196 A  
ENDBRANCH  27  29
ENDBRANCH  20  27
ENDBRANCH   8  11
ENDBRANCH   6   7
ENDBRANCH   4   5
ENDBRANCH   2   4
TORSDOF 8
ENDMDL
MODEL       10
REMARK 921   NORMALIZED FREE ENERGY PREDICTED BY IDOCK:   -7.06 KCAL/MOL
REMARK 922        TOTAL FREE ENERGY PREDICTED BY IDOCK:  -11.90 KCAL/MOL
REMARK 923 INTER-LIGAND FREE ENERGY PREDICTED BY IDOCK:  -10.86 KCAL/MOL
REMARK 924 INTRA-LIGAND FREE ENERGY PREDICTED BY IDOCK:   -1.05 KCAL/MOL
REMARK 927      BINDING AFFINITY PREDICTED BY RF-SCORE:    0.00 PKD
ROOT
HETATM    1  C   UNL     1     -12.538  15.705  73.934  1.00  0.00    -0.634 C  
HETATM    2  N   UNL     1     -13.014  15.789  72.548  1.00  0.00    -0.449 NA 
HETATM    3  C   UNL     1     -11.848  15.853  71.653  1.00  0.00    -0.490 C  
ENDROOT
BRANCH   2   4
HETATM    4  C   UNL     1     -13.828  14.613  72.197  1.00  0.00    -0.468 C  
BRANCH   4   5
HETATM    5  C   UNL     1     -13.131  13.509  71.453  1.00  0.00    -0.385 C  
HETATM    6  C   UNL     1     -13.084  12.203  71.769  1.00  0.00    -0.457 C  
BRANCH   6   7
HETATM    7  C   UNL     1     -12.318  11.275  70.893  1.00  0.00    -0.388 C  
HETATM    8  N   UNL     1     -12.226  11.705  69.579  1.00  0.00    -0.239 N  
HETATM    9  O   UNL     1     -11.770  10.281  71.359  1.00  0.00    -0.341 OA 
HETATM   10  H   UNL     1     -12.754  12.529  69.290  1.00  0.00     0.000 HD 
BRANCH   8  11
HETATM   11  C   UNL     1     -11.424  11.037  68.624  1.00  0.00    -0.308 A  
HETATM   12  C   UNL     1     -10.681  11.721  67.660  1.00  0.00    -0.214 A  
HETATM   13  N   UNL     1      -9.710   6.875  66.723  1.00  0.00    -0.174 NA 
HETATM   14  C   UNL     1      -9.858  10.988  66.789  1.00  0.00    -0.229 A  
HETATM   15  C   UNL     1     -11.405   9.630  68.600  1.00  0.00     0.099 A  
HETATM   16  C   UNL     1      -9.779   9.599  66.806  1.00  0.00    -0.197 A  
HETATM   17  C   UNL     1     -10.606   8.894  67.684  1.00  0.00    -0.292 A  
HETATM   18  N   UNL     1      -8.940   8.993  65.960  1.00  0.00    -0.172 NA 
HETATM   19  C   UNL     1      -8.925   7.657  65.980  1.00  0.00    -0.139 A  
HETATM   20  C   UNL     1     -10.563   7.484  67.565  1.00  0.00    -0.261 A  
BRANCH  12  21
HETATM   21  O   UNL     1     -10.775  13.045  67.345  1.00  0.00    -0.242 OA 
BRANCH  21  22
HETATM   22  C   UNL     1     -10.829  13.493  65.996  1.00  0.00    -0.278 C  
HETATM   23  C   UNL     1     -12.134  14.831  64.482  1.00  0.00    -0.446 C  
HETATM   24  C   UNL     1     -10.417  14.962  66.005  1.00  0.00    -0.316 C  
HETATM   25  O   UNL     1     -10.930  15.534  64.805  1.00  0.00    -0.428 OA 
HETATM   26  C   UNL     1     -12.196  13.576  65.344  1.00  0.00    -0.482 C  
ENDBRANCH  21  22
ENDBRANCH  12  21
BRANCH  20  27
HETATM   27  N   UNL     1     -11.446   6.688  68.349  1.00  0.00    -0.545 NA 
HETATM   28  H   UNL     1     -12.291   6.366  67.876  1.00  0.00     0.000 HD 
BRANCH  27  29
HETATM   29  C   UNL     1     -11.303   6.284  69.700  1.00  0.00    -0.422 A  
HETATM   30  C   UNL     1     -10.289   5.416  70.135  1.00  0.00    -0.361 A  
HETATM   31  C   UNL     1     -10.160   5.087  71.487  1.00  0.00    -0.196 A  
HETATM   32 CL   UNL     1      -8.928   3.978  71.971  1.00  0.00    -0.142 Cl 
HETATM   33  C   UNL     1     -11.021   5.642  72.426  1.00  0.00    -0.259 A  
HETATM   34  C   UNL     1     -11.998   6.542  72.030  1.00  0.00    -0.372 A  
HETATM   35  F   UNL     1     -10.908   5.337  73.725  1.00  0.00    -0.266 F  
HETATM   36  C   UNL     1     -12.133   6.868  70.676  1.00  0.00    -0.363 A  
ENDBRANCH  27  29
ENDBRANCH  20  27
ENDBRANCH   8  11
ENDBRANCH   6   7
ENDBRANCH   4   5
ENDBRANCH   2   4
TORSDOF 8
ENDMDL
MODEL       11
REMARK 921   NORMALIZED FREE ENERGY PREDICTED BY IDOCK:   -7.02 KCAL/MOL
REMARK 922        TOTAL FREE ENERGY PREDICTED BY IDOCK:  -11.84 KCAL/MOL
REMARK 923 INTER-LIGAND FREE ENERGY PREDICTED BY IDOCK:  -10.68 KCAL/MOL
REMARK 924 INTRA-LIGAND FREE ENERGY PREDICTED BY IDOCK:   -1.16 KCAL/MOL
REMARK 927      BINDING AFFINITY PREDICTED BY RF-SCORE:    0.00 PKD
ROOT
HETATM    1  C   UNL     1     -12.838  14.979  73.389  1.00  0.00    -0.528 C  
HETATM    2  N   UNL     1     -13.942  14.309  72.689  1.00  0.00    -0.610 NA 
HETATM    3  C   UNL     1     -14.216  15.035  71.439  1.00  0.00    -0.493 C  
ENDROOT
BRANCH   2   4
HETATM    4  C   UNL     1     -13.596  12.913  72.372  1.00  0.00    -0.478 C  
BRANCH   4   5
HETATM    5  C   UNL     1     -12.699  12.695  71.186  1.00  0.00    -0.347 C  
HETATM    6  C   UNL     1     -12.229  11.528  70.711  1.00  0.00    -0.463 C  
BRANCH   6   7
HETATM    7  C   UNL     1     -11.335  11.540  69.521  1.00  0.00    -0.274 C  
HETATM    8  N   UNL     1     -11.521  10.455  68.680  1.00  0.00    -0.476 N  
HETATM    9  O   UNL     1     -10.582  12.486  69.311  1.00  0.00    -0.038 OA 
HETATM   10  H   UNL     1     -12.147   9.704  68.972  1.00  0.00     0.000 HD 
BRANCH   8  11
HETATM   11  C   UNL     1     -10.869  10.354  67.428  1.00  0.00    -0.286 A  
HETATM   12  C   UNL     1     -10.006   9.303  67.115  1.00  0.00    -0.216 A  
HETATM   13  N   UNL     1      -9.995  12.153  62.970  1.00  0.00    -0.265 NA 
HETATM   14  C   UNL     1      -9.449   9.241  65.827  1.00  0.00    -0.329 A  
HETATM   15  C   UNL     1     -11.048  11.372  66.472  1.00  0.00    -0.312 A  
HETATM   16  C   UNL     1      -9.678  10.207  64.852  1.00  0.00    -0.324 A  
HETATM   17  C   UNL     1     -10.443  11.326  65.188  1.00  0.00    -0.351 A  
HETATM   18  N   UNL     1      -9.131  10.041  63.644  1.00  0.00    -0.252 NA 
HETATM   19  C   UNL     1      -9.341  11.012  62.749  1.00  0.00    -0.346 A  
HETATM   20  C   UNL     1     -10.535  12.325  64.189  1.00  0.00    -0.375 A  
BRANCH  12  21
HETATM   21  O   UNL     1      -9.495   8.381  67.981  1.00  0.00    -0.142 OA 
BRANCH  21  22
HETATM   22  C   UNL     1     -10.101   7.107  68.163  1.00  0.00    -0.169 C  
HETATM   23  C   UNL     1      -9.762   4.965  69.202  1.00  0.00    -0.182 C  
HETATM   24  C   UNL     1     -10.610   7.064  69.600  1.00  0.00    -0.234 C  
HETATM   25  O   UNL     1     -10.754   5.687  69.939  1.00  0.00    -0.308 OA 
HETATM   26  C   UNL     1      -9.192   5.893  68.136  1.00  0.00    -0.116 C  
ENDBRANCH  21  22
ENDBRANCH  12  21
BRANCH  20  27
HETATM   27  N   UNL     1     -11.210  13.545  64.479  1.00  0.00    -0.360 NA 
HETATM   28  H   UNL     1     -12.055  13.724  63.936  1.00  0.00     0.000 HD 
BRANCH  27  29
HETATM   29  C   UNL     1     -10.863  14.543  65.424  1.00  0.00    -0.354 A  
HETATM   30  C   UNL     1     -11.459  14.637  66.691  1.00  0.00    -0.363 A  
HETATM   31  C   UNL     1     -11.046  15.607  67.607  1.00  0.00    -0.305 A  
HETATM   32 CL   UNL     1     -11.842  15.717  69.135  1.00  0.00    -0.395 Cl 
HETATM   33  C   UNL     1     -10.013  16.477  67.283  1.00  0.00    -0.264 A  
HETATM   34  C   UNL     1      -9.371  16.373  66.059  1.00  0.00    -0.335 A  
HETATM   35  F   UNL     1      -9.605  17.412  68.152  1.00  0.00    -0.254 F  
HETATM   36  C   UNL     1      -9.787  15.406  65.138  1.00  0.00    -0.136 A  
ENDBRANCH  27  29
ENDBRANCH  20  27
ENDBRANCH   8  11
ENDBRANCH   6   7
ENDBRANCH   4   5
ENDBRANCH   2   4
TORSDOF 8
ENDMDL
MODEL       12
REMARK 921   NORMALIZED FREE ENERGY PREDICTED BY IDOCK:   -6.93 KCAL/MOL
REMARK 922        TOTAL FREE ENERGY PREDICTED BY IDOCK:  -11.71 KCAL/MOL
REMARK 923 INTER-LIGAND FREE ENERGY PREDICTED BY IDOCK:  -10.56 KCAL/MOL
REMARK 924 INTRA-LIGAND FREE ENERGY PREDICTED BY IDOCK:   -1.15 KCAL/MOL
REMARK 927      BINDING AFFINITY PREDICTED BY RF-SCORE:    0.00 PKD
ROOT
HETATM    1  C   UNL     1      -8.366   9.265  63.449  1.00  0.00    -0.193 C  
HETATM    2  N   UNL     1      -7.710   8.891  64.708  1.00  0.00    -0.106 NA 
HETATM    3  C   UNL     1      -7.141  10.102  65.320  1.00  0.00    -0.137 C  
ENDROOT
BRANCH   2   4
HETATM    4  C   UNL     1      -8.672   8.284  65.644  1.00  0.00    -0.156 C  
BRANCH   4   5
HETATM    5  C   UNL     1      -9.101   9.128  66.811  1.00  0.00    -0.176 C  
HETATM    6  C   UNL     1     -10.344   9.291  67.298  1.00  0.00    -0.332 C  
BRANCH   6   7
HETATM    7  C   UNL     1     -10.550  10.193  68.463  1.00  0.00    -0.216 C  
HETATM    8  N   UNL     1     -11.855  10.642  68.590  1.00  0.00    -0.494 N  
HETATM    9  O   UNL     1      -9.638  10.418  69.253  1.00  0.00    -0.207 OA 
HETATM   10  H   UNL     1     -12.527  10.425  67.853  1.00  0.00     0.000 HD 
BRANCH   8  11
HETATM   11  C   UNL     1     -12.286  11.394  69.709  1.00  0.00    -0.265 A  
HETATM   12  C   UNL     1     -12.788  10.794  70.865  1.00  0.00    -0.351 A  
HETATM   13  N   UNL     1     -13.016  15.720  71.859  1.00  0.00    -0.458 NA 
HETATM   14  C   UNL     1     -13.133  11.606  71.957  1.00  0.00    -0.433 A  
HETATM   15  C   UNL     1     -12.262  12.799  69.648  1.00  0.00    -0.188 A  
HETATM   16  C   UNL     1     -13.045  12.995  71.931  1.00  0.00    -0.384 A  
HETATM   17  C   UNL     1     -12.659  13.616  70.740  1.00  0.00    -0.397 A  
HETATM   18  N   UNL     1     -13.365  13.680  73.033  1.00  0.00    -0.514 NA 
HETATM   19  C   UNL     1     -13.307  15.013  72.952  1.00  0.00    -0.485 A  
HETATM   20  C   UNL     1     -12.707  15.031  70.746  1.00  0.00    -0.381 A  
BRANCH  12  21
HETATM   21  O   UNL     1     -13.142   9.485  71.018  1.00  0.00    -0.295 OA 
BRANCH  21  22
HETATM   22  C   UNL     1     -12.170   8.448  71.086  1.00  0.00    -0.226 C  
HETATM   23  C   UNL     1     -10.774   7.242  72.629  1.00  0.00    -0.278 C  
HETATM   24  C   UNL     1     -12.869   7.230  71.682  1.00  0.00    -0.375 C  
HETATM   25  O   UNL     1     -11.844   6.390  72.206  1.00  0.00    -0.305 OA 
HETATM   26  C   UNL     1     -11.021   8.634  72.059  1.00  0.00    -0.432 C  
ENDBRANCH  21  22
ENDBRANCH  12  21
BRANCH  20  27
HETATM   27  N   UNL     1     -12.427  15.746  69.547  1.00  0.00    -0.496 NA 
HETATM   28  H   UNL     1     -13.130  16.428  69.263  1.00  0.00     0.000 HD 
BRANCH  27  29
HETATM   29  C   UNL     1     -11.299  15.634  68.697  1.00  0.00    -0.357 A  
HETATM   30  C   UNL     1     -11.370  15.105  67.399  1.00  0.00    -0.309 A  
HETATM   31  C   UNL     1     -10.239  15.063  66.579  1.00  0.00    -0.275 A  
HETATM   32 CL   UNL     1     -10.362  14.358  65.008  1.00  0.00    -0.448 Cl 
HETATM   33  C   UNL     1      -9.029  15.574  67.033  1.00  0.00    -0.226 A  
HETATM   34  C   UNL     1      -8.944  16.149  68.291  1.00  0.00    -0.189 A  
HETATM   35  F   UNL     1      -7.937  15.541  66.258  1.00  0.00    -0.224 F  
HETATM   36  C   UNL     1     -10.073  16.187  69.115  1.00  0.00    -0.252 A  
ENDBRANCH  27  29
ENDBRANCH  20  27
ENDBRANCH   8  11
ENDBRANCH   6   7
ENDBRANCH   4   5
ENDBRANCH   2   4
TORSDOF 8
ENDMDL
MODEL       13
REMARK 921   NORMALIZED FREE ENERGY PREDICTED BY IDOCK:   -6.92 KCAL/MOL
REMARK 922        TOTAL FREE ENERGY PREDICTED BY IDOCK:  -11.70 KCAL/MOL
REMARK 923 INTER-LIGAND FREE ENERGY PREDICTED BY IDOCK:  -10.51 KCAL/MOL
REMARK 924 INTRA-LIGAND FREE ENERGY PREDICTED BY IDOCK:   -1.19 KCAL/MOL
REMARK 927      BINDING AFFINITY PREDICTED BY RF-SCORE:    0.00 PKD
ROOT
HETATM    1  C   UNL     1     -12.517  16.134  73.356  1.00  0.00    -0.555 C  
HETATM    2  N   UNL     1     -13.276  15.597  72.220  1.00  0.00    -0.449 NA 
HETATM    3  C   UNL     1     -12.376  15.487  71.062  1.00  0.00    -0.416 C  
ENDROOT
BRANCH   2   4
HETATM    4  C   UNL     1     -13.823  14.266  72.534  1.00  0.00    -0.471 C  
BRANCH   4   5
HETATM    5  C   UNL     1     -13.318  13.118  71.707  1.00  0.00    -0.477 C  
HETATM    6  C   UNL     1     -13.352  11.807  72.007  1.00  0.00    -0.417 C  
BRANCH   6   7
HETATM    7  C   UNL     1     -12.778  10.830  71.043  1.00  0.00    -0.415 C  
HETATM    8  N   UNL     1     -11.600  11.262  70.454  1.00  0.00    -0.472 N  
HETATM    9  O   UNL     1     -13.293   9.727  70.885  1.00  0.00    -0.318 OA 
HETATM   10  H   UNL     1     -11.281  12.215  70.628  1.00  0.00     0.000 HD 
BRANCH   8  11
HETATM   11  C   UNL     1     -10.827  10.423  69.617  1.00  0.00    -0.277 A  
HETATM   12  C   UNL     1     -10.015   9.406  70.122  1.00  0.00    -0.229 A  
HETATM   13  N   UNL     1      -9.346   9.132  65.144  1.00  0.00    -0.180 NA 
HETATM   14  C   UNL     1      -9.329   8.574  69.222  1.00  0.00    -0.154 A  
HETATM   15  C   UNL     1     -10.826  10.644  68.227  1.00  0.00    -0.287 A  
HETATM   16  C   UNL     1      -9.379   8.742  67.841  1.00  0.00    -0.142 A  
HETATM   17  C   UNL     1     -10.090   9.828  67.327  1.00  0.00    -0.261 A  
HETATM   18  N   UNL     1      -8.718   7.877  67.065  1.00  0.00    -0.126 NA 
HETATM   19  C   UNL     1      -8.758   8.098  65.748  1.00  0.00    -0.154 A  
HETATM   20  C   UNL     1     -10.000  10.009  65.925  1.00  0.00    -0.269 A  
BRANCH  12  21
HETATM   21  O   UNL     1      -9.671   9.209  71.427  1.00  0.00    -0.295 OA 
BRANCH  21  22
HETATM   22  C   UNL     1      -9.659   7.911  72.011  1.00  0.00    -0.186 C  
HETATM   23  C   UNL     1     -10.028   6.750  74.085  1.00  0.00    -0.342 C  
HETATM   24  C   UNL     1     -11.117   7.504  72.205  1.00  0.00    -0.273 C  
HETATM   25  O   UNL     1     -11.124   6.486  73.202  1.00  0.00    -0.243 OA 
HETATM   26  C   UNL     1      -9.128   7.789  73.427  1.00  0.00    -0.336 C  
ENDBRANCH  21  22
ENDBRANCH  12  21
BRANCH  20  27
HETATM   27  N   UNL     1     -10.610  11.147  65.325  1.00  0.00    -0.263 NA 
HETATM   28  H   UNL     1     -11.053  10.987  64.420  1.00  0.00     0.000 HD 
BRANCH  27  29
HETATM   29  C   UNL     1     -10.684  12.472  65.821  1.00  0.00    -0.269 A  
HETATM   30  C   UNL     1      -9.557  13.295  65.972  1.00  0.00    -0.174 A  
HETATM   31  C   UNL     1      -9.686  14.613  66.417  1.00  0.00    -0.295 A  
HETATM   32 CL   UNL     1      -8.268  15.573  66.635  1.00  0.00    -0.285 Cl 
HETATM   33  C   UNL     1     -10.944  15.137  66.689  1.00  0.00    -0.318 A  
HETATM   34  C   UNL     1     -12.078  14.363  66.499  1.00  0.00    -0.395 A  
HETATM   35  F   UNL     1     -11.084  16.399  67.116  1.00  0.00    -0.267 F  
HETATM   36  C   UNL     1     -11.950  13.041  66.059  1.00  0.00    -0.498 A  
ENDBRANCH  27  29
ENDBRANCH  20  27
ENDBRANCH   8  11
ENDBRANCH   6   7
ENDBRANCH   4   5
ENDBRANCH   2   4
TORSDOF 8
ENDMDL
MODEL       14
REMARK 921   NORMALIZED FREE ENERGY PREDICTED BY IDOCK:   -6.90 KCAL/MOL
REMARK 922        TOTAL FREE ENERGY PREDICTED BY IDOCK:  -11.67 KCAL/MOL
REMARK 923 INTER-LIGAND FREE ENERGY PREDICTED BY IDOCK:  -10.44 KCAL/MOL
REMARK 924 INTRA-LIGAND FREE ENERGY PREDICTED BY IDOCK:   -1.23 KCAL/MOL
REMARK 927      BINDING AFFINITY PREDICTED BY RF-SCORE:    0.00 PKD
ROOT
HETATM    1  C   UNL     1      -7.133  19.971  65.608  1.00  0.00    -0.315 C  
HETATM    2  N   UNL     1      -7.967  18.768  65.730  1.00  0.00    -0.451 NA 
HETATM    3  C   UNL     1      -7.116  17.648  66.159  1.00  0.00    -0.312 C  
ENDROOT
BRANCH   2   4
HETATM    4  C   UNL     1      -9.038  18.968  66.721  1.00  0.00    -0.320 C  
BRANCH   4   5
HETATM    5  C   UNL     1      -9.351  17.805  67.619  1.00  0.00    -0.250 C  
HETATM    6  C   UNL     1     -10.471  17.061  67.645  1.00  0.00    -0.343 C  
BRANCH   6   7
HETATM    7  C   UNL     1     -10.580  15.954  68.633  1.00  0.00    -0.250 C  
HETATM    8  N   UNL     1     -11.432  14.937  68.232  1.00  0.00    -0.311 N  
HETATM    9  O   UNL     1      -9.896  15.952  69.651  1.00  0.00    -0.268 OA 
HETATM   10  H   UNL     1     -11.983  15.059  67.382  1.00  0.00     0.000 HD 
BRANCH   8  11
HETATM   11  C   UNL     1     -11.563  13.734  68.964  1.00  0.00    -0.313 A  
HETATM   12  C   UNL     1     -12.396  13.623  70.079  1.00  0.00    -0.278 A  
HETATM   13  N   UNL     1     -10.343   9.051  69.641  1.00  0.00    -0.206 NA 
HETATM   14  C   UNL     1     -12.521  12.375  70.713  1.00  0.00    -0.356 A  
HETATM   15  C   UNL     1     -10.793  12.615  68.599  1.00  0.00    -0.281 A  
HETATM   16  C   UNL     1     -11.815  11.245  70.313  1.00  0.00    -0.357 A  
HETATM   17  C   UNL     1     -10.889  11.369  69.275  1.00  0.00    -0.242 A  
HETATM   18  N   UNL     1     -12.028  10.094  70.958  1.00  0.00    -0.348 NA 
HETATM   19  C   UNL     1     -11.300   9.042  70.570  1.00  0.00    -0.243 A  
HETATM   20  C   UNL     1     -10.120  10.212  69.000  1.00  0.00    -0.205 A  
BRANCH  12  21
HETATM   21  O   UNL     1     -13.006  14.644  70.747  1.00  0.00    -0.348 OA 
BRANCH  21  22
HETATM   22  C   UNL     1     -12.924  14.768  72.163  1.00  0.00    -0.336 C  
HETATM   23  C   UNL     1     -12.175  16.245  73.906  1.00  0.00    -0.485 C  
HETATM   24  C   UNL     1     -13.991  15.778  72.576  1.00  0.00    -0.456 C  
HETATM   25  O   UNL     1     -13.605  16.274  73.856  1.00  0.00    -0.460 OA 
HETATM   26  C   UNL     1     -11.674  15.409  72.734  1.00  0.00    -0.535 C  
ENDBRANCH  21  22
ENDBRANCH  12  21
BRANCH  20  27
HETATM   27  N   UNL     1      -9.083  10.276  68.027  1.00  0.00    -0.131 NA 
HETATM   28  H   UNL     1      -8.146  10.459  68.389  1.00  0.00     0.000 HD 
BRANCH  27  29
HETATM   29  C   UNL     1      -9.180  10.118  66.622  1.00  0.00    -0.155 A  
HETATM   30  C   UNL     1     -10.032  10.897  65.823  1.00  0.00    -0.299 A  
HETATM   31  C   UNL     1     -10.055  10.739  64.435  1.00  0.00    -0.353 A  
HETATM   32 CL   UNL     1     -11.153  11.684  63.496  1.00  0.00    -0.490 Cl 
HETATM   33  C   UNL     1      -9.209   9.822  63.823  1.00  0.00    -0.189 A  
HETATM   34  C   UNL     1      -8.322   9.077  64.584  1.00  0.00    -0.180 A  
HETATM   35  F   UNL     1      -9.219   9.660  62.494  1.00  0.00    -0.252 F  
HETATM   36  C   UNL     1      -8.301   9.230  65.974  1.00  0.00    -0.117 A  
ENDBRANCH  27  29
ENDBRANCH  20  27
ENDBRANCH   8  11
ENDBRANCH   6   7
ENDBRANCH   4   5
ENDBRANCH   2   4
TORSDOF 8
ENDMDL
MODEL       15
REMARK 921   NORMALIZED FREE ENERGY PREDICTED BY IDOCK:   -6.86 KCAL/MOL
REMARK 922        TOTAL FREE ENERGY PREDICTED BY IDOCK:  -11.61 KCAL/MOL
REMARK 923 INTER-LIGAND FREE ENERGY PREDICTED BY IDOCK:  -10.02 KCAL/MOL
REMARK 924 INTRA-LIGAND FREE ENERGY PREDICTED BY IDOCK:   -1.58 KCAL/MOL
REMARK 927      BINDING AFFINITY PREDICTED BY RF-SCORE:    0.00 PKD
ROOT
HETATM    1  C   UNL     1     -10.220  11.755  63.306  1.00  0.00    -0.416 C  
HETATM    2  N   UNL     1     -11.354  12.686  63.246  1.00  0.00    -0.388 NA 
HETATM    3  C   UNL     1     -12.591  11.938  63.520  1.00  0.00    -0.459 C  
ENDROOT
BRANCH   2   4
HETATM    4  C   UNL     1     -11.208  13.760  64.242  1.00  0.00    -0.305 C  
BRANCH   4   5
HETATM    5  C   UNL     1     -11.218  13.345  65.686  1.00  0.00    -0.307 C  
HETATM    6  C   UNL     1     -10.786  14.046  66.749  1.00  0.00    -0.285 C  
BRANCH   6   7
HETATM    7  C   UNL     1     -10.876  13.436  68.103  1.00  0.00    -0.255 C  
HETATM    8  N   UNL     1     -11.796  12.402  68.183  1.00  0.00    -0.346 N  
HETATM    9  O   UNL     1     -10.125  13.795  69.005  1.00  0.00    -0.128 OA 
HETATM   10  H   UNL     1     -12.396  12.211  67.380  1.00  0.00     0.000 HD 
BRANCH   8  11
HETATM   11  C   UNL     1     -11.929  11.602  69.343  1.00  0.00    -0.316 A  
HETATM   12  C   UNL     1     -12.664  12.014  70.455  1.00  0.00    -0.001 A  
HETATM   13  N   UNL     1     -10.920   7.481  71.765  1.00  0.00    -0.231 NA 
HETATM   14  C   UNL     1     -12.802  11.135  71.542  1.00  0.00    -0.542 A  
HETATM   15  C   UNL     1     -11.258  10.367  69.411  1.00  0.00    -0.314 A  
HETATM   16  C   UNL     1     -12.200   9.881  71.588  1.00  0.00    -0.395 A  
HETATM   17  C   UNL     1     -11.364   9.504  70.534  1.00  0.00    -0.343 A  
HETATM   18  N   UNL     1     -12.419   9.102  72.651  1.00  0.00    -0.190 NA 
HETATM   19  C   UNL     1     -11.790   7.923  72.675  1.00  0.00    -0.297 A  
HETATM   20  C   UNL     1     -10.690   8.270  70.701  1.00  0.00    -0.220 A  
BRANCH  12  21
HETATM   21  O   UNL     1     -13.153  13.265  70.693  1.00  0.00    -0.029 OA 
BRANCH  21  22
HETATM   22  C   UNL     1     -12.845  13.976  71.887  1.00  0.00    -0.335 C  
HETATM   23  C   UNL     1     -12.246  16.156  72.707  1.00  0.00    -0.531 C  
HETATM   24  C   UNL     1     -14.063  14.837  72.211  1.00  0.00    -0.488 C  
HETATM   25  O   UNL     1     -13.604  15.882  73.065  1.00  0.00    -0.575 OA 
HETATM   26  C   UNL     1     -11.754  15.026  71.810  1.00  0.00    -0.452 C  
ENDBRANCH  21  22
ENDBRANCH  12  21
BRANCH  20  27
HETATM   27  N   UNL     1      -9.741   7.853  69.724  1.00  0.00    -0.175 NA 
HETATM   28  H   UNL     1      -8.830   8.310  69.769  1.00  0.00     0.000 HD 
BRANCH  27  29
HETATM   29  C   UNL     1      -9.897   6.887  68.699  1.00  0.00    -0.145 A  
HETATM   30  C   UNL     1      -9.569   5.533  68.869  1.00  0.00    -0.178 A  
HETATM   31  C   UNL     1      -9.789   4.609  67.844  1.00  0.00    -0.119 A  
HETATM   32 CL   UNL     1      -9.325   2.963  68.079  1.00  0.00    -0.259 Cl 
HETATM   33  C   UNL     1     -10.366   5.018  66.648  1.00  0.00    -0.270 A  
HETATM   34  C   UNL     1     -10.747   6.339  66.473  1.00  0.00    -0.177 A  
HETATM   35  F   UNL     1     -10.584   4.143  65.657  1.00  0.00    -0.213 F  
HETATM   36  C   UNL     1     -10.523   7.266  67.496  1.00  0.00    -0.337 A  
ENDBRANCH  27  29
ENDBRANCH  20  27
ENDBRANCH   8  11
ENDBRANCH   6   7
ENDBRANCH   4   5
ENDBRANCH   2   4
TORSDOF 8
ENDMDL
MODEL       16
REMARK 921   NORMALIZED FREE ENERGY PREDICTED BY IDOCK:   -6.82 KCAL/MOL
REMARK 922        TOTAL FREE ENERGY PREDICTED BY IDOCK:  -11.56 KCAL/MOL
REMARK 923 INTER-LIGAND FREE ENERGY PREDICTED BY IDOCK:  -10.15 KCAL/MOL
REMARK 924 INTRA-LIGAND FREE ENERGY PREDICTED BY IDOCK:   -1.40 KCAL/MOL
REMARK 927      BINDING AFFINITY PREDICTED BY RF-SCORE:    0.00 PKD
ROOT
HETATM    1  C   UNL     1      -6.669   7.235  62.871  1.00  0.00    -0.053 C  
HETATM    2  N   UNL     1      -7.950   7.625  63.475  1.00  0.00    -0.121 NA 
HETATM    3  C   UNL     1      -7.917   7.287  64.906  1.00  0.00    -0.127 C  
ENDROOT
BRANCH   2   4
HETATM    4  C   UNL     1      -8.183   9.072  63.325  1.00  0.00    -0.181 C  
BRANCH   4   5
HETATM    5  C   UNL     1      -8.524   9.832  64.575  1.00  0.00    -0.182 C  
HETATM    6  C   UNL     1      -9.424  10.821  64.720  1.00  0.00    -0.292 C  
BRANCH   6   7
HETATM    7  C   UNL     1      -9.595  11.453  66.056  1.00  0.00    -0.221 C  
HETATM    8  N   UNL     1     -10.894  11.861  66.312  1.00  0.00    -0.271 N  
HETATM    9  O   UNL     1      -8.660  11.507  66.849  1.00  0.00    -0.151 OA 
HETATM   10  H   UNL     1     -11.587  11.804  65.565  1.00  0.00     0.000 HD 
BRANCH   8  11
HETATM   11  C   UNL     1     -11.291  12.354  67.578  1.00  0.00    -0.315 A  
HETATM   12  C   UNL     1     -11.117  13.688  67.949  1.00  0.00    -0.261 A  
HETATM   13  N   UNL     1     -13.260  11.578  71.982  1.00  0.00    -0.462 NA 
HETATM   14  C   UNL     1     -11.598  14.115  69.198  1.00  0.00    -0.349 A  
HETATM   15  C   UNL     1     -11.835  11.468  68.525  1.00  0.00    -0.365 A  
HETATM   16  C   UNL     1     -12.201  13.258  70.114  1.00  0.00    -0.306 A  
HETATM   17  C   UNL     1     -12.274  11.897  69.806  1.00  0.00    -0.241 A  
HETATM   18  N   UNL     1     -12.657  13.765  71.263  1.00  0.00    -0.358 NA 
HETATM   19  C   UNL     1     -13.193  12.902  72.132  1.00  0.00    -0.448 A  
HETATM   20  C   UNL     1     -12.790  11.066  70.830  1.00  0.00    -0.301 A  
BRANCH  12  21
HETATM   21  O   UNL     1     -10.377  14.628  67.293  1.00  0.00    -0.253 OA 
BRANCH  21  22
HETATM   22  C   UNL     1     -10.979  15.760  66.675  1.00  0.00    -0.179 C  
HETATM   23  C   UNL     1     -10.470  17.909  65.723  1.00  0.00    -0.196 C  
HETATM   24  C   UNL     1     -10.640  15.679  65.189  1.00  0.00    -0.424 C  
HETATM   25  O   UNL     1     -10.790  16.997  64.667  1.00  0.00    -0.855 OA 
HETATM   26  C   UNL     1     -10.423  17.125  67.030  1.00  0.00    -0.282 C  
ENDBRANCH  21  22
ENDBRANCH  12  21
BRANCH  20  27
HETATM   27  N   UNL     1     -12.808   9.655  70.644  1.00  0.00    -0.538 NA 
HETATM   28  H   UNL     1     -13.464   9.309  69.943  1.00  0.00     0.000 HD 
BRANCH  27  29
HETATM   29  C   UNL     1     -12.035   8.668  71.304  1.00  0.00    -0.293 A  
HETATM   30  C   UNL     1     -10.784   8.937  71.882  1.00  0.00    -0.426 A  
HETATM   31  C   UNL     1     -10.082   7.942  72.567  1.00  0.00    -0.261 A  
HETATM   32 CL   UNL     1      -8.526   8.305  73.219  1.00  0.00    -0.285 Cl 
HETATM   33  C   UNL     1     -10.632   6.674  72.710  1.00  0.00    -0.232 A  
HETATM   34  C   UNL     1     -11.888   6.396  72.194  1.00  0.00    -0.361 A  
HETATM   35  F   UNL     1      -9.971   5.710  73.365  1.00  0.00    -0.157 F  
HETATM   36  C   UNL     1     -12.589   7.389  71.503  1.00  0.00    -0.401 A  
ENDBRANCH  27  29
ENDBRANCH  20  27
ENDBRANCH   8  11
ENDBRANCH   6   7
ENDBRANCH   4   5
ENDBRANCH   2   4
TORSDOF 8
ENDMDL
MODEL       17
REMARK 921   NORMALIZED FREE ENERGY PREDICTED BY IDOCK:   -6.81 KCAL/MOL
REMARK 922        TOTAL FREE ENERGY PREDICTED BY IDOCK:  -11.53 KCAL/MOL
REMARK 923 INTER-LIGAND FREE ENERGY PREDICTED BY IDOCK:  -10.16 KCAL/MOL
REMARK 924 INTRA-LIGAND FREE ENERGY PREDICTED BY IDOCK:   -1.38 KCAL/MOL
REMARK 927      BINDING AFFINITY PREDICTED BY RF-SCORE:    0.00 PKD
ROOT
HETATM    1  C   UNL     1     -10.683   5.547  69.828  1.00  0.00    -0.285 C  
HETATM    2  N   UNL     1     -10.387   5.266  71.238  1.00  0.00    -0.225 NA 
HETATM    3  C   UNL     1      -8.932   5.108  71.391  1.00  0.00    -0.137 C  
ENDROOT
BRANCH   2   4
HETATM    4  C   UNL     1     -10.847   6.366  72.103  1.00  0.00    -0.237 C  
BRANCH   4   5
HETATM    5  C   UNL     1     -11.330   7.609  71.411  1.00  0.00    -0.285 C  
HETATM    6  C   UNL     1     -11.803   8.735  71.973  1.00  0.00    -0.442 C  
BRANCH   6   7
HETATM    7  C   UNL     1     -12.246   9.851  71.094  1.00  0.00    -0.373 C  
HETATM    8  N   UNL     1     -11.197  10.563  70.534  1.00  0.00    -0.402 N  
HETATM    9  O   UNL     1     -13.437  10.029  70.856  1.00  0.00    -0.352 OA 
HETATM   10  H   UNL     1     -10.243  10.355  70.831  1.00  0.00     0.000 HD 
BRANCH   8  11
HETATM   11  C   UNL     1     -11.406  11.569  69.562  1.00  0.00    -0.274 A  
HETATM   12  C   UNL     1     -11.885  12.839  69.889  1.00  0.00    -0.301 A  
HETATM   13  N   UNL     1     -11.278  13.024  64.899  1.00  0.00    -0.294 NA 
HETATM   14  C   UNL     1     -12.003  13.803  68.875  1.00  0.00    -0.394 A  
HETATM   15  C   UNL     1     -11.176  11.277  68.204  1.00  0.00    -0.351 A  
HETATM   16  C   UNL     1     -11.710  13.543  67.540  1.00  0.00    -0.367 A  
HETATM   17  C   UNL     1     -11.344  12.244  67.178  1.00  0.00    -0.398 A  
HETATM   18  N   UNL     1     -11.821  14.537  66.653  1.00  0.00    -0.389 NA 
HETATM   19  C   UNL     1     -11.571  14.235  65.375  1.00  0.00    -0.346 A  
HETATM   20  C   UNL     1     -11.178  12.021  65.790  1.00  0.00    -0.334 A  
BRANCH  12  21
HETATM   21  O   UNL     1     -12.417  13.227  71.084  1.00  0.00    -0.363 OA 
BRANCH  21  22
HETATM   22  C   UNL     1     -12.758  14.584  71.347  1.00  0.00    -0.337 C  
HETATM   23  C   UNL     1     -13.566  16.044  73.078  1.00  0.00    -0.453 C  
HETATM   24  C   UNL     1     -11.633  15.160  72.202  1.00  0.00    -0.400 C  
HETATM   25  O   UNL     1     -12.173  16.299  72.868  1.00  0.00    -0.493 OA 
HETATM   26  C   UNL     1     -13.962  14.839  72.233  1.00  0.00    -0.598 C  
ENDBRANCH  21  22
ENDBRANCH  12  21
BRANCH  20  27
HETATM   27  N   UNL     1     -10.904  10.705  65.320  1.00  0.00    -0.024 NA 
HETATM   28  H   UNL     1     -11.666  10.245  64.820  1.00  0.00     0.000 HD 
BRANCH  27  29
HETATM   29  C   UNL     1      -9.713   9.950  65.457  1.00  0.00    -0.302 A  
HETATM   30  C   UNL     1      -8.456  10.428  65.054  1.00  0.00    -0.180 A  
HETATM   31  C   UNL     1      -7.302   9.666  65.257  1.00  0.00    -0.113 A  
HETATM   32 CL   UNL     1      -5.783  10.272  64.702  1.00  0.00    -0.121 Cl 
HETATM   33  C   UNL     1      -7.383   8.431  65.889  1.00  0.00    -0.073 A  
HETATM   34  C   UNL     1      -8.605   7.959  66.343  1.00  0.00    -0.156 A  
HETATM   35  F   UNL     1      -6.285   7.691  66.091  1.00  0.00    -0.038 F  
HETATM   36  C   UNL     1      -9.762   8.718  66.136  1.00  0.00    -0.320 A  
ENDBRANCH  27  29
ENDBRANCH  20  27
ENDBRANCH   8  11
ENDBRANCH   6   7
ENDBRANCH   4   5
ENDBRANCH   2   4
TORSDOF 8
ENDMDL
MODEL       18
REMARK 921   NORMALIZED FREE ENERGY PREDICTED BY IDOCK:   -6.76 KCAL/MOL
REMARK 922        TOTAL FREE ENERGY PREDICTED BY IDOCK:  -11.47 KCAL/MOL
REMARK 923 INTER-LIGAND FREE ENERGY PREDICTED BY IDOCK:   -9.91 KCAL/MOL
REMARK 924 INTRA-LIGAND FREE ENERGY PREDICTED BY IDOCK:   -1.56 KCAL/MOL
REMARK 927      BINDING AFFINITY PREDICTED BY RF-SCORE:    0.00 PKD
ROOT
HETATM    1  C   UNL     1      -8.918  18.625  66.813  1.00  0.00    -0.297 C  
HETATM    2  N   UNL     1      -8.949  17.510  65.857  1.00  0.00    -0.520 NA 
HETATM    3  C   UNL     1      -8.127  16.412  66.390  1.00  0.00    -0.322 C  
ENDROOT
BRANCH   2   4
HETATM    4  C   UNL     1     -10.326  17.029  65.653  1.00  0.00    -0.209 C  
BRANCH   4   5
HETATM    5  C   UNL     1     -10.687  15.724  66.307  1.00  0.00    -0.282 C  
HETATM    6  C   UNL     1     -11.326  14.676  65.758  1.00  0.00    -0.340 C  
BRANCH   6   7
HETATM    7  C   UNL     1     -11.598  13.477  66.595  1.00  0.00    -0.363 C  
HETATM    8  N   UNL     1     -10.941  13.494  67.815  1.00  0.00    -0.261 N  
HETATM    9  O   UNL     1     -12.400  12.623  66.228  1.00  0.00    -0.550 OA 
HETATM   10  H   UNL     1     -10.266  14.235  68.003  1.00  0.00     0.000 HD 
BRANCH   8  11
HETATM   11  C   UNL     1     -11.178  12.516  68.810  1.00  0.00    -0.273 A  
HETATM   12  C   UNL     1     -12.114  12.696  69.829  1.00  0.00    -0.233 A  
HETATM   13  N   UNL     1     -10.173   8.149  70.757  1.00  0.00    -0.193 NA 
HETATM   14  C   UNL     1     -12.337  11.651  70.740  1.00  0.00    -0.454 A  
HETATM   15  C   UNL     1     -10.411  11.336  68.814  1.00  0.00    -0.232 A  
HETATM   16  C   UNL     1     -11.632  10.451  70.709  1.00  0.00    -0.358 A  
HETATM   17  C   UNL     1     -10.609  10.303  69.769  1.00  0.00    -0.312 A  
HETATM   18  N   UNL     1     -11.940   9.502  71.598  1.00  0.00    -0.384 NA 
HETATM   19  C   UNL     1     -11.212   8.381  71.560  1.00  0.00    -0.267 A  
HETATM   20  C   UNL     1      -9.855   9.109  69.871  1.00  0.00    -0.190 A  
BRANCH  12  21
HETATM   21  O   UNL     1     -12.751  13.857  70.156  1.00  0.00    -0.275 OA 
BRANCH  21  22
HETATM   22  C   UNL     1     -13.028  14.205  71.508  1.00  0.00    -0.344 C  
HETATM   23  C   UNL     1     -12.856  16.014  73.084  1.00  0.00    -0.519 C  
HETATM   24  C   UNL     1     -14.246  15.125  71.483  1.00  0.00    -0.549 C  
HETATM   25  O   UNL     1     -14.227  15.855  72.707  1.00  0.00    -0.523 OA 
HETATM   26  C   UNL     1     -12.015  15.078  72.223  1.00  0.00    -0.447 C  
ENDBRANCH  21  22
ENDBRANCH  12  21
BRANCH  20  27
HETATM   27  N   UNL     1      -8.729   8.917  69.020  1.00  0.00    -0.134 NA 
HETATM   28  H   UNL     1      -7.847   9.304  69.358  1.00  0.00     0.000 HD 
BRANCH  27  29
HETATM   29  C   UNL     1      -8.673   8.260  67.766  1.00  0.00    -0.134 A  
HETATM   30  C   UNL     1      -8.620   8.948  66.544  1.00  0.00    -0.133 A  
HETATM   31  C   UNL     1      -8.514   8.255  65.335  1.00  0.00    -0.172 A  
HETATM   32 CL   UNL     1      -8.501   9.141  63.853  1.00  0.00    -0.189 Cl 
HETATM   33  C   UNL     1      -8.431   6.869  65.331  1.00  0.00    -0.084 A  
HETATM   34  C   UNL     1      -8.429   6.167  66.526  1.00  0.00    -0.119 A  
HETATM   35  F   UNL     1      -8.329   6.191  64.180  1.00  0.00    -0.126 F  
HETATM   36  C   UNL     1      -8.540   6.858  67.737  1.00  0.00    -0.122 A  
ENDBRANCH  27  29
ENDBRANCH  20  27
ENDBRANCH   8  11
ENDBRANCH   6   7
ENDBRANCH   4   5
ENDBRANCH   2   4
TORSDOF 8
ENDMDL
MODEL       19
REMARK 921   NORMALIZED FREE ENERGY PREDICTED BY IDOCK:   -6.75 KCAL/MOL
REMARK 922        TOTAL FREE ENERGY PREDICTED BY IDOCK:  -11.45 KCAL/MOL
REMARK 923 INTER-LIGAND FREE ENERGY PREDICTED BY IDOCK:  -10.15 KCAL/MOL
REMARK 924 INTRA-LIGAND FREE ENERGY PREDICTED BY IDOCK:   -1.30 KCAL/MOL
REMARK 927      BINDING AFFINITY PREDICTED BY RF-SCORE:    0.00 PKD
ROOT
HETATM    1  C   UNL     1     -12.033  16.200  72.681  1.00  0.00    -0.551 C  
HETATM    2  N   UNL     1     -13.279  15.769  72.034  1.00  0.00    -0.454 NA 
HETATM    3  C   UNL     1     -13.038  15.643  70.588  1.00  0.00    -0.204 C  
ENDROOT
BRANCH   2   4
HETATM    4  C   UNL     1     -13.726  14.470  72.565  1.00  0.00    -0.476 C  
BRANCH   4   5
HETATM    5  C   UNL     1     -13.429  13.261  71.724  1.00  0.00    -0.438 C  
HETATM    6  C   UNL     1     -13.185  12.006  72.141  1.00  0.00    -0.400 C  
BRANCH   6   7
HETATM    7  C   UNL     1     -12.897  10.952  71.131  1.00  0.00    -0.409 C  
HETATM    8  N   UNL     1     -11.561  10.887  70.766  1.00  0.00    -0.386 N  
HETATM    9  O   UNL     1     -13.779  10.186  70.753  1.00  0.00    -0.131 OA 
HETATM   10  H   UNL     1     -10.918  11.599  71.113  1.00  0.00     0.000 HD 
BRANCH   8  11
HETATM   11  C   UNL     1     -11.061   9.863  69.927  1.00  0.00    -0.275 A  
HETATM   12  C   UNL     1     -11.081   8.517  70.294  1.00  0.00    -0.214 A  
HETATM   13  N   UNL     1      -8.953   8.497  65.736  1.00  0.00    -0.190 NA 
HETATM   14  C   UNL     1     -10.625   7.555  69.378  1.00  0.00    -0.225 A  
HETATM   15  C   UNL     1     -10.470  10.206  68.696  1.00  0.00    -0.225 A  
HETATM   16  C   UNL     1     -10.105   7.881  68.129  1.00  0.00    -0.191 A  
HETATM   17  C   UNL     1      -9.967   9.230  67.795  1.00  0.00    -0.235 A  
HETATM   18  N   UNL     1      -9.728   6.892  67.312  1.00  0.00    -0.139 NA 
HETATM   19  C   UNL     1      -9.195   7.248  66.139  1.00  0.00    -0.089 A  
HETATM   20  C   UNL     1      -9.320   9.492  66.563  1.00  0.00    -0.171 A  
BRANCH  12  21
HETATM   21  O   UNL     1     -11.355   8.013  71.532  1.00  0.00    -0.248 OA 
BRANCH  21  22
HETATM   22  C   UNL     1     -10.470   7.109  72.185  1.00  0.00    -0.206 C  
HETATM   23  C   UNL     1      -9.913   6.216  74.347  1.00  0.00    -0.311 C  
HETATM   24  C   UNL     1     -11.290   5.872  72.540  1.00  0.00    -0.304 C  
HETATM   25  O   UNL     1     -10.591   5.209  73.589  1.00  0.00    -0.226 OA 
HETATM   26  C   UNL     1      -9.944   7.514  73.549  1.00  0.00    -0.371 C  
ENDBRANCH  21  22
ENDBRANCH  12  21
BRANCH  20  27
HETATM   27  N   UNL     1      -9.046  10.838  66.187  1.00  0.00    -0.169 NA 
HETATM   28  H   UNL     1      -8.077  11.139  66.294  1.00  0.00     0.000 HD 
BRANCH  27  29
HETATM   29  C   UNL     1      -9.943  11.813  65.685  1.00  0.00    -0.240 A  
HETATM   30  C   UNL     1      -9.961  13.141  66.140  1.00  0.00    -0.291 A  
HETATM   31  C   UNL     1     -10.830  14.079  65.577  1.00  0.00    -0.309 A  
HETATM   32 CL   UNL     1     -10.853  15.689  66.202  1.00  0.00    -0.298 Cl 
HETATM   33  C   UNL     1     -11.671  13.713  64.534  1.00  0.00    -0.400 A  
HETATM   34  C   UNL     1     -11.637  12.422  64.031  1.00  0.00    -0.488 A  
HETATM   35  F   UNL     1     -12.509  14.602  63.984  1.00  0.00    -0.510 F  
HETATM   36  C   UNL     1     -10.772  11.480  64.596  1.00  0.00    -0.379 A  
ENDBRANCH  27  29
ENDBRANCH  20  27
ENDBRANCH   8  11
ENDBRANCH   6   7
ENDBRANCH   4   5
ENDBRANCH   2   4
TORSDOF 8
ENDMDL
MODEL       20
REMARK 921   NORMALIZED FREE ENERGY PREDICTED BY IDOCK:   -6.73 KCAL/MOL
REMARK 922        TOTAL FREE ENERGY PREDICTED BY IDOCK:  -11.42 KCAL/MOL
REMARK 923 INTER-LIGAND FREE ENERGY PREDICTED BY IDOCK:  -10.22 KCAL/MOL
REMARK 924 INTRA-LIGAND FREE ENERGY PREDICTED BY IDOCK:   -1.20 KCAL/MOL
REMARK 927      BINDING AFFINITY PREDICTED BY RF-SCORE:    0.00 PKD
ROOT
HETATM    1  C   UNL     1     -13.018  15.214  73.439  1.00  0.00    -0.518 C  
HETATM    2  N   UNL     1     -14.021  14.404  72.737  1.00  0.00    -0.556 NA 
HETATM    3  C   UNL     1     -14.281  15.013  71.423  1.00  0.00    -0.493 C  
ENDROOT
BRANCH   2   4
HETATM    4  C   UNL     1     -13.542  13.024  72.544  1.00  0.00    -0.434 C  
BRANCH   4   5
HETATM    5  C   UNL     1     -12.693  12.770  71.330  1.00  0.00    -0.353 C  
HETATM    6  C   UNL     1     -12.346  11.583  70.800  1.00  0.00    -0.472 C  
BRANCH   6   7
HETATM    7  C   UNL     1     -11.478  11.558  69.593  1.00  0.00    -0.301 C  
HETATM    8  N   UNL     1     -11.604  10.397  68.846  1.00  0.00    -0.486 N  
HETATM    9  O   UNL     1     -10.796  12.532  69.289  1.00  0.00    -0.137 OA 
HETATM   10  H   UNL     1     -12.171   9.632  69.212  1.00  0.00     0.000 HD 
BRANCH   8  11
HETATM   11  C   UNL     1     -10.970  10.239  67.591  1.00  0.00    -0.294 A  
HETATM   12  C   UNL     1     -10.145   9.151  67.300  1.00  0.00    -0.233 A  
HETATM   13  N   UNL     1     -10.088  11.876  63.072  1.00  0.00    -0.296 NA 
HETATM   14  C   UNL     1      -9.606   9.032  66.009  1.00  0.00    -0.342 A  
HETATM   15  C   UNL     1     -11.126  11.233  66.607  1.00  0.00    -0.299 A  
HETATM   16  C   UNL     1      -9.814   9.976  65.008  1.00  0.00    -0.304 A  
HETATM   17  C   UNL     1     -10.538  11.130  65.319  1.00  0.00    -0.303 A  
HETATM   18  N   UNL     1      -9.286   9.757  63.800  1.00  0.00    -0.209 NA 
HETATM   19  C   UNL     1      -9.474  10.708  62.879  1.00  0.00    -0.343 A  
HETATM   20  C   UNL     1     -10.608  12.102  64.292  1.00  0.00    -0.345 A  
BRANCH  12  21
HETATM   21  O   UNL     1      -9.656   8.238  68.188  1.00  0.00    -0.146 OA 
BRANCH  21  22
HETATM   22  C   UNL     1      -8.507   8.508  68.984  1.00  0.00    -0.126 C  
HETATM   23  C   UNL     1      -7.367  10.277  70.147  1.00  0.00    -0.103 C  
HETATM   24  C   UNL     1      -8.999   8.681  70.418  1.00  0.00    -0.158 C  
HETATM   25  O   UNL     1      -7.991   9.417  71.106  1.00  0.00    -0.322 OA 
HETATM   26  C   UNL     1      -7.797   9.827  68.756  1.00  0.00    -0.082 C  
ENDBRANCH  21  22
ENDBRANCH  12  21
BRANCH  20  27
HETATM   27  N   UNL     1     -11.240  13.351  64.553  1.00  0.00    -0.356 NA 
HETATM   28  H   UNL     1     -12.054  13.565  63.976  1.00  0.00     0.000 HD 
BRANCH  27  29
HETATM   29  C   UNL     1     -10.885  14.336  65.508  1.00  0.00    -0.322 A  
HETATM   30  C   UNL     1      -9.730  15.126  65.398  1.00  0.00    -0.239 A  
HETATM   31  C   UNL     1      -9.449  16.120  66.339  1.00  0.00    -0.295 A  
HETATM   32 CL   UNL     1      -7.992  17.034  66.192  1.00  0.00    -0.341 Cl 
HETATM   33  C   UNL     1     -10.332  16.359  67.385  1.00  0.00    -0.295 A  
HETATM   34  C   UNL     1     -11.506  15.629  67.488  1.00  0.00    -0.121 A  
HETATM   35  F   UNL     1     -10.077  17.309  68.295  1.00  0.00    -0.259 F  
HETATM   36  C   UNL     1     -11.785  14.629  66.550  1.00  0.00    -0.335 A  
ENDBRANCH  27  29
ENDBRANCH  20  27
ENDBRANCH   8  11
ENDBRANCH   6   7
ENDBRANCH   4   5
ENDBRANCH   2   4
TORSDOF 8
ENDMDL
MODEL       21
REMARK 921   NORMALIZED FREE ENERGY PREDICTED BY IDOCK:   -6.72 KCAL/MOL
REMARK 922        TOTAL FREE ENERGY PREDICTED BY IDOCK:  -11.40 KCAL/MOL
REMARK 923 INTER-LIGAND FREE ENERGY PREDICTED BY IDOCK:  -10.56 KCAL/MOL
REMARK 924 INTRA-LIGAND FREE ENERGY PREDICTED BY IDOCK:   -0.85 KCAL/MOL
REMARK 927      BINDING AFFINITY PREDICTED BY RF-SCORE:    0.00 PKD
ROOT
HETATM    1  C   UNL     1     -13.792  13.486  72.500  1.00  0.00    -0.519 C  
HETATM    2  N   UNL     1     -13.799  14.953  72.438  1.00  0.00    -0.460 NA 
HETATM    3  C   UNL     1     -12.830  15.470  73.416  1.00  0.00    -0.540 C  
ENDROOT
BRANCH   2   4
HETATM    4  C   UNL     1     -13.426  15.425  71.093  1.00  0.00    -0.493 C  
BRANCH   4   5
HETATM    5  C   UNL     1     -12.487  14.553  70.310  1.00  0.00    -0.405 C  
HETATM    6  C   UNL     1     -11.665  14.916  69.309  1.00  0.00    -0.344 C  
BRANCH   6   7
HETATM    7  C   UNL     1     -10.822  13.880  68.654  1.00  0.00    -0.262 C  
HETATM    8  N   UNL     1     -11.555  12.876  68.041  1.00  0.00    -0.320 N  
HETATM    9  O   UNL     1      -9.600  13.995  68.618  1.00  0.00    -0.213 OA 
HETATM   10  H   UNL     1     -12.568  12.857  68.167  1.00  0.00     0.000 HD 
BRANCH   8  11
HETATM   11  C   UNL     1     -10.945  11.877  67.247  1.00  0.00    -0.268 A  
HETATM   12  C   UNL     1     -11.000  11.892  65.853  1.00  0.00    -0.307 A  
HETATM   13  N   UNL     1      -8.350   7.750  66.916  1.00  0.00    -0.122 NA 
HETATM   14  C   UNL     1     -10.312  10.900  65.134  1.00  0.00    -0.344 A  
HETATM   15  C   UNL     1     -10.300  10.795  67.874  1.00  0.00    -0.216 A  
HETATM   16  C   UNL     1      -9.612   9.865  65.747  1.00  0.00    -0.250 A  
HETATM   17  C   UNL     1      -9.647   9.768  67.140  1.00  0.00    -0.211 A  
HETATM   18  N   UNL     1      -8.961   8.987  64.978  1.00  0.00    -0.184 NA 
HETATM   19  C   UNL     1      -8.335   7.985  65.603  1.00  0.00    -0.141 A  
HETATM   20  C   UNL     1      -9.016   8.626  67.689  1.00  0.00    -0.135 A  
BRANCH  12  21
HETATM   21  O   UNL     1     -11.791  12.686  65.075  1.00  0.00    -0.353 OA 
BRANCH  21  22
HETATM   22  C   UNL     1     -11.869  14.093  65.277  1.00  0.00    -0.367 C  
HETATM   23  C   UNL     1     -10.875  16.175  64.597  1.00  0.00    -0.142 C  
HETATM   24  C   UNL     1     -12.526  14.678  64.030  1.00  0.00    -0.018 C  
HETATM   25  O   UNL     1     -12.167  16.057  63.993  1.00  0.00    -0.792 OA 
HETATM   26  C   UNL     1     -10.565  14.865  65.312  1.00  0.00    -0.421 C  
ENDBRANCH  21  22
ENDBRANCH  12  21
BRANCH  20  27
HETATM   27  N   UNL     1      -9.089   8.392  69.092  1.00  0.00    -0.147 NA 
HETATM   28  H   UNL     1      -8.212   8.488  69.604  1.00  0.00     0.000 HD 
BRANCH  27  29
HETATM   29  C   UNL     1     -10.221   8.044  69.870  1.00  0.00    -0.204 A  
HETATM   30  C   UNL     1     -11.032   8.995  70.508  1.00  0.00    -0.295 A  
HETATM   31  C   UNL     1     -12.168   8.605  71.223  1.00  0.00    -0.281 A  
HETATM   32 CL   UNL     1     -13.108   9.805  72.033  1.00  0.00    -0.531 Cl 
HETATM   33  C   UNL     1     -12.525   7.264  71.286  1.00  0.00    -0.366 A  
HETATM   34  C   UNL     1     -11.771   6.309  70.621  1.00  0.00    -0.285 A  
HETATM   35  F   UNL     1     -13.612   6.875  71.966  1.00  0.00    -0.354 F  
HETATM   36  C   UNL     1     -10.631   6.697  69.910  1.00  0.00    -0.268 A  
ENDBRANCH  27  29
ENDBRANCH  20  27
ENDBRANCH   8  11
ENDBRANCH   6   7
ENDBRANCH   4   5
ENDBRANCH   2   4
TORSDOF 8
ENDMDL
MODEL       22
REMARK 921   NORMALIZED FREE ENERGY PREDICTED BY IDOCK:   -6.71 KCAL/MOL
REMARK 922        TOTAL FREE ENERGY PREDICTED BY IDOCK:  -11.38 KCAL/MOL
REMARK 923 INTER-LIGAND FREE ENERGY PREDICTED BY IDOCK:  -10.81 KCAL/MOL
REMARK 924 INTRA-LIGAND FREE ENERGY PREDICTED BY IDOCK:   -0.58 KCAL/MOL
REMARK 927      BINDING AFFINITY PREDICTED BY RF-SCORE:    0.00 PKD
ROOT
HETATM    1  C   UNL     1      -9.808   3.899  65.301  1.00  0.00    -0.178 C  
HETATM    2  N   UNL     1      -9.973   4.952  66.311  1.00  0.00    -0.209 NA 
HETATM    3  C   UNL     1      -9.659   4.389  67.633  1.00  0.00    -0.166 C  
ENDROOT
BRANCH   2   4
HETATM    4  C   UNL     1      -9.072   6.086  66.042  1.00  0.00    -0.129 C  
BRANCH   4   5
HETATM    5  C   UNL     1      -9.263   7.313  66.888  1.00  0.00    -0.180 C  
HETATM    6  C   UNL     1     -10.275   8.198  66.841  1.00  0.00    -0.387 C  
BRANCH   6   7
HETATM    7  C   UNL     1     -10.261   9.361  67.768  1.00  0.00    -0.222 C  
HETATM    8  N   UNL     1     -11.349  10.205  67.612  1.00  0.00    -0.398 N  
HETATM    9  O   UNL     1      -9.390   9.471  68.625  1.00  0.00    -0.140 OA 
HETATM   10  H   UNL     1     -11.996  10.041  66.840  1.00  0.00     0.000 HD 
BRANCH   8  11
HETATM   11  C   UNL     1     -11.593  11.288  68.490  1.00  0.00    -0.315 A  
HETATM   12  C   UNL     1     -11.130  12.579  68.232  1.00  0.00    -0.257 A  
HETATM   13  N   UNL     1     -13.539  13.010  72.627  1.00  0.00    -0.566 NA 
HETATM   14  C   UNL     1     -11.469  13.613  69.121  1.00  0.00    -0.346 A  
HETATM   15  C   UNL     1     -12.281  11.058  69.696  1.00  0.00    -0.370 A  
HETATM   16  C   UNL     1     -12.210  13.407  70.280  1.00  0.00    -0.335 A  
HETATM   17  C   UNL     1     -12.579  12.101  70.613  1.00  0.00    -0.255 A  
HETATM   18  N   UNL     1     -12.512  14.460  71.045  1.00  0.00    -0.330 NA 
HETATM   19  C   UNL     1     -13.189  14.214  72.171  1.00  0.00    -0.420 A  
HETATM   20  C   UNL     1     -13.224  11.948  71.864  1.00  0.00    -0.362 A  
BRANCH  12  21
HETATM   21  O   UNL     1     -10.229  12.948  67.276  1.00  0.00    -0.231 OA 
BRANCH  21  22
HETATM   22  C   UNL     1     -10.631  13.253  65.946  1.00  0.00    -0.281 C  
HETATM   23  C   UNL     1     -12.244  14.514  64.684  1.00  0.00    -0.460 C  
HETATM   24  C   UNL     1     -10.173  14.682  65.667  1.00  0.00    -0.359 C  
HETATM   25  O   UNL     1     -10.971  15.159  64.586  1.00  0.00    -0.377 OA 
HETATM   26  C   UNL     1     -12.119  13.364  65.676  1.00  0.00    -0.476 C  
ENDBRANCH  21  22
ENDBRANCH  12  21
BRANCH  20  27
HETATM   27  N   UNL     1     -13.546  10.642  72.331  1.00  0.00    -0.453 NA 
HETATM   28  H   UNL     1     -14.307  10.589  73.010  1.00  0.00     0.000 HD 
BRANCH  27  29
HETATM   29  C   UNL     1     -12.948   9.407  71.978  1.00  0.00    -0.423 A  
HETATM   30  C   UNL     1     -11.566   9.176  72.059  1.00  0.00    -0.371 A  
HETATM   31  C   UNL     1     -11.029   7.924  71.747  1.00  0.00    -0.243 A  
HETATM   32 CL   UNL     1      -9.319   7.700  71.813  1.00  0.00    -0.167 Cl 
HETATM   33  C   UNL     1     -11.867   6.878  71.380  1.00  0.00    -0.330 A  
HETATM   34  C   UNL     1     -13.240   7.064  71.343  1.00  0.00    -0.352 A  
HETATM   35  F   UNL     1     -11.367   5.672  71.080  1.00  0.00    -0.311 F  
HETATM   36  C   UNL     1     -13.778   8.319  71.649  1.00  0.00    -0.404 A  
ENDBRANCH  27  29
ENDBRANCH  20  27
ENDBRANCH   8  11
ENDBRANCH   6   7
ENDBRANCH   4   5
ENDBRANCH   2   4
TORSDOF 8
ENDMDL
MODEL       23
REMARK 921   NORMALIZED FREE ENERGY PREDICTED BY IDOCK:   -6.67 KCAL/MOL
REMARK 922        TOTAL FREE ENERGY PREDICTED BY IDOCK:  -11.33 KCAL/MOL
REMARK 923 INTER-LIGAND FREE ENERGY PREDICTED BY IDOCK:   -9.94 KCAL/MOL
REMARK 924 INTRA-LIGAND FREE ENERGY PREDICTED BY IDOCK:   -1.39 KCAL/MOL
REMARK 927      BINDING AFFINITY PREDICTED BY RF-SCORE:    0.00 PKD
ROOT
HETATM    1  C   UNL     1     -10.544   5.284  73.063  1.00  0.00    -0.234 C  
HETATM    2  N   UNL     1     -10.518   6.486  73.906  1.00  0.00    -0.327 NA 
HETATM    3  C   UNL     1      -9.119   6.906  74.083  1.00  0.00    -0.207 C  
ENDROOT
BRANCH   2   4
HETATM    4  C   UNL     1     -11.277   7.584  73.282  1.00  0.00    -0.149 C  
BRANCH   4   5
HETATM    5  C   UNL     1     -10.750   8.108  71.976  1.00  0.00    -0.343 C  
HETATM    6  C   UNL     1     -10.991   9.305  71.410  1.00  0.00    -0.429 C  
BRANCH   6   7
HETATM    7  C   UNL     1     -10.375   9.618  70.093  1.00  0.00    -0.266 C  
HETATM    8  N   UNL     1     -11.266   9.543  69.034  1.00  0.00    -0.446 N  
HETATM    9  O   UNL     1      -9.206   9.984  70.018  1.00  0.00    -0.208 OA 
HETATM   10  H   UNL     1     -12.208   9.190  69.204  1.00  0.00     0.000 HD 
BRANCH   8  11
HETATM   11  C   UNL     1     -10.911   9.940  67.723  1.00  0.00    -0.264 A  
HETATM   12  C   UNL     1     -10.050   9.189  66.921  1.00  0.00    -0.258 A  
HETATM   13  N   UNL     1     -11.242  13.144  64.049  1.00  0.00    -0.391 NA 
HETATM   14  C   UNL     1      -9.799   9.618  65.607  1.00  0.00    -0.369 A  
HETATM   15  C   UNL     1     -11.394  11.161  67.216  1.00  0.00    -0.302 A  
HETATM   16  C   UNL     1     -10.330  10.788  65.074  1.00  0.00    -0.287 A  
HETATM   17  C   UNL     1     -11.096  11.611  65.903  1.00  0.00    -0.320 A  
HETATM   18  N   UNL     1     -10.060  11.094  63.801  1.00  0.00    -0.326 NA 
HETATM   19  C   UNL     1     -10.555  12.247  63.340  1.00  0.00    -0.385 A  
HETATM   20  C   UNL     1     -11.503  12.842  65.333  1.00  0.00    -0.324 A  
BRANCH  12  21
HETATM   21  O   UNL     1      -9.275   8.139  67.316  1.00  0.00    -0.134 OA 
BRANCH  21  22
HETATM   22  C   UNL     1      -9.279   6.899  66.616  1.00  0.00    -0.157 C  
HETATM   23  C   UNL     1      -9.122   4.522  66.949  1.00  0.00    -0.124 C  
HETATM   24  C   UNL     1     -10.635   6.252  66.880  1.00  0.00    -0.305 C  
HETATM   25  O   UNL     1     -10.476   4.858  66.626  1.00  0.00    -0.262 OA 
HETATM   26  C   UNL     1      -8.337   5.818  67.110  1.00  0.00    -0.104 C  
ENDBRANCH  21  22
ENDBRANCH  12  21
BRANCH  20  27
HETATM   27  N   UNL     1     -12.201  13.788  66.137  1.00  0.00    -0.448 NA 
HETATM   28  H   UNL     1     -13.218  13.703  66.138  1.00  0.00     0.000 HD 
BRANCH  27  29
HETATM   29  C   UNL     1     -11.669  14.832  66.934  1.00  0.00    -0.302 A  
HETATM   30  C   UNL     1     -11.915  14.942  68.311  1.00  0.00    -0.245 A  
HETATM   31  C   UNL     1     -11.325  15.961  69.065  1.00  0.00    -0.371 A  
HETATM   32 CL   UNL     1     -11.695  16.088  70.746  1.00  0.00    -0.420 Cl 
HETATM   33  C   UNL     1     -10.460  16.864  68.460  1.00  0.00    -0.361 A  
HETATM   34  C   UNL     1     -10.160  16.747  67.112  1.00  0.00    -0.282 A  
HETATM   35  F   UNL     1      -9.887  17.845  69.169  1.00  0.00    -0.311 F  
HETATM   36  C   UNL     1     -10.753  15.731  66.355  1.00  0.00    -0.277 A  
ENDBRANCH  27  29
ENDBRANCH  20  27
ENDBRANCH   8  11
ENDBRANCH   6   7
ENDBRANCH   4   5
ENDBRANCH   2   4
TORSDOF 8
ENDMDL
MODEL       24
REMARK 921   NORMALIZED FREE ENERGY PREDICTED BY IDOCK:   -6.67 KCAL/MOL
REMARK 922        TOTAL FREE ENERGY PREDICTED BY IDOCK:  -11.33 KCAL/MOL
REMARK 923 INTER-LIGAND FREE ENERGY PREDICTED BY IDOCK:   -9.81 KCAL/MOL
REMARK 924 INTRA-LIGAND FREE ENERGY PREDICTED BY IDOCK:   -1.52 KCAL/MOL
REMARK 927      BINDING AFFINITY PREDICTED BY RF-SCORE:    0.00 PKD
ROOT
HETATM    1  C   UNL     1      -9.562  17.923  66.513  1.00  0.00    -0.313 C  
HETATM    2  N   UNL     1      -9.434  18.462  67.873  1.00  0.00    -0.279 NA 
HETATM    3  C   UNL     1     -10.119  19.762  67.930  1.00  0.00    -0.430 C  
ENDROOT
BRANCH   2   4
HETATM    4  C   UNL     1     -10.040  17.552  68.859  1.00  0.00    -0.346 C  
BRANCH   4   5
HETATM    5  C   UNL     1     -10.321  16.150  68.398  1.00  0.00    -0.257 C  
HETATM    6  C   UNL     1     -10.238  15.014  69.114  1.00  0.00    -0.241 C  
BRANCH   6   7
HETATM    7  C   UNL     1     -10.549  13.718  68.452  1.00  0.00    -0.253 C  
HETATM    8  N   UNL     1      -9.436  13.090  67.916  1.00  0.00    -0.211 N  
HETATM    9  O   UNL     1     -11.686  13.256  68.480  1.00  0.00    -0.310 OA 
HETATM   10  H   UNL     1      -8.543  13.583  67.914  1.00  0.00     0.000 HD 
BRANCH   8  11
HETATM   11  C   UNL     1      -9.499  11.786  67.370  1.00  0.00    -0.173 A  
HETATM   12  C   UNL     1      -9.613  11.554  65.998  1.00  0.00    -0.228 A  
HETATM   13  N   UNL     1      -9.540   6.942  68.006  1.00  0.00    -0.123 NA 
HETATM   14  C   UNL     1      -9.604  10.230  65.530  1.00  0.00    -0.299 A  
HETATM   15  C   UNL     1      -9.501  10.675  68.233  1.00  0.00    -0.161 A  
HETATM   16  C   UNL     1      -9.534   9.125  66.373  1.00  0.00    -0.227 A  
HETATM   17  C   UNL     1      -9.541   9.338  67.754  1.00  0.00    -0.167 A  
HETATM   18  N   UNL     1      -9.497   7.904  65.831  1.00  0.00    -0.015 NA 
HETATM   19  C   UNL     1      -9.472   6.869  66.676  1.00  0.00    -0.166 A  
HETATM   20  C   UNL     1      -9.590   8.170  68.553  1.00  0.00    -0.148 A  
BRANCH  12  21
HETATM   21  O   UNL     1      -9.897  12.477  65.035  1.00  0.00    -0.204 OA 
BRANCH  21  22
HETATM   22  C   UNL     1     -11.187  13.066  64.917  1.00  0.00    -0.302 C  
HETATM   23  C   UNL     1     -12.333  14.984  64.028  1.00  0.00    -0.023 C  
HETATM   24  C   UNL     1     -11.629  12.868  63.470  1.00  0.00    -0.468 C  
HETATM   25  O   UNL     1     -12.636  13.845  63.217  1.00  0.00    -0.824 OA 
HETATM   26  C   UNL     1     -11.279  14.574  65.049  1.00  0.00    -0.384 C  
ENDBRANCH  21  22
ENDBRANCH  12  21
BRANCH  20  27
HETATM   27  N   UNL     1      -9.701   8.293  69.967  1.00  0.00    -0.175 NA 
HETATM   28  H   UNL     1      -8.829   8.200  70.489  1.00  0.00     0.000 HD 
BRANCH  27  29
HETATM   29  C   UNL     1     -10.863   8.527  70.743  1.00  0.00    -0.231 A  
HETATM   30  C   UNL     1     -11.448   9.796  70.879  1.00  0.00    -0.447 A  
HETATM   31  C   UNL     1     -12.624   9.967  71.615  1.00  0.00    -0.427 A  
HETATM   32 CL   UNL     1     -13.281  11.553  71.796  1.00  0.00    -0.535 Cl 
HETATM   33  C   UNL     1     -13.247   8.872  72.200  1.00  0.00    -0.429 A  
HETATM   34  C   UNL     1     -12.718   7.601  72.038  1.00  0.00    -0.261 A  
HETATM   35  F   UNL     1     -14.374   9.021  72.907  1.00  0.00    -0.446 F  
HETATM   36  C   UNL     1     -11.539   7.428  71.307  1.00  0.00    -0.306 A  
ENDBRANCH  27  29
ENDBRANCH  20  27
ENDBRANCH   8  11
ENDBRANCH   6   7
ENDBRANCH   4   5
ENDBRANCH   2   4
TORSDOF 8
ENDMDL
MODEL       25
REMARK 921   NORMALIZED FREE ENERGY PREDICTED BY IDOCK:   -6.66 KCAL/MOL
REMARK 922        TOTAL FREE ENERGY PREDICTED BY IDOCK:  -11.31 KCAL/MOL
REMARK 923 INTER-LIGAND FREE ENERGY PREDICTED BY IDOCK:  -10.07 KCAL/MOL
REMARK 924 INTRA-LIGAND FREE ENERGY PREDICTED BY IDOCK:   -1.25 KCAL/MOL
REMARK 927      BINDING AFFINITY PREDICTED BY RF-SCORE:    0.00 PKD
ROOT
HETATM    1  C   UNL     1     -10.494   5.543  74.078  1.00  0.00    -0.279 C  
HETATM    2  N   UNL     1     -10.000   6.272  72.903  1.00  0.00    -0.168 NA 
HETATM    3  C   UNL     1     -10.640   5.716  71.701  1.00  0.00    -0.241 C  
ENDROOT
BRANCH   2   4
HETATM    4  C   UNL     1     -10.319   7.707  73.000  1.00  0.00    -0.335 C  
BRANCH   4   5
HETATM    5  C   UNL     1     -10.736   8.392  71.729  1.00  0.00    -0.355 C  
HETATM    6  C   UNL     1     -10.090   9.369  71.069  1.00  0.00    -0.353 C  
BRANCH   6   7
HETATM    7  C   UNL     1     -10.693   9.921  69.825  1.00  0.00    -0.267 C  
HETATM    8  N   UNL     1      -9.759  10.233  68.850  1.00  0.00    -0.179 N  
HETATM    9  O   UNL     1     -11.911   9.993  69.696  1.00  0.00    -0.064 OA 
HETATM   10  H   UNL     1      -8.766  10.170  69.078  1.00  0.00     0.000 HD 
BRANCH   8  11
HETATM   11  C   UNL     1     -10.138  10.637  67.548  1.00  0.00    -0.184 A  
HETATM   12  C   UNL     1      -9.784   9.915  66.407  1.00  0.00    -0.212 A  
HETATM   13  N   UNL     1     -12.414  13.808  64.608  1.00  0.00    -0.608 NA 
HETATM   14  C   UNL     1     -10.255  10.346  65.156  1.00  0.00    -0.326 A  
HETATM   15  C   UNL     1     -10.855  11.836  67.378  1.00  0.00    -0.299 A  
HETATM   16  C   UNL     1     -11.024  11.493  64.987  1.00  0.00    -0.241 A  
HETATM   17  C   UNL     1     -11.287  12.291  66.103  1.00  0.00    -0.402 A  
HETATM   18  N   UNL     1     -11.454  11.803  63.760  1.00  0.00    -0.418 NA 
HETATM   19  C   UNL     1     -12.155  12.934  63.634  1.00  0.00    -0.535 A  
HETATM   20  C   UNL     1     -11.970  13.503  65.841  1.00  0.00    -0.406 A  
BRANCH  12  21
HETATM   21  O   UNL     1      -8.879   8.897  66.334  1.00  0.00    -0.138 OA 
BRANCH  21  22
HETATM   22  C   UNL     1      -9.144   7.617  66.899  1.00  0.00    -0.144 C  
HETATM   23  C   UNL     1     -10.558   5.686  66.666  1.00  0.00    -0.295 C  
HETATM   24  C   UNL     1      -8.574   6.585  65.931  1.00  0.00    -0.149 C  
HETATM   25  O   UNL     1      -9.243   5.357  66.208  1.00  0.00    -0.143 OA 
HETATM   26  C   UNL     1     -10.593   7.178  66.978  1.00  0.00    -0.413 C  
ENDBRANCH  21  22
ENDBRANCH  12  21
BRANCH  20  27
HETATM   27  N   UNL     1     -12.192  14.426  66.902  1.00  0.00    -0.545 NA 
HETATM   28  H   UNL     1     -13.111  14.381  67.344  1.00  0.00     0.000 HD 
BRANCH  27  29
HETATM   29  C   UNL     1     -11.304  15.399  67.425  1.00  0.00    -0.243 A  
HETATM   30  C   UNL     1     -10.323  16.034  66.648  1.00  0.00    -0.299 A  
HETATM   31  C   UNL     1      -9.504  17.024  67.197  1.00  0.00    -0.242 A  
HETATM   32 CL   UNL     1      -8.278  17.744  66.218  1.00  0.00    -0.277 Cl 
HETATM   33  C   UNL     1      -9.672  17.414  68.520  1.00  0.00    -0.304 A  
HETATM   34  C   UNL     1     -10.668  16.840  69.295  1.00  0.00    -0.324 A  
HETATM   35  F   UNL     1      -8.896  18.362  69.060  1.00  0.00    -0.286 F  
HETATM   36  C   UNL     1     -11.485  15.844  68.749  1.00  0.00    -0.393 A  
ENDBRANCH  27  29
ENDBRANCH  20  27
ENDBRANCH   8  11
ENDBRANCH   6   7
ENDBRANCH   4   5
ENDBRANCH   2   4
TORSDOF 8
ENDMDL
MODEL       26
REMARK 921   NORMALIZED FREE ENERGY PREDICTED BY IDOCK:   -6.58 KCAL/MOL
REMARK 922        TOTAL FREE ENERGY PREDICTED BY IDOCK:  -11.19 KCAL/MOL
REMARK 923 INTER-LIGAND FREE ENERGY PREDICTED BY IDOCK:  -10.68 KCAL/MOL
REMARK 924 INTRA-LIGAND FREE ENERGY PREDICTED BY IDOCK:   -0.51 KCAL/MOL
REMARK 927      BINDING AFFINITY PREDICTED BY RF-SCORE:    0.00 PKD
ROOT
HETATM    1  C   UNL     1     -14.067   7.597  71.355  1.00  0.00    -0.364 C  
HETATM    2  N   UNL     1     -12.749   7.247  71.900  1.00  0.00    -0.304 NA 
HETATM    3  C   UNL     1     -11.988   6.531  70.864  1.00  0.00    -0.291 C  
ENDROOT
BRANCH   2   4
HETATM    4  C   UNL     1     -12.006   8.454  72.298  1.00  0.00    -0.389 C  
BRANCH   4   5
HETATM    5  C   UNL     1     -12.109   9.641  71.383  1.00  0.00    -0.472 C  
HETATM    6  C   UNL     1     -11.530   9.810  70.182  1.00  0.00    -0.272 C  
BRANCH   6   7
HETATM    7  C   UNL     1     -11.755  11.081  69.442  1.00  0.00    -0.323 C  
HETATM    8  N   UNL     1     -11.301  12.202  70.119  1.00  0.00    -0.479 N  
HETATM    9  O   UNL     1     -12.227  11.073  68.309  1.00  0.00    -0.582 OA 
HETATM   10  H   UNL     1     -10.960  12.098  71.075  1.00  0.00     0.000 HD 
BRANCH   8  11
HETATM   11  C   UNL     1     -11.295  13.487  69.526  1.00  0.00    -0.202 A  
HETATM   12  C   UNL     1     -12.144  14.510  69.950  1.00  0.00    -0.336 A  
HETATM   13  N   UNL     1      -9.512  16.592  66.203  1.00  0.00    -0.367 NA 
HETATM   14  C   UNL     1     -12.031  15.777  69.354  1.00  0.00    -0.321 A  
HETATM   15  C   UNL     1     -10.445  13.739  68.434  1.00  0.00    -0.256 A  
HETATM   16  C   UNL     1     -11.142  16.055  68.320  1.00  0.00    -0.351 A  
HETATM   17  C   UNL     1     -10.371  15.011  67.804  1.00  0.00    -0.245 A  
HETATM   18  N   UNL     1     -11.085  17.302  67.841  1.00  0.00    -0.181 NA 
HETATM   19  C   UNL     1     -10.248  17.517  66.821  1.00  0.00    -0.327 A  
HETATM   20  C   UNL     1      -9.579  15.336  66.677  1.00  0.00    -0.257 A  
BRANCH  12  21
HETATM   21  O   UNL     1     -13.210  14.391  70.792  1.00  0.00    -0.353 OA 
BRANCH  21  22
HETATM   22  C   UNL     1     -13.093  14.635  72.189  1.00  0.00    -0.347 C  
HETATM   23  C   UNL     1     -12.218  16.211  73.782  1.00  0.00    -0.508 C  
HETATM   24  C   UNL     1     -14.086  15.746  72.524  1.00  0.00    -0.412 C  
HETATM   25  O   UNL     1     -13.644  16.328  73.748  1.00  0.00    -0.556 OA 
HETATM   26  C   UNL     1     -11.795  15.243  72.683  1.00  0.00    -0.533 C  
ENDBRANCH  21  22
ENDBRANCH  12  21
BRANCH  20  27
HETATM   27  N   UNL     1      -8.838  14.310  66.023  1.00  0.00    -0.299 NA 
HETATM   28  H   UNL     1      -7.996  14.615  65.534  1.00  0.00     0.000 HD 
BRANCH  27  29
HETATM   29  C   UNL     1      -9.117  12.922  65.963  1.00  0.00     0.167 A  
HETATM   30  C   UNL     1      -8.382  11.964  66.678  1.00  0.00    -0.117 A  
HETATM   31  C   UNL     1      -8.728  10.611  66.626  1.00  0.00    -0.140 A  
HETATM   32 CL   UNL     1      -7.767   9.461  67.484  1.00  0.00    -0.091 Cl 
HETATM   33  C   UNL     1      -9.828  10.200  65.884  1.00  0.00    -0.245 A  
HETATM   34  C   UNL     1     -10.602  11.132  65.209  1.00  0.00    -0.303 A  
HETATM   35  F   UNL     1     -10.173   8.907  65.825  1.00  0.00    -0.321 F  
HETATM   36  C   UNL     1     -10.254  12.486  65.256  1.00  0.00    -0.302 A  
ENDBRANCH  27  29
ENDBRANCH  20  27
ENDBRANCH   8  11
ENDBRANCH   6   7
ENDBRANCH   4   5
ENDBRANCH   2   4
TORSDOF 8
ENDMDL
MODEL       27
REMARK 921   NORMALIZED FREE ENERGY PREDICTED BY IDOCK:   -6.51 KCAL/MOL
REMARK 922        TOTAL FREE ENERGY PREDICTED BY IDOCK:  -11.10 KCAL/MOL
REMARK 923 INTER-LIGAND FREE ENERGY PREDICTED BY IDOCK:   -9.72 KCAL/MOL
REMARK 924 INTRA-LIGAND FREE ENERGY PREDICTED BY IDOCK:   -1.38 KCAL/MOL
REMARK 927      BINDING AFFINITY PREDICTED BY RF-SCORE:    0.00 PKD
ROOT
HETATM    1  C   UNL     1      -9.863   4.563  65.471  1.00  0.00    -0.208 C  
HETATM    2  N   UNL     1      -8.582   5.004  66.037  1.00  0.00    -0.118 NA 
HETATM    3  C   UNL     1      -8.369   6.415  65.678  1.00  0.00    -0.147 C  
ENDROOT
BRANCH   2   4
HETATM    4  C   UNL     1      -8.582   4.874  67.505  1.00  0.00    -0.104 C  
BRANCH   4   5
HETATM    5  C   UNL     1      -9.019   6.080  68.288  1.00  0.00    -0.113 C  
HETATM    6  C   UNL     1      -8.422   6.626  69.362  1.00  0.00    -0.131 C  
BRANCH   6   7
HETATM    7  C   UNL     1      -9.036   7.822  69.999  1.00  0.00    -0.150 C  
HETATM    8  N   UNL     1     -10.326   8.080  69.562  1.00  0.00    -0.218 N  
HETATM    9  O   UNL     1      -8.446   8.436  70.883  1.00  0.00    -0.120 OA 
HETATM   10  H   UNL     1     -10.707   7.528  68.794  1.00  0.00     0.000 HD 
BRANCH   8  11
HETATM   11  C   UNL     1     -11.131   9.086  70.148  1.00  0.00    -0.207 A  
HETATM   12  C   UNL     1     -12.110   8.800  71.100  1.00  0.00    -0.267 A  
HETATM   13  N   UNL     1     -12.388  13.791  70.536  1.00  0.00    -0.349 NA 
HETATM   14  C   UNL     1     -12.822   9.862  71.682  1.00  0.00    -0.537 A  
HETATM   15  C   UNL     1     -10.985  10.420  69.725  1.00  0.00    -0.345 A  
HETATM   16  C   UNL     1     -12.634  11.193  71.321  1.00  0.00    -0.398 A  
HETATM   17  C   UNL     1     -11.744  11.483  70.285  1.00  0.00    -0.379 A  
HETATM   18  N   UNL     1     -13.336  12.136  71.957  1.00  0.00    -0.467 NA 
HETATM   19  C   UNL     1     -13.157  13.397  71.552  1.00  0.00    -0.342 A  
HETATM   20  C   UNL     1     -11.691  12.841  69.887  1.00  0.00    -0.251 A  
BRANCH  12  21
HETATM   21  O   UNL     1     -12.586   7.567  71.437  1.00  0.00    -0.336 OA 
BRANCH  21  22
HETATM   22  C   UNL     1     -12.073   6.843  72.550  1.00  0.00     0.015 C  
HETATM   23  C   UNL     1     -10.182   5.543  73.268  1.00  0.00    -0.195 C  
HETATM   24  C   UNL     1     -10.966   7.701  73.157  1.00  0.00    -0.353 C  
HETATM   25  O   UNL     1     -10.140   6.820  73.914  1.00  0.00    -0.276 OA 
HETATM   26  C   UNL     1     -11.322   5.559  72.257  1.00  0.00    -0.257 C  
ENDBRANCH  21  22
ENDBRANCH  12  21
BRANCH  20  27
HETATM   27  N   UNL     1     -10.886  13.214  68.773  1.00  0.00    -0.268 NA 
HETATM   28  H   UNL     1      -9.949  13.550  68.996  1.00  0.00     0.000 HD 
BRANCH  27  29
HETATM   29  C   UNL     1     -11.217  13.179  67.396  1.00  0.00    -0.287 A  
HETATM   30  C   UNL     1     -10.710  12.214  66.512  1.00  0.00    -0.290 A  
HETATM   31  C   UNL     1     -11.106  12.191  65.172  1.00  0.00    -0.322 A  
HETATM   32 CL   UNL     1     -10.418  11.016  64.109  1.00  0.00    -0.428 Cl 
HETATM   33  C   UNL     1     -12.035  13.111  64.703  1.00  0.00    -0.388 A  
HETATM   34  C   UNL     1     -12.592  14.042  65.567  1.00  0.00    -0.543 A  
HETATM   35  F   UNL     1     -12.426  13.100  63.422  1.00  0.00    -0.523 F  
HETATM   36  C   UNL     1     -12.192  14.070  66.907  1.00  0.00    -0.415 A  
ENDBRANCH  27  29
ENDBRANCH  20  27
ENDBRANCH   8  11
ENDBRANCH   6   7
ENDBRANCH   4   5
ENDBRANCH   2   4
TORSDOF 8
ENDMDL
MODEL       28
REMARK 921   NORMALIZED FREE ENERGY PREDICTED BY IDOCK:   -6.46 KCAL/MOL
REMARK 922        TOTAL FREE ENERGY PREDICTED BY IDOCK:  -11.03 KCAL/MOL
REMARK 923 INTER-LIGAND FREE ENERGY PREDICTED BY IDOCK:   -9.76 KCAL/MOL
REMARK 924 INTRA-LIGAND FREE ENERGY PREDICTED BY IDOCK:   -1.27 KCAL/MOL
REMARK 927      BINDING AFFINITY PREDICTED BY RF-SCORE:    0.00 PKD
ROOT
HETATM    1  C   UNL     1      -8.684  17.547  68.305  1.00  0.00    -0.270 C  
HETATM    2  N   UNL     1     -10.068  17.997  68.500  1.00  0.00    -0.377 NA 
HETATM    3  C   UNL     1     -10.334  19.113  67.579  1.00  0.00    -0.432 C  
ENDROOT
BRANCH   2   4
HETATM    4  C   UNL     1     -11.020  16.907  68.225  1.00  0.00    -0.298 C  
BRANCH   4   5
HETATM    5  C   UNL     1     -10.434  15.542  68.003  1.00  0.00    -0.259 C  
HETATM    6  C   UNL     1     -10.948  14.354  68.370  1.00  0.00    -0.261 C  
BRANCH   6   7
HETATM    7  C   UNL     1     -10.189  13.112  68.061  1.00  0.00    -0.233 C  
HETATM    8  N   UNL     1     -10.947  12.147  67.417  1.00  0.00    -0.248 N  
HETATM    9  O   UNL     1      -8.987  13.035  68.299  1.00  0.00    -0.194 OA 
HETATM   10  H   UNL     1     -11.949  12.300  67.303  1.00  0.00     0.000 HD 
BRANCH   8  11
HETATM   11  C   UNL     1     -10.375  10.954  66.914  1.00  0.00    -0.238 A  
HETATM   12  C   UNL     1      -9.543  10.938  65.794  1.00  0.00    -0.216 A  
HETATM   13  N   UNL     1      -9.796   6.110  67.186  1.00  0.00    -0.132 NA 
HETATM   14  C   UNL     1      -8.962   9.722  65.396  1.00  0.00    -0.229 A  
HETATM   15  C   UNL     1     -10.691   9.726  67.524  1.00  0.00    -0.327 A  
HETATM   16  C   UNL     1      -9.213   8.513  66.038  1.00  0.00    -0.202 A  
HETATM   17  C   UNL     1     -10.138   8.493  67.085  1.00  0.00    -0.331 A  
HETATM   18  N   UNL     1      -8.586   7.415  65.606  1.00  0.00    -0.139 NA 
HETATM   19  C   UNL     1      -8.887   6.267  66.223  1.00  0.00    -0.147 A  
HETATM   20  C   UNL     1     -10.436   7.214  67.613  1.00  0.00    -0.239 A  
BRANCH  12  21
HETATM   21  O   UNL     1      -9.337  11.961  64.915  1.00  0.00    -0.055 OA 
BRANCH  21  22
HETATM   22  C   UNL     1     -10.270  12.263  63.885  1.00  0.00    -0.395 C  
HETATM   23  C   UNL     1     -12.624  12.292  63.394  1.00  0.00    -0.427 C  
HETATM   24  C   UNL     1     -10.935  13.582  64.270  1.00  0.00    -0.336 C  
HETATM   25  O   UNL     1     -12.167  13.639  63.555  1.00  0.00    -0.618 OA 
HETATM   26  C   UNL     1     -11.477  11.354  63.750  1.00  0.00    -0.246 C  
ENDBRANCH  21  22
ENDBRANCH  12  21
BRANCH  20  27
HETATM   27  N   UNL     1     -11.440   7.086  68.614  1.00  0.00    -0.384 NA 
HETATM   28  H   UNL     1     -12.399   7.005  68.273  1.00  0.00     0.000 HD 
BRANCH  27  29
HETATM   29  C   UNL     1     -11.283   7.055  70.022  1.00  0.00    -0.269 A  
HETATM   30  C   UNL     1     -11.139   5.863  70.749  1.00  0.00    -0.324 A  
HETATM   31  C   UNL     1     -10.936   5.887  72.131  1.00  0.00    -0.266 A  
HETATM   32 CL   UNL     1     -10.813   4.396  72.992  1.00  0.00    -0.290 Cl 
HETATM   33  C   UNL     1     -10.843   7.101  72.802  1.00  0.00    -0.300 A  
HETATM   34  C   UNL     1     -10.930   8.293  72.100  1.00  0.00    -0.396 A  
HETATM   35  F   UNL     1     -10.647   7.140  74.126  1.00  0.00    -0.400 F  
HETATM   36  C   UNL     1     -11.139   8.271  70.717  1.00  0.00    -0.280 A  
ENDBRANCH  27  29
ENDBRANCH  20  27
ENDBRANCH   8  11
ENDBRANCH   6   7
ENDBRANCH   4   5
ENDBRANCH   2   4
TORSDOF 8
ENDMDL
MODEL       29
REMARK 921   NORMALIZED FREE ENERGY PREDICTED BY IDOCK:   -6.41 KCAL/MOL
REMARK 922        TOTAL FREE ENERGY PREDICTED BY IDOCK:  -10.94 KCAL/MOL
REMARK 923 INTER-LIGAND FREE ENERGY PREDICTED BY IDOCK:   -9.65 KCAL/MOL
REMARK 924 INTRA-LIGAND FREE ENERGY PREDICTED BY IDOCK:   -1.30 KCAL/MOL
REMARK 927      BINDING AFFINITY PREDICTED BY RF-SCORE:    0.00 PKD
ROOT
HETATM    1  C   UNL     1     -10.190   6.345  74.323  1.00  0.00    -0.344 C  
HETATM    2  N   UNL     1      -9.475   6.704  73.092  1.00  0.00    -0.141 NA 
HETATM    3  C   UNL     1     -10.218   6.164  71.943  1.00  0.00    -0.200 C  
ENDROOT
BRANCH   2   4
HETATM    4  C   UNL     1      -9.367   8.167  72.953  1.00  0.00    -0.273 C  
BRANCH   4   5
HETATM    5  C   UNL     1      -9.924   8.766  71.692  1.00  0.00    -0.381 C  
HETATM    6  C   UNL     1      -9.260   9.442  70.737  1.00  0.00    -0.278 C  
BRANCH   6   7
HETATM    7  C   UNL     1     -10.015   9.968  69.567  1.00  0.00    -0.228 C  
HETATM    8  N   UNL     1      -9.202  10.340  68.508  1.00  0.00    -0.139 N  
HETATM    9  O   UNL     1     -11.242   9.971  69.562  1.00  0.00    -0.234 OA 
HETATM   10  H   UNL     1      -8.190  10.333  68.635  1.00  0.00     0.000 HD 
BRANCH   8  11
HETATM   11  C   UNL     1      -9.733  10.731  67.256  1.00  0.00    -0.161 A  
HETATM   12  C   UNL     1      -9.650   9.921  66.122  1.00  0.00    -0.218 A  
HETATM   13  N   UNL     1     -12.055  14.031  64.501  1.00  0.00    -0.444 NA 
HETATM   14  C   UNL     1     -10.259  10.352  64.932  1.00  0.00    -0.330 A  
HETATM   15  C   UNL     1     -10.321  12.002  67.121  1.00  0.00    -0.235 A  
HETATM   16  C   UNL     1     -10.905  11.579  64.810  1.00  0.00    -0.297 A  
HETATM   17  C   UNL     1     -10.892  12.452  65.901  1.00  0.00    -0.305 A  
HETATM   18  N   UNL     1     -11.484  11.886  63.645  1.00  0.00    -0.447 NA 
HETATM   19  C   UNL     1     -12.059  13.090  63.556  1.00  0.00    -0.542 A  
HETATM   20  C   UNL     1     -11.462  13.727  65.669  1.00  0.00    -0.310 A  
BRANCH  12  21
HETATM   21  O   UNL     1      -8.895   8.794  65.978  1.00  0.00    -0.153 OA 
BRANCH  21  22
HETATM   22  C   UNL     1      -9.173   7.606  66.710  1.00  0.00    -0.160 C  
HETATM   23  C   UNL     1     -10.668   5.724  66.793  1.00  0.00    -0.297 C  
HETATM   24  C   UNL     1      -8.698   6.439  65.849  1.00  0.00    -0.145 C  
HETATM   25  O   UNL     1      -9.394   5.284  66.311  1.00  0.00    -0.142 OA 
HETATM   26  C   UNL     1     -10.630   7.242  66.919  1.00  0.00    -0.375 C  
ENDBRANCH  21  22
ENDBRANCH  12  21
BRANCH  20  27
HETATM   27  N   UNL     1     -11.403  14.716  66.691  1.00  0.00    -0.350 NA 
HETATM   28  H   UNL     1     -12.128  14.659  67.406  1.00  0.00     0.000 HD 
BRANCH  27  29
HETATM   29  C   UNL     1     -10.468  15.770  66.846  1.00  0.00    -0.315 A  
HETATM   30  C   UNL     1     -10.741  16.931  67.586  1.00  0.00    -0.290 A  
HETATM   31  C   UNL     1      -9.768  17.920  67.752  1.00  0.00    -0.283 A  
HETATM   32 CL   UNL     1     -10.163  19.354  68.630  1.00  0.00    -0.499 Cl 
HETATM   33  C   UNL     1      -8.501  17.751  67.207  1.00  0.00    -0.231 A  
HETATM   34  C   UNL     1      -8.189  16.591  66.515  1.00  0.00    -0.335 A  
HETATM   35  F   UNL     1      -7.558  18.690  67.358  1.00  0.00    -0.221 F  
HETATM   36  C   UNL     1      -9.163  15.602  66.343  1.00  0.00    -0.346 A  
ENDBRANCH  27  29
ENDBRANCH  20  27
ENDBRANCH   8  11
ENDBRANCH   6   7
ENDBRANCH   4   5
ENDBRANCH   2   4
TORSDOF 8
ENDMDL
MODEL       30
REMARK 921   NORMALIZED FREE ENERGY PREDICTED BY IDOCK:   -6.40 KCAL/MOL
REMARK 922        TOTAL FREE ENERGY PREDICTED BY IDOCK:  -10.94 KCAL/MOL
REMARK 923 INTER-LIGAND FREE ENERGY PREDICTED BY IDOCK:   -9.46 KCAL/MOL
REMARK 924 INTRA-LIGAND FREE ENERGY PREDICTED BY IDOCK:   -1.48 KCAL/MOL
REMARK 927      BINDING AFFINITY PREDICTED BY RF-SCORE:    0.00 PKD
ROOT
HETATM    1  C   UNL     1     -11.184   5.580  73.153  1.00  0.00    -0.267 C  
HETATM    2  N   UNL     1     -10.080   5.970  74.039  1.00  0.00    -0.232 NA 
HETATM    3  C   UNL     1      -8.946   5.063  73.805  1.00  0.00    -0.114 C  
ENDROOT
BRANCH   2   4
HETATM    4  C   UNL     1      -9.654   7.355  73.772  1.00  0.00    -0.284 C  
BRANCH   4   5
HETATM    5  C   UNL     1     -10.180   7.991  72.516  1.00  0.00    -0.361 C  
HETATM    6  C   UNL     1      -9.580   8.916  71.746  1.00  0.00    -0.353 C  
BRANCH   6   7
HETATM    7  C   UNL     1     -10.291   9.426  70.543  1.00  0.00    -0.281 C  
HETATM    8  N   UNL     1      -9.512  10.253  69.750  1.00  0.00    -0.393 N  
HETATM    9  O   UNL     1     -11.430   9.052  70.281  1.00  0.00    -0.230 OA 
HETATM   10  H   UNL     1      -8.588  10.530  70.082  1.00  0.00     0.000 HD 
BRANCH   8  11
HETATM   11  C   UNL     1      -9.957  10.726  68.492  1.00  0.00    -0.178 A  
HETATM   12  C   UNL     1      -9.888   9.950  67.334  1.00  0.00    -0.179 A  
HETATM   13  N   UNL     1     -11.900  14.287  65.770  1.00  0.00    -0.365 NA 
HETATM   14  C   UNL     1     -10.411  10.467  66.138  1.00  0.00    -0.276 A  
HETATM   15  C   UNL     1     -10.440  12.042  68.381  1.00  0.00    -0.231 A  
HETATM   16  C   UNL     1     -10.956  11.743  66.034  1.00  0.00    -0.306 A  
HETATM   17  C   UNL     1     -10.922  12.576  67.156  1.00  0.00    -0.302 A  
HETATM   18  N   UNL     1     -11.459  12.133  64.859  1.00  0.00    -0.331 NA 
HETATM   19  C   UNL     1     -11.935  13.381  64.792  1.00  0.00    -0.390 A  
HETATM   20  C   UNL     1     -11.382  13.899  66.949  1.00  0.00    -0.328 A  
BRANCH  12  21
HETATM   21  O   UNL     1      -9.215   8.773  67.179  1.00  0.00    -0.132 OA 
BRANCH  21  22
HETATM   22  C   UNL     1      -9.752   7.698  66.415  1.00  0.00    -0.127 C  
HETATM   23  C   UNL     1      -9.623   5.314  66.128  1.00  0.00    -0.161 C  
HETATM   24  C   UNL     1     -10.709   6.944  67.334  1.00  0.00    -0.326 C  
HETATM   25  O   UNL     1     -10.856   5.638  66.781  1.00  0.00    -0.291 OA 
HETATM   26  C   UNL     1      -8.799   6.591  66.008  1.00  0.00    -0.154 C  
ENDBRANCH  21  22
ENDBRANCH  12  21
BRANCH  20  27
HETATM   27  N   UNL     1     -11.292  14.845  68.008  1.00  0.00    -0.311 NA 
HETATM   28  H   UNL     1     -11.974  14.738  68.759  1.00  0.00     0.000 HD 
BRANCH  27  29
HETATM   29  C   UNL     1     -10.377  15.918  68.157  1.00  0.00    -0.256 A  
HETATM   30  C   UNL     1     -10.775  17.264  68.180  1.00  0.00    -0.363 A  
HETATM   31  C   UNL     1      -9.841  18.284  68.380  1.00  0.00    -0.369 A  
HETATM   32 CL   UNL     1     -10.368  19.927  68.351  1.00  0.00    -0.560 Cl 
HETATM   33  C   UNL     1      -8.503  17.973  68.589  1.00  0.00    -0.267 A  
HETATM   34  C   UNL     1      -8.092  16.650  68.623  1.00  0.00    -0.237 A  
HETATM   35  F   UNL     1      -7.597  18.940  68.783  1.00  0.00    -0.320 F  
HETATM   36  C   UNL     1      -9.024  15.628  68.417  1.00  0.00    -0.185 A  
ENDBRANCH  27  29
ENDBRANCH  20  27
ENDBRANCH   8  11
ENDBRANCH   6   7
ENDBRANCH   4   5
ENDBRANCH   2   4
TORSDOF 8
ENDMDL
MODEL       31
REMARK 921   NORMALIZED FREE ENERGY PREDICTED BY IDOCK:   -6.39 KCAL/MOL
REMARK 922        TOTAL FREE ENERGY PREDICTED BY IDOCK:  -10.92 KCAL/MOL
REMARK 923 INTER-LIGAND FREE ENERGY PREDICTED BY IDOCK:   -9.40 KCAL/MOL
REMARK 924 INTRA-LIGAND FREE ENERGY PREDICTED BY IDOCK:   -1.52 KCAL/MOL
REMARK 927      BINDING AFFINITY PREDICTED BY RF-SCORE:    0.00 PKD
ROOT
HETATM    1  C   UNL     1     -12.483   8.840  72.036  1.00  0.00    -0.386 C  
HETATM    2  N   UNL     1     -11.522   7.907  72.639  1.00  0.00    -0.391 NA 
HETATM    3  C   UNL     1     -11.848   6.544  72.194  1.00  0.00    -0.305 C  
ENDROOT
BRANCH   2   4
HETATM    4  C   UNL     1     -10.145   8.232  72.231  1.00  0.00    -0.300 C  
BRANCH   4   5
HETATM    5  C   UNL     1      -9.983   8.957  70.925  1.00  0.00    -0.304 C  
HETATM    6  C   UNL     1      -8.839   9.258  70.285  1.00  0.00    -0.254 C  
BRANCH   6   7
HETATM    7  C   UNL     1      -8.905  10.000  68.997  1.00  0.00    -0.159 C  
HETATM    8  N   UNL     1      -9.934   9.580  68.169  1.00  0.00    -0.159 N  
HETATM    9  O   UNL     1      -8.149  10.941  68.776  1.00  0.00    -0.130 OA 
HETATM   10  H   UNL     1     -10.480   8.761  68.436  1.00  0.00     0.000 HD 
BRANCH   8  11
HETATM   11  C   UNL     1     -10.251  10.252  66.965  1.00  0.00    -0.228 A  
HETATM   12  C   UNL     1      -9.839   9.785  65.716  1.00  0.00    -0.290 A  
HETATM   13  N   UNL     1     -12.395  13.986  64.656  1.00  0.00    -0.573 NA 
HETATM   14  C   UNL     1     -10.251  10.474  64.563  1.00  0.00    -0.355 A  
HETATM   15  C   UNL     1     -10.964  11.465  67.018  1.00  0.00    -0.347 A  
HETATM   16  C   UNL     1     -11.016  11.635  64.603  1.00  0.00    -0.301 A  
HETATM   17  C   UNL     1     -11.335  12.181  65.849  1.00  0.00    -0.407 A  
HETATM   18  N   UNL     1     -11.387  12.200  63.450  1.00  0.00    -0.426 NA 
HETATM   19  C   UNL     1     -12.086  13.336  63.533  1.00  0.00    -0.482 A  
HETATM   20  C   UNL     1     -12.011  13.425  65.816  1.00  0.00    -0.407 A  
BRANCH  12  21
HETATM   21  O   UNL     1      -8.928   8.800  65.474  1.00  0.00    -0.193 OA 
BRANCH  21  22
HETATM   22  C   UNL     1      -7.529   9.020  65.616  1.00  0.00    -0.086 C  
HETATM   23  C   UNL     1      -5.423   7.868  65.764  1.00  0.00    -0.029 C  
HETATM   24  C   UNL     1      -6.903   8.761  64.249  1.00  0.00    -0.078 C  
HETATM   25  O   UNL     1      -5.523   8.490  64.479  1.00  0.00    -0.046 OA 
HETATM   26  C   UNL     1      -6.756   8.045  66.483  1.00  0.00    -0.062 C  
ENDBRANCH  21  22
ENDBRANCH  12  21
BRANCH  20  27
HETATM   27  N   UNL     1     -12.288  14.104  67.036  1.00  0.00    -0.571 NA 
HETATM   28  H   UNL     1     -13.077  13.745  67.574  1.00  0.00     0.000 HD 
BRANCH  27  29
HETATM   29  C   UNL     1     -11.610  15.214  67.601  1.00  0.00    -0.277 A  
HETATM   30  C   UNL     1     -10.848  16.112  66.839  1.00  0.00    -0.175 A  
HETATM   31  C   UNL     1     -10.240  17.221  67.435  1.00  0.00    -0.325 A  
HETATM   32 CL   UNL     1      -9.271  18.273  66.468  1.00  0.00    -0.298 Cl 
HETATM   33  C   UNL     1     -10.410  17.464  68.792  1.00  0.00    -0.357 A  
HETATM   34  C   UNL     1     -11.201  16.621  69.558  1.00  0.00    -0.060 A  
HETATM   35  F   UNL     1      -9.835  18.523  69.377  1.00  0.00    -0.270 F  
HETATM   36  C   UNL     1     -11.805  15.508  68.965  1.00  0.00    -0.373 A  
ENDBRANCH  27  29
ENDBRANCH  20  27
ENDBRANCH   8  11
ENDBRANCH   6   7
ENDBRANCH   4   5
ENDBRANCH   2   4
TORSDOF 8
ENDMDL
MODEL       32
REMARK 921   NORMALIZED FREE ENERGY PREDICTED BY IDOCK:   -6.39 KCAL/MOL
REMARK 922        TOTAL FREE ENERGY PREDICTED BY IDOCK:  -10.91 KCAL/MOL
REMARK 923 INTER-LIGAND FREE ENERGY PREDICTED BY IDOCK:   -9.68 KCAL/MOL
REMARK 924 INTRA-LIGAND FREE ENERGY PREDICTED BY IDOCK:   -1.23 KCAL/MOL
REMARK 927      BINDING AFFINITY PREDICTED BY RF-SCORE:    0.00 PKD
ROOT
HETATM    1  C   UNL     1      -9.990  10.737  63.592  1.00  0.00    -0.345 C  
HETATM    2  N   UNL     1      -9.047   9.615  63.495  1.00  0.00    -0.226 NA 
HETATM    3  C   UNL     1      -7.795  10.103  62.897  1.00  0.00    -0.147 C  
ENDROOT
BRANCH   2   4
HETATM    4  C   UNL     1      -8.760   9.051  64.825  1.00  0.00    -0.153 C  
BRANCH   4   5
HETATM    5  C   UNL     1      -9.067   9.927  66.007  1.00  0.00    -0.195 C  
HETATM    6  C   UNL     1      -9.886   9.661  67.040  1.00  0.00    -0.249 C  
BRANCH   6   7
HETATM    7  C   UNL     1     -10.058  10.683  68.108  1.00  0.00    -0.158 C  
HETATM    8  N   UNL     1     -11.381  11.030  68.332  1.00  0.00    -0.270 N  
HETATM    9  O   UNL     1      -9.095  11.086  68.753  1.00  0.00    -0.172 OA 
HETATM   10  H   UNL     1     -12.101  10.662  67.710  1.00  0.00     0.000 HD 
BRANCH   8  11
HETATM   11  C   UNL     1     -11.765  11.878  69.398  1.00  0.00    -0.339 A  
HETATM   12  C   UNL     1     -12.426  11.403  70.532  1.00  0.00    -0.293 A  
HETATM   13  N   UNL     1     -11.971  16.342  71.375  1.00  0.00    -0.380 NA 
HETATM   14  C   UNL     1     -12.715  12.298  71.575  1.00  0.00    -0.339 A  
HETATM   15  C   UNL     1     -11.525  13.261  69.301  1.00  0.00    -0.345 A  
HETATM   16  C   UNL     1     -12.416  13.656  71.517  1.00  0.00    -0.238 A  
HETATM   17  C   UNL     1     -11.864  14.168  70.341  1.00  0.00    -0.367 A  
HETATM   18  N   UNL     1     -12.700  14.422  72.575  1.00  0.00    -0.341 NA 
HETATM   19  C   UNL     1     -12.435  15.727  72.463  1.00  0.00    -0.450 A  
HETATM   20  C   UNL     1     -11.697  15.574  70.305  1.00  0.00    -0.346 A  
BRANCH  12  21
HETATM   21  O   UNL     1     -12.984  10.169  70.694  1.00  0.00    -0.320 OA 
BRANCH  21  22
HETATM   22  C   UNL     1     -12.189   8.990  70.761  1.00  0.00    -0.076 C  
HETATM   23  C   UNL     1     -11.000   7.579  72.303  1.00  0.00    -0.262 C  
HETATM   24  C   UNL     1     -13.072   7.900  71.361  1.00  0.00    -0.254 C  
HETATM   25  O   UNL     1     -12.192   6.908  71.884  1.00  0.00    -0.322 OA 
HETATM   26  C   UNL     1     -11.023   8.991  71.731  1.00  0.00    -0.443 C  
ENDBRANCH  21  22
ENDBRANCH  12  21
BRANCH  20  27
HETATM   27  N   UNL     1     -11.235  16.194  69.110  1.00  0.00    -0.329 NA 
HETATM   28  H   UNL     1     -11.812  16.046  68.281  1.00  0.00     0.000 HD 
BRANCH  27  29
HETATM   29  C   UNL     1     -10.077  16.989  68.920  1.00  0.00    -0.307 A  
HETATM   30  C   UNL     1      -8.776  16.463  68.944  1.00  0.00    -0.253 A  
HETATM   31  C   UNL     1      -7.668  17.280  68.700  1.00  0.00    -0.265 A  
HETATM   32 CL   UNL     1      -6.084  16.600  68.789  1.00  0.00    -0.139 Cl 
HETATM   33  C   UNL     1      -7.846  18.624  68.401  1.00  0.00    -0.319 A  
HETATM   34  C   UNL     1      -9.122  19.158  68.319  1.00  0.00    -0.385 A  
HETATM   35  F   UNL     1      -6.794  19.419  68.164  1.00  0.00    -0.260 F  
HETATM   36  C   UNL     1     -10.232  18.344  68.568  1.00  0.00    -0.394 A  
ENDBRANCH  27  29
ENDBRANCH  20  27
ENDBRANCH   8  11
ENDBRANCH   6   7
ENDBRANCH   4   5
ENDBRANCH   2   4
TORSDOF 8
ENDMDL
MODEL       33
REMARK 921   NORMALIZED FREE ENERGY PREDICTED BY IDOCK:   -6.38 KCAL/MOL
REMARK 922        TOTAL FREE ENERGY PREDICTED BY IDOCK:  -10.91 KCAL/MOL
REMARK 923 INTER-LIGAND FREE ENERGY PREDICTED BY IDOCK:   -9.62 KCAL/MOL
REMARK 924 INTRA-LIGAND FREE ENERGY PREDICTED BY IDOCK:   -1.29 KCAL/MOL
REMARK 927      BINDING AFFINITY PREDICTED BY RF-SCORE:    0.00 PKD
ROOT
HETATM    1  C   UNL     1     -13.787  13.945  72.430  1.00  0.00    -0.566 C  
HETATM    2  N   UNL     1     -13.441  15.363  72.586  1.00  0.00    -0.481 NA 
HETATM    3  C   UNL     1     -12.684  15.528  73.837  1.00  0.00    -0.580 C  
ENDROOT
BRANCH   2   4
HETATM    4  C   UNL     1     -12.618  15.832  71.458  1.00  0.00    -0.455 C  
BRANCH   4   5
HETATM    5  C   UNL     1     -11.932  14.774  70.640  1.00  0.00    -0.371 C  
HETATM    6  C   UNL     1     -10.966  14.940  69.719  1.00  0.00    -0.280 C  
BRANCH   6   7
HETATM    7  C   UNL     1     -10.431  13.747  69.009  1.00  0.00    -0.098 C  
HETATM    8  N   UNL     1     -11.044  12.561  69.383  1.00  0.00    -0.452 N  
HETATM    9  O   UNL     1      -9.587  13.867  68.127  1.00  0.00    -0.206 OA 
HETATM   10  H   UNL     1     -11.709  12.570  70.156  1.00  0.00     0.000 HD 
BRANCH   8  11
HETATM   11  C   UNL     1     -10.777  11.337  68.724  1.00  0.00    -0.203 A  
HETATM   12  C   UNL     1     -11.206  11.079  67.422  1.00  0.00    -0.285 A  
HETATM   13  N   UNL     1      -8.805   6.867  68.763  1.00  0.00    -0.132 NA 
HETATM   14  C   UNL     1     -10.845   9.865  66.815  1.00  0.00    -0.085 A  
HETATM   15  C   UNL     1     -10.100  10.315  69.414  1.00  0.00    -0.255 A  
HETATM   16  C   UNL     1     -10.114   8.877  67.467  1.00  0.00    -0.227 A  
HETATM   17  C   UNL     1      -9.780   9.070  68.809  1.00  0.00    -0.165 A  
HETATM   18  N   UNL     1      -9.788   7.769  66.793  1.00  0.00    -0.226 NA 
HETATM   19  C   UNL     1      -9.122   6.827  67.468  1.00  0.00    -0.117 A  
HETATM   20  C   UNL     1      -9.143   7.977  69.444  1.00  0.00    -0.148 A  
BRANCH  12  21
HETATM   21  O   UNL     1     -12.093  11.817  66.693  1.00  0.00    -0.527 OA 
BRANCH  21  22
HETATM   22  C   UNL     1     -11.681  12.596  65.576  1.00  0.00    -0.402 C  
HETATM   23  C   UNL     1     -12.336  13.235  63.352  1.00  0.00    -0.324 C  
HETATM   24  C   UNL     1     -12.567  13.839  65.558  1.00  0.00    -0.512 C  
HETATM   25  O   UNL     1     -12.519  14.351  64.229  1.00  0.00    -0.659 OA 
HETATM   26  C   UNL     1     -11.945  12.027  64.195  1.00  0.00    -0.461 C  
ENDBRANCH  21  22
ENDBRANCH  12  21
BRANCH  20  27
HETATM   27  N   UNL     1      -8.857   8.046  70.837  1.00  0.00    -0.136 NA 
HETATM   28  H   UNL     1      -8.585   8.964  71.189  1.00  0.00     0.000 HD 
BRANCH  27  29
HETATM   29  C   UNL     1      -8.899   7.006  71.799  1.00  0.00    -0.126 A  
HETATM   30  C   UNL     1     -10.074   6.310  72.121  1.00  0.00    -0.203 A  
HETATM   31  C   UNL     1     -10.055   5.257  73.039  1.00  0.00    -0.176 A  
HETATM   32 CL   UNL     1     -11.533   4.461  73.441  1.00  0.00    -0.361 Cl 
HETATM   33  C   UNL     1      -8.858   4.866  73.627  1.00  0.00    -0.108 A  
HETATM   34  C   UNL     1      -7.674   5.502  73.288  1.00  0.00    -0.100 A  
HETATM   35  F   UNL     1      -8.823   3.858  74.508  1.00  0.00    -0.092 F  
HETATM   36  C   UNL     1      -7.692   6.560  72.373  1.00  0.00    -0.096 A  
ENDBRANCH  27  29
ENDBRANCH  20  27
ENDBRANCH   8  11
ENDBRANCH   6   7
ENDBRANCH   4   5
ENDBRANCH   2   4
TORSDOF 8
ENDMDL
MODEL       34
REMARK 921   NORMALIZED FREE ENERGY PREDICTED BY IDOCK:   -6.34 KCAL/MOL
REMARK 922        TOTAL FREE ENERGY PREDICTED BY IDOCK:  -10.85 KCAL/MOL
REMARK 923 INTER-LIGAND FREE ENERGY PREDICTED BY IDOCK:   -9.54 KCAL/MOL
REMARK 924 INTRA-LIGAND FREE ENERGY PREDICTED BY IDOCK:   -1.31 KCAL/MOL
REMARK 927      BINDING AFFINITY PREDICTED BY RF-SCORE:    0.00 PKD
ROOT
HETATM    1  C   UNL     1     -12.626  11.890  63.337  1.00  0.00    -0.431 C  
HETATM    2  N   UNL     1     -11.748  13.067  63.314  1.00  0.00    -0.429 NA 
HETATM    3  C   UNL     1     -12.390  14.148  64.077  1.00  0.00    -0.275 C  
ENDROOT
BRANCH   2   4
HETATM    4  C   UNL     1     -10.440  12.759  63.919  1.00  0.00    -0.372 C  
BRANCH   4   5
HETATM    5  C   UNL     1     -10.441  12.401  65.378  1.00  0.00    -0.306 C  
HETATM    6  C   UNL     1      -9.788  13.019  66.379  1.00  0.00    -0.270 C  
BRANCH   6   7
HETATM    7  C   UNL     1      -9.917  12.486  67.763  1.00  0.00    -0.210 C  
HETATM    8  N   UNL     1     -11.169  11.960  68.038  1.00  0.00    -0.237 N  
HETATM    9  O   UNL     1      -8.950  12.462  68.519  1.00  0.00    -0.155 OA 
HETATM   10  H   UNL     1     -11.913  12.067  67.348  1.00  0.00     0.000 HD 
BRANCH   8  11
HETATM   11  C   UNL     1     -11.449  11.280  69.247  1.00  0.00    -0.301 A  
HETATM   12  C   UNL     1     -12.239  11.837  70.254  1.00  0.00    -0.299 A  
HETATM   13  N   UNL     1     -10.926   7.342  72.092  1.00  0.00    -0.235 NA 
HETATM   14  C   UNL     1     -12.525  11.071  71.396  1.00  0.00    -0.436 A  
HETATM   15  C   UNL     1     -10.874  10.017  69.478  1.00  0.00    -0.283 A  
HETATM   16  C   UNL     1     -12.017   9.792  71.600  1.00  0.00    -0.375 A  
HETATM   17  C   UNL     1     -11.129   9.268  70.658  1.00  0.00    -0.335 A  
HETATM   18  N   UNL     1     -12.373   9.128  72.705  1.00  0.00    -0.139 NA 
HETATM   19  C   UNL     1     -11.831   7.919  72.883  1.00  0.00    -0.112 A  
HETATM   20  C   UNL     1     -10.557   8.015  70.987  1.00  0.00    -0.213 A  
BRANCH  12  21
HETATM   21  O   UNL     1     -12.657  13.133  70.341  1.00  0.00    -0.226 OA 
BRANCH  21  22
HETATM   22  C   UNL     1     -12.716  13.820  71.586  1.00  0.00    -0.321 C  
HETATM   23  C   UNL     1     -12.565  16.012  72.561  1.00  0.00    -0.451 C  
HETATM   24  C   UNL     1     -14.061  14.539  71.627  1.00  0.00    -0.461 C  
HETATM   25  O   UNL     1     -13.931  15.587  72.583  1.00  0.00    -0.545 OA 
HETATM   26  C   UNL     1     -11.757  14.977  71.787  1.00  0.00    -0.452 C  
ENDBRANCH  21  22
ENDBRANCH  12  21
BRANCH  20  27
HETATM   27  N   UNL     1      -9.565   7.452  70.135  1.00  0.00    -0.165 NA 
HETATM   28  H   UNL     1      -8.716   8.005  70.018  1.00  0.00     0.000 HD 
BRANCH  27  29
HETATM   29  C   UNL     1      -9.604   6.225  69.427  1.00  0.00    -0.141 A  
HETATM   30  C   UNL     1     -10.019   6.126  68.090  1.00  0.00    -0.158 A  
HETATM   31  C   UNL     1      -9.991   4.900  67.420  1.00  0.00    -0.168 A  
HETATM   32 CL   UNL     1     -10.556   4.817  65.791  1.00  0.00    -0.308 Cl 
HETATM   33  C   UNL     1      -9.522   3.763  68.065  1.00  0.00    -0.164 A  
HETATM   34  C   UNL     1      -9.058   3.842  69.369  1.00  0.00    -0.196 A  
HETATM   35  F   UNL     1      -9.488   2.581  67.436  1.00  0.00    -0.206 F  
HETATM   36  C   UNL     1      -9.090   5.067  70.044  1.00  0.00    -0.166 A  
ENDBRANCH  27  29
ENDBRANCH  20  27
ENDBRANCH   8  11
ENDBRANCH   6   7
ENDBRANCH   4   5
ENDBRANCH   2   4
TORSDOF 8
ENDMDL
MODEL       35
REMARK 921   NORMALIZED FREE ENERGY PREDICTED BY IDOCK:   -6.31 KCAL/MOL
REMARK 922        TOTAL FREE ENERGY PREDICTED BY IDOCK:  -10.81 KCAL/MOL
REMARK 923 INTER-LIGAND FREE ENERGY PREDICTED BY IDOCK:  -10.01 KCAL/MOL
REMARK 924 INTRA-LIGAND FREE ENERGY PREDICTED BY IDOCK:   -0.80 KCAL/MOL
REMARK 927      BINDING AFFINITY PREDICTED BY RF-SCORE:    0.00 PKD
ROOT
HETATM    1  C   UNL     1      -8.245   8.151  64.866  1.00  0.00    -0.147 C  
HETATM    2  N   UNL     1      -8.471   7.125  65.891  1.00  0.00    -0.143 NA 
HETATM    3  C   UNL     1      -8.030   5.825  65.362  1.00  0.00    -0.117 C  
ENDROOT
BRANCH   2   4
HETATM    4  C   UNL     1      -7.713   7.429  67.117  1.00  0.00    -0.115 C  
BRANCH   4   5
HETATM    5  C   UNL     1      -8.369   8.354  68.103  1.00  0.00    -0.128 C  
HETATM    6  C   UNL     1      -9.604   8.259  68.628  1.00  0.00    -0.152 C  
BRANCH   6   7
HETATM    7  C   UNL     1     -10.065   9.301  69.584  1.00  0.00    -0.197 C  
HETATM    8  N   UNL     1     -11.305   9.832  69.267  1.00  0.00    -0.441 N  
HETATM    9  O   UNL     1      -9.409   9.568  70.587  1.00  0.00    -0.254 OA 
HETATM   10  H   UNL     1     -11.747   9.566  68.387  1.00  0.00     0.000 HD 
BRANCH   8  11
HETATM   11  C   UNL     1     -11.979  10.732  70.126  1.00  0.00    -0.349 A  
HETATM   12  C   UNL     1     -12.984  10.320  71.003  1.00  0.00    -0.397 A  
HETATM   13  N   UNL     1     -12.649  15.277  71.789  1.00  0.00    -0.333 NA 
HETATM   14  C   UNL     1     -13.559  11.263  71.870  1.00  0.00    -0.111 A  
HETATM   15  C   UNL     1     -11.673  12.104  70.067  1.00  0.00    -0.330 A  
HETATM   16  C   UNL     1     -13.210  12.611  71.867  1.00  0.00    -0.403 A  
HETATM   17  C   UNL     1     -12.294  13.061  70.914  1.00  0.00    -0.376 A  
HETATM   18  N   UNL     1     -13.790  13.425  72.754  1.00  0.00    -0.661 NA 
HETATM   19  C   UNL     1     -13.458  14.719  72.691  1.00  0.00    -0.471 A  
HETATM   20  C   UNL     1     -12.076  14.459  70.889  1.00  0.00    -0.344 A  
BRANCH  12  21
HETATM   21  O   UNL     1     -13.607   9.106  71.018  1.00  0.00    -0.189 OA 
BRANCH  21  22
HETATM   22  C   UNL     1     -13.093   8.009  71.765  1.00  0.00    -0.336 C  
HETATM   23  C   UNL     1     -11.211   6.521  71.917  1.00  0.00    -0.272 C  
HETATM   24  C   UNL     1     -11.976   8.563  72.644  1.00  0.00    -0.239 C  
HETATM   25  O   UNL     1     -11.153   7.454  73.000  1.00  0.00    -0.342 OA 
HETATM   26  C   UNL     1     -12.356   6.929  70.998  1.00  0.00    -0.401 C  
ENDBRANCH  21  22
ENDBRANCH  12  21
BRANCH  20  27
HETATM   27  N   UNL     1     -11.235  15.019  69.885  1.00  0.00    -0.264 NA 
HETATM   28  H   UNL     1     -10.733  15.867  70.150  1.00  0.00     0.000 HD 
BRANCH  27  29
HETATM   29  C   UNL     1     -11.003  14.552  68.567  1.00  0.00    -0.249 A  
HETATM   30  C   UNL     1     -12.010  14.488  67.592  1.00  0.00    -0.355 A  
HETATM   31  C   UNL     1     -11.721  14.068  66.290  1.00  0.00    -0.387 A  
HETATM   32 CL   UNL     1     -13.001  13.958  65.136  1.00  0.00    -0.371 Cl 
HETATM   33  C   UNL     1     -10.420  13.735  65.938  1.00  0.00    -0.297 A  
HETATM   34  C   UNL     1      -9.397  13.839  66.868  1.00  0.00    -0.267 A  
HETATM   35  F   UNL     1     -10.127  13.332  64.694  1.00  0.00    -0.345 F  
HETATM   36  C   UNL     1      -9.685  14.254  68.172  1.00  0.00    -0.226 A  
ENDBRANCH  27  29
ENDBRANCH  20  27
ENDBRANCH   8  11
ENDBRANCH   6   7
ENDBRANCH   4   5
ENDBRANCH   2   4
TORSDOF 8
ENDMDL
MODEL       36
REMARK 921   NORMALIZED FREE ENERGY PREDICTED BY IDOCK:   -6.28 KCAL/MOL
REMARK 922        TOTAL FREE ENERGY PREDICTED BY IDOCK:  -10.75 KCAL/MOL
REMARK 923 INTER-LIGAND FREE ENERGY PREDICTED BY IDOCK:  -10.01 KCAL/MOL
REMARK 924 INTRA-LIGAND FREE ENERGY PREDICTED BY IDOCK:   -0.74 KCAL/MOL
REMARK 927      BINDING AFFINITY PREDICTED BY RF-SCORE:    0.00 PKD
ROOT
HETATM    1  C   UNL     1     -14.400   8.580  72.025  1.00  0.00    -0.447 C  
HETATM    2  N   UNL     1     -13.213   9.322  72.470  1.00  0.00    -0.418 NA 
HETATM    3  C   UNL     1     -12.013   8.570  72.075  1.00  0.00    -0.361 C  
ENDROOT
BRANCH   2   4
HETATM    4  C   UNL     1     -13.168  10.661  71.856  1.00  0.00    -0.423 C  
BRANCH   4   5
HETATM    5  C   UNL     1     -12.303  10.813  70.637  1.00  0.00    -0.465 C  
HETATM    6  C   UNL     1     -11.912  11.954  70.041  1.00  0.00    -0.409 C  
BRANCH   6   7
HETATM    7  C   UNL     1     -11.059  11.878  68.825  1.00  0.00    -0.245 C  
HETATM    8  N   UNL     1     -11.525  10.980  67.878  1.00  0.00    -0.303 N  
HETATM    9  O   UNL     1     -10.092  12.621  68.688  1.00  0.00    -0.206 OA 
HETATM   10  H   UNL     1     -12.319  10.383  68.112  1.00  0.00     0.000 HD 
BRANCH   8  11
HETATM   11  C   UNL     1     -10.936  10.864  66.597  1.00  0.00    -0.148 A  
HETATM   12  C   UNL     1     -11.334  11.653  65.516  1.00  0.00    -0.160 A  
HETATM   13  N   UNL     1      -7.709   8.729  63.614  1.00  0.00    -0.125 NA 
HETATM   14  C   UNL     1     -10.654  11.523  64.294  1.00  0.00    -0.405 A  
HETATM   15  C   UNL     1      -9.948   9.887  66.377  1.00  0.00    -0.309 A  
HETATM   16  C   UNL     1      -9.627  10.607  64.088  1.00  0.00    -0.300 A  
HETATM   17  C   UNL     1      -9.299   9.729  65.123  1.00  0.00    -0.322 A  
HETATM   18  N   UNL     1      -9.018  10.582  62.898  1.00  0.00    -0.228 NA 
HETATM   19  C   UNL     1      -8.065   9.660  62.728  1.00  0.00    -0.130 A  
HETATM   20  C   UNL     1      -8.330   8.746  64.806  1.00  0.00    -0.168 A  
BRANCH  12  21
HETATM   21  O   UNL     1     -12.438  12.451  65.451  1.00  0.00    -0.637 OA 
BRANCH  21  22
HETATM   22  C   UNL     1     -12.347  13.867  65.567  1.00  0.00    -0.480 C  
HETATM   23  C   UNL     1     -10.858  15.718  65.195  1.00  0.00    -0.428 C  
HETATM   24  C   UNL     1     -12.450  14.429  64.152  1.00  0.00    -0.199 C  
HETATM   25  O   UNL     1     -11.879  15.735  64.192  1.00  0.00    -0.497 OA 
HETATM   26  C   UNL     1     -11.019  14.445  66.017  1.00  0.00    -0.316 C  
ENDBRANCH  21  22
ENDBRANCH  12  21
BRANCH  20  27
HETATM   27  N   UNL     1      -8.007   7.746  65.767  1.00  0.00    -0.107 NA 
HETATM   28  H   UNL     1      -7.064   7.360  65.705  1.00  0.00     0.000 HD 
BRANCH  27  29
HETATM   29  C   UNL     1      -8.823   7.217  66.798  1.00  0.00    -0.134 A  
HETATM   30  C   UNL     1      -8.544   7.399  68.162  1.00  0.00    -0.123 A  
HETATM   31  C   UNL     1      -9.407   6.901  69.142  1.00  0.00    -0.140 A  
HETATM   32 CL   UNL     1      -9.000   7.106  70.807  1.00  0.00    -0.152 Cl 
HETATM   33  C   UNL     1     -10.573   6.241  68.774  1.00  0.00    -0.262 A  
HETATM   34  C   UNL     1     -10.899   6.094  67.435  1.00  0.00    -0.431 A  
HETATM   35  F   UNL     1     -11.411   5.760  69.703  1.00  0.00    -0.447 F  
HETATM   36  C   UNL     1     -10.033   6.586  66.453  1.00  0.00    -0.086 A  
ENDBRANCH  27  29
ENDBRANCH  20  27
ENDBRANCH   8  11
ENDBRANCH   6   7
ENDBRANCH   4   5
ENDBRANCH   2   4
TORSDOF 8
ENDMDL
MODEL       37
REMARK 921   NORMALIZED FREE ENERGY PREDICTED BY IDOCK:   -6.25 KCAL/MOL
REMARK 922        TOTAL FREE ENERGY PREDICTED BY IDOCK:  -10.71 KCAL/MOL
REMARK 923 INTER-LIGAND FREE ENERGY PREDICTED BY IDOCK:   -9.44 KCAL/MOL
REMARK 924 INTRA-LIGAND FREE ENERGY PREDICTED BY IDOCK:   -1.27 KCAL/MOL
REMARK 927      BINDING AFFINITY PREDICTED BY RF-SCORE:    0.00 PKD
ROOT
HETATM    1  C   UNL     1     -14.285  15.688  72.233  1.00  0.00    -0.448 C  
HETATM    2  N   UNL     1     -13.087  14.940  72.636  1.00  0.00    -0.390 NA 
HETATM    3  C   UNL     1     -12.729  15.328  74.009  1.00  0.00    -0.451 C  
ENDROOT
BRANCH   2   4
HETATM    4  C   UNL     1     -13.334  13.488  72.593  1.00  0.00    -0.437 C  
BRANCH   4   5
HETATM    5  C   UNL     1     -13.022  12.790  71.299  1.00  0.00    -0.310 C  
HETATM    6  C   UNL     1     -11.981  13.007  70.475  1.00  0.00    -0.294 C  
BRANCH   6   7
HETATM    7  C   UNL     1     -11.870  12.206  69.226  1.00  0.00    -0.313 C  
HETATM    8  N   UNL     1     -11.015  12.761  68.288  1.00  0.00    -0.240 N  
HETATM    9  O   UNL     1     -12.438  11.123  69.122  1.00  0.00    -0.418 OA 
HETATM   10  H   UNL     1     -10.624  13.688  68.462  1.00  0.00     0.000 HD 
BRANCH   8  11
HETATM   11  C   UNL     1     -10.666  12.084  67.095  1.00  0.00    -0.239 A  
HETATM   12  C   UNL     1     -11.238  12.397  65.862  1.00  0.00    -0.336 A  
HETATM   13  N   UNL     1      -8.056   8.648  64.804  1.00  0.00    -0.141 NA 
HETATM   14  C   UNL     1     -10.790  11.723  64.714  1.00  0.00    -0.358 A  
HETATM   15  C   UNL     1      -9.748  11.019  67.149  1.00  0.00    -0.198 A  
HETATM   16  C   UNL     1      -9.830  10.717  64.749  1.00  0.00    -0.310 A  
HETATM   17  C   UNL     1      -9.335  10.309  65.990  1.00  0.00    -0.224 A  
HETATM   18  N   UNL     1      -9.444  10.158  63.598  1.00  0.00    -0.289 NA 
HETATM   19  C   UNL     1      -8.551   9.166  63.679  1.00  0.00    -0.166 A  
HETATM   20  C   UNL     1      -8.454   9.202  65.963  1.00  0.00    -0.131 A  
BRANCH  12  21
HETATM   21  O   UNL     1     -12.324  13.194  65.644  1.00  0.00    -0.443 OA 
BRANCH  21  22
HETATM   22  C   UNL     1     -12.206  14.608  65.531  1.00  0.00    -0.199 C  
HETATM   23  C   UNL     1     -10.670  16.348  64.901  1.00  0.00    -0.191 C  
HETATM   24  C   UNL     1     -12.266  14.935  64.042  1.00  0.00    -0.123 C  
HETATM   25  O   UNL     1     -11.668  16.219  63.884  1.00  0.00    -0.986 OA 
HETATM   26  C   UNL     1     -10.876  15.228  65.914  1.00  0.00    -0.345 C  
ENDBRANCH  21  22
ENDBRANCH  12  21
BRANCH  20  27
HETATM   27  N   UNL     1      -7.979   8.654  67.189  1.00  0.00    -0.100 NA 
HETATM   28  H   UNL     1      -7.091   9.027  67.526  1.00  0.00     0.000 HD 
BRANCH  27  29
HETATM   29  C   UNL     1      -8.579   7.660  68.002  1.00  0.00    -0.123 A  
HETATM   30  C   UNL     1      -8.813   7.835  69.374  1.00  0.00    -0.139 A  
HETATM   31  C   UNL     1      -9.454   6.845  70.124  1.00  0.00    -0.162 A  
HETATM   32 CL   UNL     1      -9.677   7.082  71.819  1.00  0.00    -0.163 Cl 
HETATM   33  C   UNL     1      -9.896   5.681  69.508  1.00  0.00    -0.180 A  
HETATM   34  C   UNL     1      -9.723   5.505  68.143  1.00  0.00    -0.164 A  
HETATM   35  F   UNL     1     -10.512   4.723  70.212  1.00  0.00    -0.318 F  
HETATM   36  C   UNL     1      -9.077   6.492  67.393  1.00  0.00    -0.112 A  
ENDBRANCH  27  29
ENDBRANCH  20  27
ENDBRANCH   8  11
ENDBRANCH   6   7
ENDBRANCH   4   5
ENDBRANCH   2   4
TORSDOF 8
ENDMDL
MODEL       38
REMARK 921   NORMALIZED FREE ENERGY PREDICTED BY IDOCK:   -6.22 KCAL/MOL
REMARK 922        TOTAL FREE ENERGY PREDICTED BY IDOCK:  -10.67 KCAL/MOL
REMARK 923 INTER-LIGAND FREE ENERGY PREDICTED BY IDOCK:   -9.30 KCAL/MOL
REMARK 924 INTRA-LIGAND FREE ENERGY PREDICTED BY IDOCK:   -1.38 KCAL/MOL
REMARK 927      BINDING AFFINITY PREDICTED BY RF-SCORE:    0.00 PKD
ROOT
HETATM    1  C   UNL     1     -12.662  11.967  63.367  1.00  0.00    -0.398 C  
HETATM    2  N   UNL     1     -11.361  12.630  63.210  1.00  0.00    -0.388 NA 
HETATM    3  C   UNL     1     -11.234  13.667  64.245  1.00  0.00    -0.336 C  
ENDROOT
BRANCH   2   4
HETATM    4  C   UNL     1     -10.257  11.666  63.353  1.00  0.00    -0.433 C  
BRANCH   4   5
HETATM    5  C   UNL     1      -9.994  11.145  64.738  1.00  0.00    -0.339 C  
HETATM    6  C   UNL     1      -9.004  10.327  65.137  1.00  0.00    -0.220 C  
BRANCH   6   7
HETATM    7  C   UNL     1      -8.936   9.919  66.567  1.00  0.00    -0.146 C  
HETATM    8  N   UNL     1     -10.061   9.238  67.001  1.00  0.00    -0.227 N  
HETATM    9  O   UNL     1      -7.922  10.119  67.228  1.00  0.00    -0.109 OA 
HETATM   10  H   UNL     1     -10.865   9.161  66.377  1.00  0.00     0.000 HD 
BRANCH   8  11
HETATM   11  C   UNL     1     -10.132   8.645  68.284  1.00  0.00    -0.192 A  
HETATM   12  C   UNL     1      -9.374   7.527  68.635  1.00  0.00    -0.143 A  
HETATM   13  N   UNL     1     -12.022   8.547  72.789  1.00  0.00    -0.243 NA 
HETATM   14  C   UNL     1      -9.453   7.038  69.950  1.00  0.00    -0.157 A  
HETATM   15  C   UNL     1     -11.035   9.159  69.234  1.00  0.00    -0.081 A  
HETATM   16  C   UNL     1     -10.290   7.585  70.917  1.00  0.00    -0.201 A  
HETATM   17  C   UNL     1     -11.143   8.628  70.547  1.00  0.00    -0.268 A  
HETATM   18  N   UNL     1     -10.269   7.071  72.150  1.00  0.00    -0.186 NA 
HETATM   19  C   UNL     1     -11.119   7.598  73.037  1.00  0.00    -0.381 A  
HETATM   20  C   UNL     1     -12.052   9.056  71.544  1.00  0.00    -0.340 A  
BRANCH  12  21
HETATM   21  O   UNL     1      -8.659   6.729  67.792  1.00  0.00    -0.121 OA 
BRANCH  21  22
HETATM   22  C   UNL     1      -9.144   5.460  67.368  1.00  0.00    -0.111 C  
HETATM   23  C   UNL     1     -10.245   4.355  65.538  1.00  0.00    -0.241 C  
HETATM   24  C   UNL     1      -8.165   4.944  66.318  1.00  0.00    -0.108 C  
HETATM   25  O   UNL     1      -8.867   3.968  65.553  1.00  0.00    -0.117 OA 
HETATM   26  C   UNL     1     -10.447   5.437  66.591  1.00  0.00    -0.356 C  
ENDBRANCH  21  22
ENDBRANCH  12  21
BRANCH  20  27
HETATM   27  N   UNL     1     -13.027  10.045  71.226  1.00  0.00    -0.375 NA 
HETATM   28  H   UNL     1     -13.928   9.692  70.904  1.00  0.00     0.000 HD 
BRANCH  27  29
HETATM   29  C   UNL     1     -12.908  11.455  71.299  1.00  0.00    -0.379 A  
HETATM   30  C   UNL     1     -12.215  12.214  70.343  1.00  0.00    -0.378 A  
HETATM   31  C   UNL     1     -12.169  13.608  70.431  1.00  0.00    -0.363 A  
HETATM   32 CL   UNL     1     -11.263  14.498  69.261  1.00  0.00    -0.290 Cl 
HETATM   33  C   UNL     1     -12.838  14.265  71.456  1.00  0.00    -0.346 A  
HETATM   34  C   UNL     1     -13.573  13.543  72.384  1.00  0.00    -0.709 A  
HETATM   35  F   UNL     1     -12.804  15.600  71.553  1.00  0.00    -0.388 F  
HETATM   36  C   UNL     1     -13.616  12.147  72.301  1.00  0.00    -0.226 A  
ENDBRANCH  27  29
ENDBRANCH  20  27
ENDBRANCH   8  11
ENDBRANCH   6   7
ENDBRANCH   4   5
ENDBRANCH   2   4
TORSDOF 8
ENDMDL
MODEL       39
REMARK 921   NORMALIZED FREE ENERGY PREDICTED BY IDOCK:   -6.22 KCAL/MOL
REMARK 922        TOTAL FREE ENERGY PREDICTED BY IDOCK:  -10.66 KCAL/MOL
REMARK 923 INTER-LIGAND FREE ENERGY PREDICTED BY IDOCK:   -9.31 KCAL/MOL
REMARK 924 INTRA-LIGAND FREE ENERGY PREDICTED BY IDOCK:   -1.35 KCAL/MOL
REMARK 927      BINDING AFFINITY PREDICTED BY RF-SCORE:    0.00 PKD
ROOT
HETATM    1  C   UNL     1     -14.298  15.695  72.351  1.00  0.00    -0.332 C  
HETATM    2  N   UNL     1     -13.124  15.430  71.509  1.00  0.00    -0.433 NA 
HETATM    3  C   UNL     1     -11.935  15.983  72.174  1.00  0.00    -0.538 C  
ENDROOT
BRANCH   2   4
HETATM    4  C   UNL     1     -12.936  13.983  71.308  1.00  0.00    -0.347 C  
BRANCH   4   5
HETATM    5  C   UNL     1     -12.137  13.569  70.104  1.00  0.00    -0.425 C  
HETATM    6  C   UNL     1     -11.644  12.350  69.821  1.00  0.00    -0.302 C  
BRANCH   6   7
HETATM    7  C   UNL     1     -10.861  12.160  68.570  1.00  0.00    -0.236 C  
HETATM    8  N   UNL     1     -11.525  11.411  67.612  1.00  0.00    -0.289 N  
HETATM    9  O   UNL     1      -9.772  12.706  68.422  1.00  0.00    -0.222 OA 
HETATM   10  H   UNL     1     -12.412  10.971  67.855  1.00  0.00     0.000 HD 
BRANCH   8  11
HETATM   11  C   UNL     1     -11.009  11.237  66.305  1.00  0.00    -0.205 A  
HETATM   12  C   UNL     1     -11.465  11.981  65.216  1.00  0.00    -0.302 A  
HETATM   13  N   UNL     1      -7.966   8.954  63.239  1.00  0.00    -0.148 NA 
HETATM   14  C   UNL     1     -10.857  11.794  63.963  1.00  0.00    -0.446 A  
HETATM   15  C   UNL     1     -10.040  10.244  66.072  1.00  0.00    -0.311 A  
HETATM   16  C   UNL     1      -9.846  10.864  63.739  1.00  0.00    -0.337 A  
HETATM   17  C   UNL     1      -9.463  10.028  64.791  1.00  0.00    -0.366 A  
HETATM   18  N   UNL     1      -9.306  10.784  62.519  1.00  0.00    -0.286 NA 
HETATM   19  C   UNL     1      -8.368   9.849  62.335  1.00  0.00    -0.142 A  
HETATM   20  C   UNL     1      -8.519   9.026  64.463  1.00  0.00    -0.175 A  
BRANCH  12  21
HETATM   21  O   UNL     1     -12.567  12.783  65.179  1.00  0.00    -0.530 OA 
BRANCH  21  22
HETATM   22  C   UNL     1     -12.475  14.192  65.355  1.00  0.00    -0.472 C  
HETATM   23  C   UNL     1     -10.946  16.040  65.176  1.00  0.00    -0.348 C  
HETATM   24  C   UNL     1     -12.457  14.808  63.959  1.00  0.00     0.022 C  
HETATM   25  O   UNL     1     -11.880  16.104  64.095  1.00  0.00    -0.769 OA 
HETATM   26  C   UNL     1     -11.184  14.739  65.934  1.00  0.00    -0.340 C  
ENDBRANCH  21  22
ENDBRANCH  12  21
BRANCH  20  27
HETATM   27  N   UNL     1      -8.145   8.066  65.446  1.00  0.00    -0.127 NA 
HETATM   28  H   UNL     1      -7.491   8.393  66.158  1.00  0.00     0.000 HD 
BRANCH  27  29
HETATM   29  C   UNL     1      -8.564   6.718  65.566  1.00  0.00    -0.086 A  
HETATM   30  C   UNL     1      -7.836   5.642  65.035  1.00  0.00    -0.101 A  
HETATM   31  C   UNL     1      -8.264   4.325  65.224  1.00  0.00    -0.106 A  
HETATM   32 CL   UNL     1      -7.364   3.035  64.511  1.00  0.00    -0.065 Cl 
HETATM   33  C   UNL     1      -9.407   4.063  65.969  1.00  0.00    -0.168 A  
HETATM   34  C   UNL     1     -10.116   5.104  66.548  1.00  0.00    -0.269 A  
HETATM   35  F   UNL     1      -9.829   2.806  66.159  1.00  0.00     0.031 F  
HETATM   36  C   UNL     1      -9.692   6.423  66.356  1.00  0.00    -0.140 A  
ENDBRANCH  27  29
ENDBRANCH  20  27
ENDBRANCH   8  11
ENDBRANCH   6   7
ENDBRANCH   4   5
ENDBRANCH   2   4
TORSDOF 8
ENDMDL
MODEL       40
REMARK 921   NORMALIZED FREE ENERGY PREDICTED BY IDOCK:   -6.18 KCAL/MOL
REMARK 922        TOTAL FREE ENERGY PREDICTED BY IDOCK:  -10.61 KCAL/MOL
REMARK 923 INTER-LIGAND FREE ENERGY PREDICTED BY IDOCK:   -9.28 KCAL/MOL
REMARK 924 INTRA-LIGAND FREE ENERGY PREDICTED BY IDOCK:   -1.34 KCAL/MOL
REMARK 927      BINDING AFFINITY PREDICTED BY RF-SCORE:    0.00 PKD
ROOT
HETATM    1  C   UNL     1      -9.895   7.137  73.683  1.00  0.00    -0.300 C  
HETATM    2  N   UNL     1     -10.644   6.876  72.446  1.00  0.00    -0.205 NA 
HETATM    3  C   UNL     1     -10.962   5.441  72.383  1.00  0.00    -0.240 C  
ENDROOT
BRANCH   2   4
HETATM    4  C   UNL     1     -11.897   7.650  72.416  1.00  0.00    -0.289 C  
BRANCH   4   5
HETATM    5  C   UNL     1     -12.033   8.668  71.319  1.00  0.00    -0.339 C  
HETATM    6  C   UNL     1     -11.427   9.865  71.225  1.00  0.00    -0.435 C  
BRANCH   6   7
HETATM    7  C   UNL     1     -11.716  10.732  70.051  1.00  0.00    -0.336 C  
HETATM    8  N   UNL     1     -10.577  11.185  69.404  1.00  0.00    -0.385 N  
HETATM    9  O   UNL     1     -12.871  10.926  69.684  1.00  0.00    -0.197 OA 
HETATM   10  H   UNL     1      -9.665  10.994  69.818  1.00  0.00     0.000 HD 
BRANCH   8  11
HETATM   11  C   UNL     1     -10.640  11.903  68.187  1.00  0.00    -0.208 A  
HETATM   12  C   UNL     1     -10.631  11.271  66.943  1.00  0.00    -0.257 A  
HETATM   13  N   UNL     1     -10.896  16.165  65.811  1.00  0.00    -0.253 NA 
HETATM   14  C   UNL     1     -10.762  12.051  65.782  1.00  0.00    -0.319 A  
HETATM   15  C   UNL     1     -10.660  13.310  68.215  1.00  0.00    -0.262 A  
HETATM   16  C   UNL     1     -10.854  13.439  65.805  1.00  0.00    -0.275 A  
HETATM   17  C   UNL     1     -10.744  14.095  67.034  1.00  0.00    -0.285 A  
HETATM   18  N   UNL     1     -11.011  14.092  64.650  1.00  0.00    -0.397 NA 
HETATM   19  C   UNL     1     -11.054  15.426  64.712  1.00  0.00    -0.403 A  
HETATM   20  C   UNL     1     -10.725  15.509  66.973  1.00  0.00    -0.321 A  
BRANCH  12  21
HETATM   21  O   UNL     1     -10.346   9.960  66.696  1.00  0.00    -0.231 OA 
BRANCH  21  22
HETATM   22  C   UNL     1      -9.068   9.403  66.983  1.00  0.00    -0.134 C  
HETATM   23  C   UNL     1      -7.941   7.312  67.357  1.00  0.00    -0.112 C  
HETATM   24  C   UNL     1      -8.567   8.766  65.690  1.00  0.00    -0.172 C  
HETATM   25  O   UNL     1      -7.577   7.812  66.066  1.00  0.00    -0.083 OA 
HETATM   26  C   UNL     1      -9.022   8.220  67.931  1.00  0.00    -0.134 C  
ENDBRANCH  21  22
ENDBRANCH  12  21
BRANCH  20  27
HETATM   27  N   UNL     1     -10.515  16.259  68.165  1.00  0.00    -0.277 NA 
HETATM   28  H   UNL     1     -11.130  16.031  68.946  1.00  0.00     0.000 HD 
BRANCH  27  29
HETATM   29  C   UNL     1      -9.564  17.281  68.408  1.00  0.00    -0.285 A  
HETATM   30  C   UNL     1      -8.230  17.017  68.753  1.00  0.00    -0.245 A  
HETATM   31  C   UNL     1      -7.316  18.059  68.933  1.00  0.00    -0.243 A  
HETATM   32 CL   UNL     1      -5.697  17.690  69.404  1.00  0.00    -0.205 Cl 
HETATM   33  C   UNL     1      -7.715  19.377  68.742  1.00  0.00    -0.362 A  
HETATM   34  C   UNL     1      -9.013  19.663  68.351  1.00  0.00    -0.372 A  
HETATM   35  F   UNL     1      -6.850  20.386  68.910  1.00  0.00    -0.319 F  
HETATM   36  C   UNL     1      -9.930  18.621  68.176  1.00  0.00    -0.397 A  
ENDBRANCH  27  29
ENDBRANCH  20  27
ENDBRANCH   8  11
ENDBRANCH   6   7
ENDBRANCH   4   5
ENDBRANCH   2   4
TORSDOF 8
ENDMDL
MODEL       41
REMARK 921   NORMALIZED FREE ENERGY PREDICTED BY IDOCK:   -6.16 KCAL/MOL
REMARK 922        TOTAL FREE ENERGY PREDICTED BY IDOCK:  -10.58 KCAL/MOL
REMARK 923 INTER-LIGAND FREE ENERGY PREDICTED BY IDOCK:   -9.36 KCAL/MOL
REMARK 924 INTRA-LIGAND FREE ENERGY PREDICTED BY IDOCK:   -1.22 KCAL/MOL
REMARK 927      BINDING AFFINITY PREDICTED BY RF-SCORE:    0.00 PKD
ROOT
HETATM    1  C   UNL     1     -12.116   8.102  72.109  1.00  0.00    -0.357 C  
HETATM    2  N   UNL     1     -11.124   7.433  72.960  1.00  0.00    -0.353 NA 
HETATM    3  C   UNL     1     -11.120   5.998  72.637  1.00  0.00    -0.275 C  
ENDROOT
BRANCH   2   4
HETATM    4  C   UNL     1      -9.777   7.983  72.731  1.00  0.00    -0.280 C  
BRANCH   4   5
HETATM    5  C   UNL     1      -9.599   8.842  71.511  1.00  0.00    -0.362 C  
HETATM    6  C   UNL     1      -8.786   8.626  70.462  1.00  0.00    -0.178 C  
BRANCH   6   7
HETATM    7  C   UNL     1      -8.753   9.621  69.356  1.00  0.00    -0.171 C  
HETATM    8  N   UNL     1      -9.842   9.535  68.503  1.00  0.00    -0.155 N  
HETATM    9  O   UNL     1      -7.867  10.468  69.300  1.00  0.00    -0.126 OA 
HETATM   10  H   UNL     1     -10.502   8.766  68.620  1.00  0.00     0.000 HD 
BRANCH   8  11
HETATM   11  C   UNL     1     -10.068  10.481  67.475  1.00  0.00    -0.189 A  
HETATM   12  C   UNL     1      -9.977  10.152  66.122  1.00  0.00    -0.246 A  
HETATM   13  N   UNL     1     -11.159  15.042  66.102  1.00  0.00    -0.338 NA 
HETATM   14  C   UNL     1     -10.280  11.132  65.162  1.00  0.00    -0.347 A  
HETATM   15  C   UNL     1     -10.342  11.819  67.815  1.00  0.00    -0.211 A  
HETATM   16  C   UNL     1     -10.622  12.440  65.492  1.00  0.00    -0.275 A  
HETATM   17  C   UNL     1     -10.600  12.816  66.837  1.00  0.00    -0.257 A  
HETATM   18  N   UNL     1     -10.927  13.291  64.508  1.00  0.00    -0.362 NA 
HETATM   19  C   UNL     1     -11.210  14.548  64.864  1.00  0.00    -0.391 A  
HETATM   20  C   UNL     1     -10.840  14.188  67.092  1.00  0.00    -0.290 A  
BRANCH  12  21
HETATM   21  O   UNL     1      -9.465   9.003  65.594  1.00  0.00    -0.244 OA 
BRANCH  21  22
HETATM   22  C   UNL     1      -8.071   8.842  65.360  1.00  0.00    -0.125 C  
HETATM   23  C   UNL     1      -5.912   9.309  66.310  1.00  0.00    -0.059 C  
HETATM   24  C   UNL     1      -7.593   7.741  66.302  1.00  0.00    -0.087 C  
HETATM   25  O   UNL     1      -6.184   7.910  66.441  1.00  0.00    -0.044 OA 
HETATM   26  C   UNL     1      -7.161   9.987  65.760  1.00  0.00    -0.117 C  
ENDBRANCH  21  22
ENDBRANCH  12  21
BRANCH  20  27
HETATM   27  N   UNL     1     -10.739  14.681  68.423  1.00  0.00    -0.235 NA 
HETATM   28  H   UNL     1      -9.886  15.198  68.641  1.00  0.00     0.000 HD 
BRANCH  27  29
HETATM   29  C   UNL     1     -11.666  14.549  69.486  1.00  0.00    -0.314 A  
HETATM   30  C   UNL     1     -11.919  13.329  70.133  1.00  0.00    -0.388 A  
HETATM   31  C   UNL     1     -12.806  13.259  71.210  1.00  0.00    -0.312 A  
HETATM   32 CL   UNL     1     -13.123  11.729  71.944  1.00  0.00    -0.550 Cl 
HETATM   33  C   UNL     1     -13.430  14.410  71.675  1.00  0.00    -0.372 A  
HETATM   34  C   UNL     1     -13.159  15.636  71.088  1.00  0.00    -0.523 A  
HETATM   35  F   UNL     1     -14.282  14.358  72.708  1.00  0.00    -0.475 F  
HETATM   36  C   UNL     1     -12.276  15.707  70.006  1.00  0.00    -0.351 A  
ENDBRANCH  27  29
ENDBRANCH  20  27
ENDBRANCH   8  11
ENDBRANCH   6   7
ENDBRANCH   4   5
ENDBRANCH   2   4
TORSDOF 8
ENDMDL
MODEL       42
REMARK 921   NORMALIZED FREE ENERGY PREDICTED BY IDOCK:   -6.14 KCAL/MOL
REMARK 922        TOTAL FREE ENERGY PREDICTED BY IDOCK:  -10.56 KCAL/MOL
REMARK 923 INTER-LIGAND FREE ENERGY PREDICTED BY IDOCK:   -9.59 KCAL/MOL
REMARK 924 INTRA-LIGAND FREE ENERGY PREDICTED BY IDOCK:   -0.96 KCAL/MOL
REMARK 927      BINDING AFFINITY PREDICTED BY RF-SCORE:    0.00 PKD
ROOT
HETATM    1  C   UNL     1      -9.040  10.519  62.350  1.00  0.00    -0.281 C  
HETATM    2  N   UNL     1     -10.133  10.676  63.319  1.00  0.00    -0.258 NA 
HETATM    3  C   UNL     1      -9.726  10.060  64.591  1.00  0.00    -0.269 C  
ENDROOT
BRANCH   2   4
HETATM    4  C   UNL     1     -10.436  12.099  63.546  1.00  0.00    -0.454 C  
BRANCH   4   5
HETATM    5  C   UNL     1     -10.326  12.593  64.961  1.00  0.00    -0.320 C  
HETATM    6  C   UNL     1     -10.829  13.727  65.480  1.00  0.00    -0.299 C  
BRANCH   6   7
HETATM    7  C   UNL     1     -10.589  14.034  66.916  1.00  0.00    -0.280 C  
HETATM    8  N   UNL     1     -11.568  14.834  67.482  1.00  0.00    -0.358 N  
HETATM    9  O   UNL     1      -9.643  13.531  67.515  1.00  0.00    -0.210 OA 
HETATM   10  H   UNL     1     -12.292  15.229  66.881  1.00  0.00     0.000 HD 
BRANCH   8  11
HETATM   11  C   UNL     1     -11.597  15.121  68.867  1.00  0.00    -0.341 A  
HETATM   12  C   UNL     1     -10.905  16.199  69.423  1.00  0.00    -0.320 A  
HETATM   13  N   UNL     1     -13.143  14.031  73.372  1.00  0.00    -0.371 NA 
HETATM   14  C   UNL     1     -11.036  16.455  70.797  1.00  0.00    -0.128 A  
HETATM   15  C   UNL     1     -12.302  14.267  69.735  1.00  0.00    -0.342 A  
HETATM   16  C   UNL     1     -11.790  15.656  71.652  1.00  0.00    -0.429 A  
HETATM   17  C   UNL     1     -12.391  14.507  71.133  1.00  0.00    -0.415 A  
HETATM   18  N   UNL     1     -11.883  16.002  72.939  1.00  0.00    -0.474 NA 
HETATM   19  C   UNL     1     -12.581  15.185  73.734  1.00  0.00    -0.575 A  
HETATM   20  C   UNL     1     -13.040  13.676  72.079  1.00  0.00    -0.393 A  
BRANCH  12  21
HETATM   21  O   UNL     1      -9.962  16.969  68.806  1.00  0.00    -0.264 OA 
BRANCH  21  22
HETATM   22  C   UNL     1      -8.578  16.640  68.853  1.00  0.00    -0.235 C  
HETATM   23  C   UNL     1      -6.605  16.500  67.485  1.00  0.00    -0.151 C  
HETATM   24  C   UNL     1      -7.813  17.959  68.788  1.00  0.00    -0.253 C  
HETATM   25  O   UNL     1      -6.497  17.642  68.341  1.00  0.00    -0.182 OA 
HETATM   26  C   UNL     1      -7.997  15.904  67.661  1.00  0.00    -0.163 C  
ENDBRANCH  21  22
ENDBRANCH  12  21
BRANCH  20  27
HETATM   27  N   UNL     1     -13.593  12.434  71.657  1.00  0.00    -0.024 NA 
HETATM   28  H   UNL     1     -14.555  12.469  71.319  1.00  0.00     0.000 HD 
BRANCH  27  29
HETATM   29  C   UNL     1     -12.982  11.155  71.646  1.00  0.00    -0.443 A  
HETATM   30  C   UNL     1     -13.644   9.989  72.061  1.00  0.00    -0.366 A  
HETATM   31  C   UNL     1     -13.016   8.743  71.983  1.00  0.00    -0.390 A  
HETATM   32 CL   UNL     1     -13.850   7.342  72.551  1.00  0.00     0.289 Cl 
HETATM   33  C   UNL     1     -11.732   8.640  71.463  1.00  0.00    -0.305 A  
HETATM   34  C   UNL     1     -11.076   9.769  70.998  1.00  0.00    -0.431 A  
HETATM   35  F   UNL     1     -11.118   7.453  71.382  1.00  0.00    -0.238 F  
HETATM   36  C   UNL     1     -11.700  11.018  71.080  1.00  0.00     0.081 A  
ENDBRANCH  27  29
ENDBRANCH  20  27
ENDBRANCH   8  11
ENDBRANCH   6   7
ENDBRANCH   4   5
ENDBRANCH   2   4
TORSDOF 8
ENDMDL
MODEL       43
REMARK 921   NORMALIZED FREE ENERGY PREDICTED BY IDOCK:   -6.14 KCAL/MOL
REMARK 922        TOTAL FREE ENERGY PREDICTED BY IDOCK:  -10.55 KCAL/MOL
REMARK 923 INTER-LIGAND FREE ENERGY PREDICTED BY IDOCK:  -10.13 KCAL/MOL
REMARK 924 INTRA-LIGAND FREE ENERGY PREDICTED BY IDOCK:   -0.42 KCAL/MOL
REMARK 927      BINDING AFFINITY PREDICTED BY RF-SCORE:    0.00 PKD
ROOT
HETATM    1  C   UNL     1     -13.322   7.117  71.253  1.00  0.00    -0.244 C  
HETATM    2  N   UNL     1     -12.024   6.904  71.906  1.00  0.00    -0.313 NA 
HETATM    3  C   UNL     1     -11.123   6.237  70.955  1.00  0.00    -0.306 C  
ENDROOT
BRANCH   2   4
HETATM    4  C   UNL     1     -11.427   8.185  72.322  1.00  0.00    -0.371 C  
BRANCH   4   5
HETATM    5  C   UNL     1     -11.493   9.312  71.329  1.00  0.00    -0.418 C  
HETATM    6  C   UNL     1     -12.376  10.326  71.291  1.00  0.00    -0.506 C  
BRANCH   6   7
HETATM    7  C   UNL     1     -12.269  11.336  70.204  1.00  0.00    -0.330 C  
HETATM    8  N   UNL     1     -11.962  12.608  70.659  1.00  0.00    -0.519 N  
HETATM    9  O   UNL     1     -12.370  11.004  69.027  1.00  0.00    -0.481 OA 
HETATM   10  H   UNL     1     -11.938  12.782  71.664  1.00  0.00     0.000 HD 
BRANCH   8  11
HETATM   11  C   UNL     1     -11.679  13.676  69.774  1.00  0.00    -0.297 A  
HETATM   12  C   UNL     1     -12.339  14.903  69.847  1.00  0.00    -0.280 A  
HETATM   13  N   UNL     1      -9.159  15.465  65.990  1.00  0.00    -0.309 NA 
HETATM   14  C   UNL     1     -11.956  15.934  68.974  1.00  0.00    -0.243 A  
HETATM   15  C   UNL     1     -10.738  13.489  68.745  1.00  0.00    -0.261 A  
HETATM   16  C   UNL     1     -10.975  15.780  67.999  1.00  0.00    -0.330 A  
HETATM   17  C   UNL     1     -10.390  14.522  67.834  1.00  0.00    -0.231 A  
HETATM   18  N   UNL     1     -10.655  16.831  67.237  1.00  0.00    -0.306 NA 
HETATM   19  C   UNL     1      -9.738  16.629  66.286  1.00  0.00    -0.304 A  
HETATM   20  C   UNL     1      -9.490  14.404  66.748  1.00  0.00    -0.267 A  
BRANCH  12  21
HETATM   21  O   UNL     1     -13.453  15.189  70.581  1.00  0.00    -0.318 OA 
BRANCH  21  22
HETATM   22  C   UNL     1     -13.373  15.564  71.951  1.00  0.00    -0.477 C  
HETATM   23  C   UNL     1     -12.260  15.023  74.013  1.00  0.00    -0.501 C  
HETATM   24  C   UNL     1     -12.055  16.314  72.123  1.00  0.00    -0.454 C  
HETATM   25  O   UNL     1     -11.732  16.254  73.510  1.00  0.00    -0.280 OA 
HETATM   26  C   UNL     1     -13.213  14.452  72.969  1.00  0.00    -0.547 C  
ENDBRANCH  21  22
ENDBRANCH  12  21
BRANCH  20  27
HETATM   27  N   UNL     1      -8.923  13.134  66.443  1.00  0.00    -0.452 NA 
HETATM   28  H   UNL     1      -9.095  12.787  65.499  1.00  0.00     0.000 HD 
BRANCH  27  29
HETATM   29  C   UNL     1      -8.151  12.289  67.278  1.00  0.00    -0.182 A  
HETATM   30  C   UNL     1      -8.464  10.939  67.498  1.00  0.00    -0.123 A  
HETATM   31  C   UNL     1      -7.642  10.133  68.291  1.00  0.00    -0.087 A  
HETATM   32 CL   UNL     1      -8.092   8.491  68.574  1.00  0.00    -0.120 Cl 
HETATM   33  C   UNL     1      -6.483  10.656  68.850  1.00  0.00    -0.049 A  
HETATM   34  C   UNL     1      -6.123  11.972  68.606  1.00  0.00    -0.053 A  
HETATM   35  F   UNL     1      -5.685   9.895  69.611  1.00  0.00    -0.036 F  
HETATM   36  C   UNL     1      -6.947  12.782  67.818  1.00  0.00    -0.131 A  
ENDBRANCH  27  29
ENDBRANCH  20  27
ENDBRANCH   8  11
ENDBRANCH   6   7
ENDBRANCH   4   5
ENDBRANCH   2   4
TORSDOF 8
ENDMDL
MODEL       44
REMARK 921   NORMALIZED FREE ENERGY PREDICTED BY IDOCK:   -6.12 KCAL/MOL
REMARK 922        TOTAL FREE ENERGY PREDICTED BY IDOCK:  -10.52 KCAL/MOL
REMARK 923 INTER-LIGAND FREE ENERGY PREDICTED BY IDOCK:   -9.60 KCAL/MOL
REMARK 924 INTRA-LIGAND FREE ENERGY PREDICTED BY IDOCK:   -0.92 KCAL/MOL
REMARK 927      BINDING AFFINITY PREDICTED BY RF-SCORE:    0.00 PKD
ROOT
HETATM    1  C   UNL     1      -8.130   3.770  65.417  1.00  0.00    -0.097 C  
HETATM    2  N   UNL     1      -9.144   4.792  65.124  1.00  0.00    -0.155 NA 
HETATM    3  C   UNL     1      -9.956   5.009  66.331  1.00  0.00    -0.226 C  
ENDROOT
BRANCH   2   4
HETATM    4  C   UNL     1      -8.512   6.064  64.732  1.00  0.00    -0.031 C  
BRANCH   4   5
HETATM    5  C   UNL     1      -8.761   7.244  65.629  1.00  0.00    -0.092 C  
HETATM    6  C   UNL     1      -8.759   8.547  65.296  1.00  0.00    -0.175 C  
BRANCH   6   7
HETATM    7  C   UNL     1      -9.017   9.562  66.353  1.00  0.00    -0.154 C  
HETATM    8  N   UNL     1     -10.310  10.062  66.334  1.00  0.00    -0.209 N  
HETATM    9  O   UNL     1      -8.159   9.833  67.187  1.00  0.00    -0.115 OA 
HETATM   10  H   UNL     1     -10.932   9.796  65.571  1.00  0.00     0.000 HD 
BRANCH   8  11
HETATM   11  C   UNL     1     -10.794  10.930  67.341  1.00  0.00    -0.279 A  
HETATM   12  C   UNL     1     -10.646  12.316  67.270  1.00  0.00    -0.224 A  
HETATM   13  N   UNL     1     -13.068  11.580  71.617  1.00  0.00    -0.439 NA 
HETATM   14  C   UNL     1     -11.212  13.113  68.278  1.00  0.00    -0.307 A  
HETATM   15  C   UNL     1     -11.404  10.387  68.487  1.00  0.00    -0.283 A  
HETATM   16  C   UNL     1     -11.879  12.586  69.380  1.00  0.00    -0.308 A  
HETATM   17  C   UNL     1     -11.932  11.198  69.527  1.00  0.00    -0.425 A  
HETATM   18  N   UNL     1     -12.414  13.428  70.269  1.00  0.00    -0.260 NA 
HETATM   19  C   UNL     1     -13.010  12.882  71.334  1.00  0.00    -0.270 A  
HETATM   20  C   UNL     1     -12.518  10.733  70.728  1.00  0.00    -0.387 A  
BRANCH  12  21
HETATM   21  O   UNL     1      -9.860  13.009  66.396  1.00  0.00    -0.259 OA 
BRANCH  21  22
HETATM   22  C   UNL     1     -10.324  13.378  65.102  1.00  0.00    -0.336 C  
HETATM   23  C   UNL     1     -11.946  12.802  63.422  1.00  0.00    -0.535 C  
HETATM   24  C   UNL     1     -11.657  14.094  65.302  1.00  0.00    -0.341 C  
HETATM   25  O   UNL     1     -12.347  14.021  64.057  1.00  0.00    -0.646 OA 
HETATM   26  C   UNL     1     -10.729  12.259  64.162  1.00  0.00    -0.412 C  
ENDBRANCH  21  22
ENDBRANCH  12  21
BRANCH  20  27
HETATM   27  N   UNL     1     -12.525   9.337  71.010  1.00  0.00    -0.449 NA 
HETATM   28  H   UNL     1     -13.354   8.827  70.704  1.00  0.00     0.000 HD 
BRANCH  27  29
HETATM   29  C   UNL     1     -11.530   8.563  71.659  1.00  0.00    -0.298 A  
HETATM   30  C   UNL     1     -11.796   7.319  72.252  1.00  0.00    -0.287 A  
HETATM   31  C   UNL     1     -10.771   6.570  72.835  1.00  0.00    -0.251 A  
HETATM   32 CL   UNL     1     -11.152   5.068  73.597  1.00  0.00    -0.377 Cl 
HETATM   33  C   UNL     1      -9.463   7.039  72.809  1.00  0.00    -0.146 A  
HETATM   34  C   UNL     1      -9.165   8.239  72.184  1.00  0.00    -0.289 A  
HETATM   35  F   UNL     1      -8.470   6.331  73.363  1.00  0.00    -0.120 F  
HETATM   36  C   UNL     1     -10.190   8.993  71.604  1.00  0.00    -0.418 A  
ENDBRANCH  27  29
ENDBRANCH  20  27
ENDBRANCH   8  11
ENDBRANCH   6   7
ENDBRANCH   4   5
ENDBRANCH   2   4
TORSDOF 8
ENDMDL
MODEL       45
REMARK 921   NORMALIZED FREE ENERGY PREDICTED BY IDOCK:   -6.11 KCAL/MOL
REMARK 922        TOTAL FREE ENERGY PREDICTED BY IDOCK:  -10.51 KCAL/MOL
REMARK 923 INTER-LIGAND FREE ENERGY PREDICTED BY IDOCK:   -9.35 KCAL/MOL
REMARK 924 INTRA-LIGAND FREE ENERGY PREDICTED BY IDOCK:   -1.16 KCAL/MOL
REMARK 927      BINDING AFFINITY PREDICTED BY RF-SCORE:    0.00 PKD
ROOT
HETATM    1  C   UNL     1      -7.684  19.076  66.064  1.00  0.00    -0.229 C  
HETATM    2  N   UNL     1      -7.924  17.632  65.942  1.00  0.00    -0.555 NA 
HETATM    3  C   UNL     1      -7.141  16.937  66.975  1.00  0.00    -0.199 C  
ENDROOT
BRANCH   2   4
HETATM    4  C   UNL     1      -9.352  17.318  66.125  1.00  0.00    -0.168 C  
BRANCH   4   5
HETATM    5  C   UNL     1      -9.696  16.381  67.248  1.00  0.00    -0.239 C  
HETATM    6  C   UNL     1     -10.294  15.179  67.165  1.00  0.00    -0.263 C  
BRANCH   6   7
HETATM    7  C   UNL     1     -10.557  14.415  68.414  1.00  0.00    -0.247 C  
HETATM    8  N   UNL     1     -11.525  13.434  68.268  1.00  0.00    -0.293 N  
HETATM    9  O   UNL     1      -9.894  14.619  69.426  1.00  0.00    -0.128 OA 
HETATM   10  H   UNL     1     -12.042  13.376  67.391  1.00  0.00     0.000 HD 
BRANCH   8  11
HETATM   11  C   UNL     1     -11.818  12.508  69.298  1.00  0.00    -0.304 A  
HETATM   12  C   UNL     1     -12.575  12.852  70.419  1.00  0.00    -0.074 A  
HETATM   13  N   UNL     1     -11.417   8.014  71.174  1.00  0.00    -0.273 NA 
HETATM   14  C   UNL     1     -12.878  11.858  71.366  1.00  0.00    -0.411 A  
HETATM   15  C   UNL     1     -11.290  11.206  69.228  1.00  0.00    -0.349 A  
HETATM   16  C   UNL     1     -12.418  10.549  71.267  1.00  0.00    -0.419 A  
HETATM   17  C   UNL     1     -11.561  10.220  70.214  1.00  0.00    -0.396 A  
HETATM   18  N   UNL     1     -12.788   9.666  72.200  1.00  0.00    -0.389 NA 
HETATM   19  C   UNL     1     -12.291   8.430  72.092  1.00  0.00    -0.370 A  
HETATM   20  C   UNL     1     -11.035   8.906  70.242  1.00  0.00    -0.241 A  
BRANCH  12  21
HETATM   21  O   UNL     1     -12.942  14.108  70.804  1.00  0.00    -0.329 OA 
BRANCH  21  22
HETATM   22  C   UNL     1     -12.904  14.516  72.166  1.00  0.00    -0.339 C  
HETATM   23  C   UNL     1     -12.250  16.338  73.594  1.00  0.00    -0.501 C  
HETATM   24  C   UNL     1     -14.012  15.551  72.344  1.00  0.00    -0.560 C  
HETATM   25  O   UNL     1     -13.678  16.306  73.506  1.00  0.00    -0.595 OA 
HETATM   26  C   UNL     1     -11.691  15.302  72.625  1.00  0.00    -0.518 C  
ENDBRANCH  21  22
ENDBRANCH  12  21
BRANCH  20  27
HETATM   27  N   UNL     1     -10.075   8.515  69.265  1.00  0.00    -0.197 NA 
HETATM   28  H   UNL     1      -9.937   9.168  68.494  1.00  0.00     0.000 HD 
BRANCH  27  29
HETATM   29  C   UNL     1      -9.287   7.337  69.225  1.00  0.00    -0.154 A  
HETATM   30  C   UNL     1      -8.126   7.169  69.995  1.00  0.00    -0.127 A  
HETATM   31  C   UNL     1      -7.410   5.969  69.959  1.00  0.00    -0.075 A  
HETATM   32 CL   UNL     1      -5.960   5.823  70.885  1.00  0.00    -0.028 Cl 
HETATM   33  C   UNL     1      -7.860   4.912  69.178  1.00  0.00    -0.072 A  
HETATM   34  C   UNL     1      -9.033   5.033  68.449  1.00  0.00    -0.123 A  
HETATM   35  F   UNL     1      -7.186   3.755  69.134  1.00  0.00    -0.047 F  
HETATM   36  C   UNL     1      -9.747   6.236  68.479  1.00  0.00    -0.137 A  
ENDBRANCH  27  29
ENDBRANCH  20  27
ENDBRANCH   8  11
ENDBRANCH   6   7
ENDBRANCH   4   5
ENDBRANCH   2   4
TORSDOF 8
ENDMDL
MODEL       46
REMARK 921   NORMALIZED FREE ENERGY PREDICTED BY IDOCK:   -6.10 KCAL/MOL
REMARK 922        TOTAL FREE ENERGY PREDICTED BY IDOCK:  -10.49 KCAL/MOL
REMARK 923 INTER-LIGAND FREE ENERGY PREDICTED BY IDOCK:   -9.59 KCAL/MOL
REMARK 924 INTRA-LIGAND FREE ENERGY PREDICTED BY IDOCK:   -0.90 KCAL/MOL
REMARK 927      BINDING AFFINITY PREDICTED BY RF-SCORE:    0.00 PKD
ROOT
HETATM    1  C   UNL     1     -11.934  15.721  72.584  1.00  0.00    -0.491 C  
HETATM    2  N   UNL     1     -12.519  15.809  71.240  1.00  0.00    -0.442 NA 
HETATM    3  C   UNL     1     -11.468  16.216  70.295  1.00  0.00    -0.308 C  
ENDROOT
BRANCH   2   4
HETATM    4  C   UNL     1     -13.070  14.510  70.819  1.00  0.00    -0.306 C  
BRANCH   4   5
HETATM    5  C   UNL     1     -12.129  13.576  70.112  1.00  0.00    -0.425 C  
HETATM    6  C   UNL     1     -12.262  12.250  69.931  1.00  0.00    -0.234 C  
BRANCH   6   7
HETATM    7  C   UNL     1     -11.195  11.508  69.208  1.00  0.00    -0.272 C  
HETATM    8  N   UNL     1     -11.591  10.254  68.773  1.00  0.00    -0.512 N  
HETATM    9  O   UNL     1     -10.112  12.036  68.973  1.00  0.00    -0.072 OA 
HETATM   10  H   UNL     1     -12.504   9.897  69.057  1.00  0.00     0.000 HD 
BRANCH   8  11
HETATM   11  C   UNL     1     -10.770   9.450  67.946  1.00  0.00    -0.210 A  
HETATM   12  C   UNL     1     -10.490   8.115  68.240  1.00  0.00    -0.160 A  
HETATM   13  N   UNL     1      -7.983   8.965  63.963  1.00  0.00    -0.144 NA 
HETATM   14  C   UNL     1      -9.720   7.367  67.335  1.00  0.00    -0.196 A  
HETATM   15  C   UNL     1     -10.165  10.021  66.811  1.00  0.00    -0.295 A  
HETATM   16  C   UNL     1      -9.176   7.905  66.172  1.00  0.00    -0.152 A  
HETATM   17  C   UNL     1      -9.347   9.269  65.925  1.00  0.00    -0.297 A  
HETATM   18  N   UNL     1      -8.485   7.103  65.356  1.00  0.00    -0.119 NA 
HETATM   19  C   UNL     1      -7.945   7.668  64.272  1.00  0.00    -0.112 A  
HETATM   20  C   UNL     1      -8.667   9.774  64.791  1.00  0.00    -0.192 A  
BRANCH  12  21
HETATM   21  O   UNL     1     -10.750   7.465  69.411  1.00  0.00    -0.234 OA 
BRANCH  21  22
HETATM   22  C   UNL     1      -9.962   7.677  70.577  1.00  0.00    -0.184 C  
HETATM   23  C   UNL     1     -10.112   7.871  72.969  1.00  0.00    -0.317 C  
HETATM   24  C   UNL     1      -9.855   6.329  71.284  1.00  0.00    -0.175 C  
HETATM   25  O   UNL     1      -9.523   6.609  72.642  1.00  0.00    -0.144 OA 
HETATM   26  C   UNL     1     -10.559   8.538  71.674  1.00  0.00    -0.353 C  
ENDBRANCH  21  22
ENDBRANCH  12  21
BRANCH  20  27
HETATM   27  N   UNL     1      -8.702  11.171  64.518  1.00  0.00    -0.377 NA 
HETATM   28  H   UNL     1      -7.815  11.591  64.239  1.00  0.00     0.000 HD 
BRANCH  27  29
HETATM   29  C   UNL     1      -9.808  12.055  64.584  1.00  0.00    -0.157 A  
HETATM   30  C   UNL     1      -9.923  13.064  65.553  1.00  0.00    -0.226 A  
HETATM   31  C   UNL     1     -11.008  13.944  65.546  1.00  0.00    -0.302 A  
HETATM   32 CL   UNL     1     -11.134  15.139  66.786  1.00  0.00    -0.323 Cl 
HETATM   33  C   UNL     1     -11.977  13.848  64.555  1.00  0.00    -0.437 A  
HETATM   34  C   UNL     1     -11.861  12.895  63.555  1.00  0.00    -0.605 A  
HETATM   35  F   UNL     1     -13.023  14.686  64.534  1.00  0.00    -0.304 F  
HETATM   36  C   UNL     1     -10.778  12.009  63.564  1.00  0.00    -0.513 A  
ENDBRANCH  27  29
ENDBRANCH  20  27
ENDBRANCH   8  11
ENDBRANCH   6   7
ENDBRANCH   4   5
ENDBRANCH   2   4
TORSDOF 8
ENDMDL
MODEL       47
REMARK 921   NORMALIZED FREE ENERGY PREDICTED BY IDOCK:   -6.08 KCAL/MOL
REMARK 922        TOTAL FREE ENERGY PREDICTED BY IDOCK:  -10.47 KCAL/MOL
REMARK 923 INTER-LIGAND FREE ENERGY PREDICTED BY IDOCK:   -9.37 KCAL/MOL
REMARK 924 INTRA-LIGAND FREE ENERGY PREDICTED BY IDOCK:   -1.09 KCAL/MOL
REMARK 927      BINDING AFFINITY PREDICTED BY RF-SCORE:    0.00 PKD
ROOT
HETATM    1  C   UNL     1     -12.528  12.035  63.460  1.00  0.00    -0.540 C  
HETATM    2  N   UNL     1     -11.141  12.510  63.377  1.00  0.00    -0.437 NA 
HETATM    3  C   UNL     1     -10.873  13.384  64.529  1.00  0.00    -0.406 C  
ENDROOT
BRANCH   2   4
HETATM    4  C   UNL     1     -10.195  11.381  63.397  1.00  0.00    -0.411 C  
BRANCH   4   5
HETATM    5  C   UNL     1     -10.028  10.667  64.709  1.00  0.00    -0.391 C  
HETATM    6  C   UNL     1      -9.160   9.683  65.008  1.00  0.00    -0.284 C  
BRANCH   6   7
HETATM    7  C   UNL     1      -9.172   9.101  66.377  1.00  0.00    -0.183 C  
HETATM    8  N   UNL     1      -9.974   7.977  66.492  1.00  0.00    -0.401 N  
HETATM    9  O   UNL     1      -8.456   9.561  67.261  1.00  0.00    -0.126 OA 
HETATM   10  H   UNL     1     -10.558   7.702  65.702  1.00  0.00     0.000 HD 
BRANCH   8  11
HETATM   11  C   UNL     1     -10.010   7.197  67.673  1.00  0.00    -0.158 A  
HETATM   12  C   UNL     1      -9.247   6.039  67.828  1.00  0.00    -0.107 A  
HETATM   13  N   UNL     1     -11.768   6.420  72.165  1.00  0.00    -0.316 NA 
HETATM   14  C   UNL     1      -9.289   5.356  69.055  1.00  0.00    -0.163 A  
HETATM   15  C   UNL     1     -10.882   7.562  68.715  1.00  0.00    -0.047 A  
HETATM   16  C   UNL     1     -10.096   5.752  70.118  1.00  0.00    -0.212 A  
HETATM   17  C   UNL     1     -10.954   6.839  69.936  1.00  0.00    -0.340 A  
HETATM   18  N   UNL     1     -10.041   5.057  71.259  1.00  0.00    -0.199 NA 
HETATM   19  C   UNL     1     -10.862   5.444  72.240  1.00  0.00    -0.227 A  
HETATM   20  C   UNL     1     -11.832   7.111  71.013  1.00  0.00    -0.333 A  
BRANCH  12  21
HETATM   21  O   UNL     1      -8.561   5.377  66.853  1.00  0.00    -0.111 OA 
BRANCH  21  22
HETATM   22  C   UNL     1      -9.124   4.268  66.160  1.00  0.00    -0.133 C  
HETATM   23  C   UNL     1     -10.338   3.682  64.169  1.00  0.00    -0.246 C  
HETATM   24  C   UNL     1      -8.206   3.980  64.975  1.00  0.00    -0.101 C  
HETATM   25  O   UNL     1      -8.981   3.246  64.031  1.00  0.00    -0.096 OA 
HETATM   26  C   UNL     1     -10.450   4.487  65.458  1.00  0.00    -0.241 C  
ENDBRANCH  21  22
ENDBRANCH  12  21
BRANCH  20  27
HETATM   27  N   UNL     1     -12.810   8.137  70.877  1.00  0.00    -0.497 NA 
HETATM   28  H   UNL     1     -13.768   7.819  70.728  1.00  0.00     0.000 HD 
BRANCH  27  29
HETATM   29  C   UNL     1     -12.627   9.542  70.921  1.00  0.00    -0.177 A  
HETATM   30  C   UNL     1     -11.959  10.257  69.915  1.00  0.00    -0.222 A  
HETATM   31  C   UNL     1     -11.849  11.649  69.978  1.00  0.00    -0.355 A  
HETATM   32 CL   UNL     1     -10.976  12.482  68.743  1.00  0.00    -0.281 Cl 
HETATM   33  C   UNL     1     -12.428  12.347  71.030  1.00  0.00    -0.256 A  
HETATM   34  C   UNL     1     -13.138  11.670  72.009  1.00  0.00    -0.433 A  
HETATM   35  F   UNL     1     -12.332  13.681  71.103  1.00  0.00    -0.393 F  
HETATM   36  C   UNL     1     -13.245  10.277  71.951  1.00  0.00    -0.550 A  
ENDBRANCH  27  29
ENDBRANCH  20  27
ENDBRANCH   8  11
ENDBRANCH   6   7
ENDBRANCH   4   5
ENDBRANCH   2   4
TORSDOF 8
ENDMDL
MODEL       48
REMARK 921   NORMALIZED FREE ENERGY PREDICTED BY IDOCK:   -6.07 KCAL/MOL
REMARK 922        TOTAL FREE ENERGY PREDICTED BY IDOCK:  -10.45 KCAL/MOL
REMARK 923 INTER-LIGAND FREE ENERGY PREDICTED BY IDOCK:   -9.64 KCAL/MOL
REMARK 924 INTRA-LIGAND FREE ENERGY PREDICTED BY IDOCK:   -0.82 KCAL/MOL
REMARK 927      BINDING AFFINITY PREDICTED BY RF-SCORE:    0.00 PKD
ROOT
HETATM    1  C   UNL     1      -8.166  19.544  69.120  1.00  0.00    -0.114 C  
HETATM    2  N   UNL     1      -9.107  19.230  68.038  1.00  0.00    -0.308 NA 
HETATM    3  C   UNL     1      -8.433  18.354  67.067  1.00  0.00    -0.253 C  
ENDROOT
BRANCH   2   4
HETATM    4  C   UNL     1     -10.301  18.544  68.560  1.00  0.00    -0.277 C  
BRANCH   4   5
HETATM    5  C   UNL     1     -10.442  17.086  68.223  1.00  0.00    -0.363 C  
HETATM    6  C   UNL     1     -11.266  16.185  68.786  1.00  0.00    -0.365 C  
BRANCH   6   7
HETATM    7  C   UNL     1     -11.233  14.777  68.306  1.00  0.00    -0.286 C  
HETATM    8  N   UNL     1     -10.049  14.437  67.672  1.00  0.00    -0.221 N  
HETATM    9  O   UNL     1     -12.159  14.009  68.550  1.00  0.00    -0.357 OA 
HETATM   10  H   UNL     1      -9.359  15.166  67.488  1.00  0.00     0.000 HD 
BRANCH   8  11
HETATM   11  C   UNL     1      -9.766  13.110  67.270  1.00  0.00    -0.230 A  
HETATM   12  C   UNL     1      -9.618  12.750  65.929  1.00  0.00    -0.136 A  
HETATM   13  N   UNL     1      -8.937   8.436  68.427  1.00  0.00    -0.136 NA 
HETATM   14  C   UNL     1      -9.273  11.425  65.616  1.00  0.00    -0.209 A  
HETATM   15  C   UNL     1      -9.679  12.097  68.242  1.00  0.00    -0.216 A  
HETATM   16  C   UNL     1      -9.115  10.432  66.578  1.00  0.00    -0.155 A  
HETATM   17  C   UNL     1      -9.377  10.749  67.913  1.00  0.00    -0.154 A  
HETATM   18  N   UNL     1      -8.752   9.207  66.184  1.00  0.00    -0.141 NA 
HETATM   19  C   UNL     1      -8.652   8.273  67.134  1.00  0.00    -0.123 A  
HETATM   20  C   UNL     1      -9.315   9.665  68.822  1.00  0.00    -0.148 A  
BRANCH  12  21
HETATM   21  O   UNL     1      -9.928  13.511  64.840  1.00  0.00    -0.263 OA 
BRANCH  21  22
HETATM   22  C   UNL     1     -11.132  13.315  64.107  1.00  0.00    -0.365 C  
HETATM   23  C   UNL     1     -12.678  11.615  63.399  1.00  0.00    -0.124 C  
HETATM   24  C   UNL     1     -12.232  13.057  65.133  1.00  0.00    -0.459 C  
HETATM   25  O   UNL     1     -13.283  12.388  64.440  1.00  0.00    -0.816 OA 
HETATM   26  C   UNL     1     -11.231  12.068  63.250  1.00  0.00    -0.403 C  
ENDBRANCH  21  22
ENDBRANCH  12  21
BRANCH  20  27
HETATM   27  N   UNL     1      -9.665   9.874  70.186  1.00  0.00    -0.350 NA 
HETATM   28  H   UNL     1      -8.954  10.326  70.762  1.00  0.00     0.000 HD 
BRANCH  27  29
HETATM   29  C   UNL     1     -10.871   9.537  70.849  1.00  0.00    -0.337 A  
HETATM   30  C   UNL     1     -11.190   8.226  71.236  1.00  0.00    -0.302 A  
HETATM   31  C   UNL     1     -12.369   7.951  71.933  1.00  0.00    -0.315 A  
HETATM   32 CL   UNL     1     -12.744   6.317  72.346  1.00  0.00    -0.016 Cl 
HETATM   33  C   UNL     1     -13.232   8.984  72.279  1.00  0.00    -0.460 A  
HETATM   34  C   UNL     1     -12.917  10.294  71.954  1.00  0.00    -0.554 A  
HETATM   35  F   UNL     1     -14.366   8.736  72.948  1.00  0.00    -0.440 F  
HETATM   36  C   UNL     1     -11.739  10.570  71.252  1.00  0.00    -0.241 A  
ENDBRANCH  27  29
ENDBRANCH  20  27
ENDBRANCH   8  11
ENDBRANCH   6   7
ENDBRANCH   4   5
ENDBRANCH   2   4
TORSDOF 8
ENDMDL
MODEL       49
REMARK 921   NORMALIZED FREE ENERGY PREDICTED BY IDOCK:   -6.07 KCAL/MOL
REMARK 922        TOTAL FREE ENERGY PREDICTED BY IDOCK:  -10.45 KCAL/MOL
REMARK 923 INTER-LIGAND FREE ENERGY PREDICTED BY IDOCK:   -9.84 KCAL/MOL
REMARK 924 INTRA-LIGAND FREE ENERGY PREDICTED BY IDOCK:   -0.60 KCAL/MOL
REMARK 927      BINDING AFFINITY PREDICTED BY RF-SCORE:    0.00 PKD
ROOT
HETATM    1  C   UNL     1      -9.293   5.141  66.777  1.00  0.00    -0.134 C  
HETATM    2  N   UNL     1      -9.635   6.315  67.591  1.00  0.00    -0.114 NA 
HETATM    3  C   UNL     1      -8.571   6.524  68.585  1.00  0.00    -0.124 C  
ENDROOT
BRANCH   2   4
HETATM    4  C   UNL     1      -9.758   7.519  66.752  1.00  0.00    -0.216 C  
BRANCH   4   5
HETATM    5  C   UNL     1     -10.476   8.692  67.359  1.00  0.00    -0.351 C  
HETATM    6  C   UNL     1     -10.577   9.940  66.869  1.00  0.00    -0.248 C  
BRANCH   6   7
HETATM    7  C   UNL     1     -11.330  10.962  67.646  1.00  0.00    -0.270 C  
HETATM    8  N   UNL     1     -11.212  10.811  69.018  1.00  0.00    -0.241 N  
HETATM    9  O   UNL     1     -11.916  11.878  67.076  1.00  0.00    -0.615 OA 
HETATM   10  H   UNL     1     -10.732   9.989  69.386  1.00  0.00     0.000 HD 
BRANCH   8  11
HETATM   11  C   UNL     1     -11.736  11.761  69.927  1.00  0.00    -0.323 A  
HETATM   12  C   UNL     1     -12.795  11.469  70.787  1.00  0.00    -0.134 A  
HETATM   13  N   UNL     1     -11.675  16.262  71.827  1.00  0.00    -0.485 NA 
HETATM   14  C   UNL     1     -13.214  12.446  71.705  1.00  0.00    -0.435 A  
HETATM   15  C   UNL     1     -11.214  13.068  69.937  1.00  0.00     0.082 A  
HETATM   16  C   UNL     1     -12.655  13.719  71.770  1.00  0.00    -0.226 A  
HETATM   17  C   UNL     1     -11.676  14.066  70.836  1.00  0.00    -0.136 A  
HETATM   18  N   UNL     1     -13.099  14.568  72.702  1.00  0.00    -0.434 NA 
HETATM   19  C   UNL     1     -12.565  15.794  72.704  1.00  0.00    -0.445 A  
HETATM   20  C   UNL     1     -11.238  15.411  70.882  1.00  0.00    -0.358 A  
BRANCH  12  21
HETATM   21  O   UNL     1     -13.603  10.371  70.743  1.00  0.00    -0.120 OA 
BRANCH  21  22
HETATM   22  C   UNL     1     -13.471   9.305  71.676  1.00  0.00    -0.398 C  
HETATM   23  C   UNL     1     -13.504   6.906  71.846  1.00  0.00    -0.107 C  
HETATM   24  C   UNL     1     -12.100   8.679  71.434  1.00  0.00    -0.303 C  
HETATM   25  O   UNL     1     -12.154   7.362  71.977  1.00  0.00    -0.291 OA 
HETATM   26  C   UNL     1     -14.379   8.104  71.493  1.00  0.00    -0.534 C  
ENDBRANCH  21  22
ENDBRANCH  12  21
BRANCH  20  27
HETATM   27  N   UNL     1     -10.316  15.881  69.903  1.00  0.00    -0.295 NA 
HETATM   28  H   UNL     1      -9.369  16.062  70.237  1.00  0.00     0.000 HD 
BRANCH  27  29
HETATM   29  C   UNL     1     -10.542  16.131  68.527  1.00  0.00    -0.284 A  
HETATM   30  C   UNL     1     -10.469  17.413  67.961  1.00  0.00    -0.383 A  
HETATM   31  C   UNL     1     -10.649  17.602  66.588  1.00  0.00    -0.211 A  
HETATM   32 CL   UNL     1     -10.599  19.202  65.943  1.00  0.00    -0.544 Cl 
HETATM   33  C   UNL     1     -10.876  16.511  65.758  1.00  0.00    -0.134 A  
HETATM   34  C   UNL     1     -10.901  15.228  66.284  1.00  0.00    -0.312 A  
HETATM   35  F   UNL     1     -11.050  16.676  64.440  1.00  0.00    -0.447 F  
HETATM   36  C   UNL     1     -10.726  15.038  67.658  1.00  0.00    -0.274 A  
ENDBRANCH  27  29
ENDBRANCH  20  27
ENDBRANCH   8  11
ENDBRANCH   6   7
ENDBRANCH   4   5
ENDBRANCH   2   4
TORSDOF 8
ENDMDL
MODEL       50
REMARK 921   NORMALIZED FREE ENERGY PREDICTED BY IDOCK:   -6.01 KCAL/MOL
REMARK 922        TOTAL FREE ENERGY PREDICTED BY IDOCK:  -10.36 KCAL/MOL
REMARK 923 INTER-LIGAND FREE ENERGY PREDICTED BY IDOCK:   -9.49 KCAL/MOL
REMARK 924 INTRA-LIGAND FREE ENERGY PREDICTED BY IDOCK:   -0.86 KCAL/MOL
REMARK 927      BINDING AFFINITY PREDICTED BY RF-SCORE:    0.00 PKD
ROOT
HETATM    1  C   UNL     1     -12.601  15.344  73.880  1.00  0.00    -0.611 C  
HETATM    2  N   UNL     1     -12.777  15.496  72.430  1.00  0.00    -0.364 NA 
HETATM    3  C   UNL     1     -11.452  15.478  71.792  1.00  0.00    -0.426 C  
ENDROOT
BRANCH   2   4
HETATM    4  C   UNL     1     -13.593  14.399  71.881  1.00  0.00    -0.403 C  
BRANCH   4   5
HETATM    5  C   UNL     1     -12.858  13.324  71.132  1.00  0.00    -0.363 C  
HETATM    6  C   UNL     1     -12.876  11.999  71.361  1.00  0.00    -0.391 C  
BRANCH   6   7
HETATM    7  C   UNL     1     -12.056  11.104  70.501  1.00  0.00    -0.381 C  
HETATM    8  N   UNL     1     -12.183  11.372  69.147  1.00  0.00    -0.261 N  
HETATM    9  O   UNL     1     -11.293  10.281  70.998  1.00  0.00    -0.331 OA 
HETATM   10  H   UNL     1     -12.876  12.055  68.840  1.00  0.00     0.000 HD 
BRANCH   8  11
HETATM   11  C   UNL     1     -11.380  10.728  68.175  1.00  0.00    -0.308 A  
HETATM   12  C   UNL     1     -11.166  11.266  66.905  1.00  0.00    -0.230 A  
HETATM   13  N   UNL     1      -8.565   6.960  66.852  1.00  0.00    -0.114 NA 
HETATM   14  C   UNL     1     -10.304  10.597  66.020  1.00  0.00    -0.290 A  
HETATM   15  C   UNL     1     -10.814   9.473  68.468  1.00  0.00    -0.175 A  
HETATM   16  C   UNL     1      -9.683   9.391  66.329  1.00  0.00    -0.264 A  
HETATM   17  C   UNL     1      -9.982   8.780  67.550  1.00  0.00    -0.254 A  
HETATM   18  N   UNL     1      -8.852   8.849  65.434  1.00  0.00    -0.193 NA 
HETATM   19  C   UNL     1      -8.309   7.670  65.752  1.00  0.00    -0.141 A  
HETATM   20  C   UNL     1      -9.411   7.499  67.747  1.00  0.00    -0.141 A  
BRANCH  12  21
HETATM   21  O   UNL     1     -11.832  12.314  66.340  1.00  0.00    -0.529 OA 
BRANCH  21  22
HETATM   22  C   UNL     1     -11.162  13.288  65.549  1.00  0.00    -0.287 C  
HETATM   23  C   UNL     1     -11.480  15.412  64.467  1.00  0.00    -0.311 C  
HETATM   24  C   UNL     1     -10.861  14.468  66.469  1.00  0.00    -0.314 C  
HETATM   25  O   UNL     1     -10.661  15.599  65.625  1.00  0.00    -0.335 OA 
HETATM   26  C   UNL     1     -11.962  13.966  64.454  1.00  0.00    -0.480 C  
ENDBRANCH  21  22
ENDBRANCH  12  21
BRANCH  20  27
HETATM   27  N   UNL     1      -9.741   6.759  68.918  1.00  0.00    -0.137 NA 
HETATM   28  H   UNL     1     -10.223   5.873  68.761  1.00  0.00     0.000 HD 
BRANCH  27  29
HETATM   29  C   UNL     1      -9.489   7.091  70.272  1.00  0.00    -0.165 A  
HETATM   30  C   UNL     1      -8.295   7.692  70.702  1.00  0.00    -0.125 A  
HETATM   31  C   UNL     1      -8.113   8.047  72.041  1.00  0.00    -0.131 A  
HETATM   32 CL   UNL     1      -6.610   8.739  72.533  1.00  0.00    -0.051 Cl 
HETATM   33  C   UNL     1      -9.131   7.835  72.963  1.00  0.00    -0.211 A  
HETATM   34  C   UNL     1     -10.339   7.292  72.556  1.00  0.00    -0.254 A  
HETATM   35  F   UNL     1      -8.971   8.172  74.250  1.00  0.00    -0.294 F  
HETATM   36  C   UNL     1     -10.520   6.930  71.217  1.00  0.00    -0.228 A  
ENDBRANCH  27  29
ENDBRANCH  20  27
ENDBRANCH   8  11
ENDBRANCH   6   7
ENDBRANCH   4   5
ENDBRANCH   2   4
TORSDOF 8
ENDMDL
MODEL       51
REMARK 921   NORMALIZED FREE ENERGY PREDICTED BY IDOCK:   -5.97 KCAL/MOL
REMARK 922        TOTAL FREE ENERGY PREDICTED BY IDOCK:  -10.31 KCAL/MOL
REMARK 923 INTER-LIGAND FREE ENERGY PREDICTED BY IDOCK:   -9.03 KCAL/MOL
REMARK 924 INTRA-LIGAND FREE ENERGY PREDICTED BY IDOCK:   -1.28 KCAL/MOL
REMARK 927      BINDING AFFINITY PREDICTED BY RF-SCORE:    0.00 PKD
ROOT
HETATM    1  C   UNL     1      -7.274   8.173  73.187  1.00  0.00    -0.122 C  
HETATM    2  N   UNL     1      -6.095   9.027  73.382  1.00  0.00    -0.295 NA 
HETATM    3  C   UNL     1      -5.126   8.306  74.223  1.00  0.00    -0.062 C  
ENDROOT
BRANCH   2   4
HETATM    4  C   UNL     1      -5.464   9.358  72.093  1.00  0.00    -0.063 C  
BRANCH   4   5
HETATM    5  C   UNL     1      -6.389   9.612  70.937  1.00  0.00    -0.083 C  
HETATM    6  C   UNL     1      -6.360  10.638  70.067  1.00  0.00    -0.126 C  
BRANCH   6   7
HETATM    7  C   UNL     1      -7.389  10.705  68.995  1.00  0.00    -0.108 C  
HETATM    8  N   UNL     1      -8.516  11.428  69.354  1.00  0.00    -0.281 N  
HETATM    9  O   UNL     1      -7.175  10.220  67.888  1.00  0.00    -0.084 OA 
HETATM   10  H   UNL     1      -8.607  11.756  70.316  1.00  0.00     0.000 HD 
BRANCH   8  11
HETATM   11  C   UNL     1      -9.544  11.726  68.429  1.00  0.00    -0.191 A  
HETATM   12  C   UNL     1     -10.645  10.890  68.238  1.00  0.00    -0.190 A  
HETATM   13  N   UNL     1     -11.435  14.685  65.031  1.00  0.00    -0.371 NA 
HETATM   14  C   UNL     1     -11.656  11.290  67.348  1.00  0.00    -0.214 A  
HETATM   15  C   UNL     1      -9.439  12.878  67.628  1.00  0.00    -0.197 A  
HETATM   16  C   UNL     1     -11.594  12.464  66.604  1.00  0.00    -0.385 A  
HETATM   17  C   UNL     1     -10.443  13.251  66.694  1.00  0.00    -0.279 A  
HETATM   18  N   UNL     1     -12.622  12.775  65.809  1.00  0.00    -0.510 NA 
HETATM   19  C   UNL     1     -12.505  13.890  65.080  1.00  0.00    -0.453 A  
HETATM   20  C   UNL     1     -10.395  14.365  65.822  1.00  0.00    -0.326 A  
BRANCH  12  21
HETATM   21  O   UNL     1     -10.795   9.618  68.707  1.00  0.00    -0.219 OA 
BRANCH  21  22
HETATM   22  C   UNL     1     -10.852   9.335  70.101  1.00  0.00    -0.242 C  
HETATM   23  C   UNL     1     -12.378   8.747  71.865  1.00  0.00    -0.363 C  
HETATM   24  C   UNL     1     -11.045   7.827  70.233  1.00  0.00    -0.234 C  
HETATM   25  O   UNL     1     -11.589   7.600  71.531  1.00  0.00    -0.261 OA 
HETATM   26  C   UNL     1     -12.054   9.853  70.867  1.00  0.00    -0.431 C  
ENDBRANCH  21  22
ENDBRANCH  12  21
BRANCH  20  27
HETATM   27  N   UNL     1      -9.219  15.166  65.773  1.00  0.00    -0.452 NA 
HETATM   28  H   UNL     1      -8.537  14.909  65.058  1.00  0.00     0.000 HD 
BRANCH  27  29
HETATM   29  C   UNL     1      -8.871  16.272  66.587  1.00  0.00    -0.254 A  
HETATM   30  C   UNL     1      -9.511  17.518  66.499  1.00  0.00    -0.285 A  
HETATM   31  C   UNL     1      -9.167  18.564  67.359  1.00  0.00    -0.278 A  
HETATM   32 CL   UNL     1      -9.947  20.093  67.182  1.00  0.00    -0.572 Cl 
HETATM   33  C   UNL     1      -8.199  18.371  68.338  1.00  0.00    -0.312 A  
HETATM   34  C   UNL     1      -7.588  17.136  68.480  1.00  0.00    -0.245 A  
HETATM   35  F   UNL     1      -7.859  19.364  69.170  1.00  0.00    -0.380 F  
HETATM   36  C   UNL     1      -7.927  16.090  67.616  1.00  0.00    -0.160 A  
ENDBRANCH  27  29
ENDBRANCH  20  27
ENDBRANCH   8  11
ENDBRANCH   6   7
ENDBRANCH   4   5
ENDBRANCH   2   4
TORSDOF 8
ENDMDL
MODEL       52
REMARK 921   NORMALIZED FREE ENERGY PREDICTED BY IDOCK:   -5.97 KCAL/MOL
REMARK 922        TOTAL FREE ENERGY PREDICTED BY IDOCK:  -10.30 KCAL/MOL
REMARK 923 INTER-LIGAND FREE ENERGY PREDICTED BY IDOCK:   -8.79 KCAL/MOL
REMARK 924 INTRA-LIGAND FREE ENERGY PREDICTED BY IDOCK:   -1.51 KCAL/MOL
REMARK 927      BINDING AFFINITY PREDICTED BY RF-SCORE:    0.00 PKD
ROOT
HETATM    1  C   UNL     1      -9.936  19.728  68.146  1.00  0.00    -0.440 C  
HETATM    2  N   UNL     1     -10.279  19.046  66.891  1.00  0.00    -0.360 NA 
HETATM    3  C   UNL     1     -10.353  20.048  65.817  1.00  0.00    -0.369 C  
ENDROOT
BRANCH   2   4
HETATM    4  C   UNL     1      -9.262  18.039  66.543  1.00  0.00    -0.275 C  
BRANCH   4   5
HETATM    5  C   UNL     1      -9.628  16.601  66.783  1.00  0.00    -0.270 C  
HETATM    6  C   UNL     1     -10.751  15.963  66.409  1.00  0.00    -0.256 C  
BRANCH   6   7
HETATM    7  C   UNL     1     -10.919  14.528  66.765  1.00  0.00    -0.316 C  
HETATM    8  N   UNL     1     -10.372  14.196  67.994  1.00  0.00    -0.227 N  
HETATM    9  O   UNL     1     -11.562  13.773  66.042  1.00  0.00    -0.326 OA 
HETATM   10  H   UNL     1      -9.824  14.895  68.497  1.00  0.00     0.000 HD 
BRANCH   8  11
HETATM   11  C   UNL     1     -10.549  12.918  68.575  1.00  0.00    -0.253 A  
HETATM   12  C   UNL     1     -11.635  12.613  69.397  1.00  0.00    -0.306 A  
HETATM   13  N   UNL     1      -8.991   8.336  69.248  1.00  0.00    -0.146 NA 
HETATM   14  C   UNL     1     -11.774  11.302  69.882  1.00  0.00    -0.430 A  
HETATM   15  C   UNL     1      -9.575  11.924  68.368  1.00  0.00    -0.196 A  
HETATM   16  C   UNL     1     -10.851  10.293  69.623  1.00  0.00    -0.271 A  
HETATM   17  C   UNL     1      -9.698  10.613  68.902  1.00  0.00    -0.210 A  
HETATM   18  N   UNL     1     -11.088   9.068  70.100  1.00  0.00    -0.232 NA 
HETATM   19  C   UNL     1     -10.157   8.138  69.864  1.00  0.00    -0.195 A  
HETATM   20  C   UNL     1      -8.746   9.572  68.778  1.00  0.00    -0.128 A  
BRANCH  12  21
HETATM   21  O   UNL     1     -12.527  13.496  69.932  1.00  0.00    -0.252 OA 
BRANCH  21  22
HETATM   22  C   UNL     1     -12.372  14.012  71.250  1.00  0.00    -0.355 C  
HETATM   23  C   UNL     1     -13.120  15.771  72.708  1.00  0.00    -0.503 C  
HETATM   24  C   UNL     1     -13.638  13.641  72.017  1.00  0.00    -0.495 C  
HETATM   25  O   UNL     1     -13.721  14.539  73.120  1.00  0.00    -0.536 OA 
HETATM   26  C   UNL     1     -12.361  15.519  71.410  1.00  0.00    -0.461 C  
ENDBRANCH  21  22
ENDBRANCH  12  21
BRANCH  20  27
HETATM   27  N   UNL     1      -7.497   9.836  68.147  1.00  0.00    -0.081 NA 
HETATM   28  H   UNL     1      -6.733  10.101  68.770  1.00  0.00     0.000 HD 
BRANCH  27  29
HETATM   29  C   UNL     1      -7.177   9.780  66.768  1.00  0.00    -0.090 A  
HETATM   30  C   UNL     1      -8.145   9.618  65.765  1.00  0.00    -0.113 A  
HETATM   31  C   UNL     1      -7.785   9.619  64.414  1.00  0.00    -0.128 A  
HETATM   32 CL   UNL     1      -9.002   9.368  63.216  1.00  0.00    -0.216 Cl 
HETATM   33  C   UNL     1      -6.459   9.811  64.047  1.00  0.00    -0.119 A  
HETATM   34  C   UNL     1      -5.490  10.024  65.015  1.00  0.00    -0.077 A  
HETATM   35  F   UNL     1      -6.098   9.815  62.757  1.00  0.00    -0.095 F  
HETATM   36  C   UNL     1      -5.848  10.018  66.367  1.00  0.00    -0.060 A  
ENDBRANCH  27  29
ENDBRANCH  20  27
ENDBRANCH   8  11
ENDBRANCH   6   7
ENDBRANCH   4   5
ENDBRANCH   2   4
TORSDOF 8
ENDMDL
MODEL       53
REMARK 921   NORMALIZED FREE ENERGY PREDICTED BY IDOCK:   -5.89 KCAL/MOL
REMARK 922        TOTAL FREE ENERGY PREDICTED BY IDOCK:  -10.18 KCAL/MOL
REMARK 923 INTER-LIGAND FREE ENERGY PREDICTED BY IDOCK:   -8.78 KCAL/MOL
REMARK 924 INTRA-LIGAND FREE ENERGY PREDICTED BY IDOCK:   -1.40 KCAL/MOL
REMARK 927      BINDING AFFINITY PREDICTED BY RF-SCORE:    0.00 PKD
ROOT
HETATM    1  C   UNL     1      -5.940   5.453  65.120  1.00  0.00    -0.022 C  
HETATM    2  N   UNL     1      -6.944   4.585  65.748  1.00  0.00    -0.061 NA 
HETATM    3  C   UNL     1      -6.556   3.183  65.530  1.00  0.00    -0.036 C  
ENDROOT
BRANCH   2   4
HETATM    4  C   UNL     1      -7.031   4.842  67.196  1.00  0.00    -0.064 C  
BRANCH   4   5
HETATM    5  C   UNL     1      -8.191   5.675  67.663  1.00  0.00    -0.101 C  
HETATM    6  C   UNL     1      -8.460   6.958  67.362  1.00  0.00    -0.121 C  
BRANCH   6   7
HETATM    7  C   UNL     1      -9.666   7.600  67.950  1.00  0.00    -0.148 C  
HETATM    8  N   UNL     1      -9.462   8.092  69.230  1.00  0.00    -0.155 N  
HETATM    9  O   UNL     1     -10.693   7.730  67.291  1.00  0.00    -0.307 OA 
HETATM   10  H   UNL     1      -8.579   7.895  69.700  1.00  0.00     0.000 HD 
BRANCH   8  11
HETATM   11  C   UNL     1     -10.441   8.860  69.905  1.00  0.00    -0.214 A  
HETATM   12  C   UNL     1     -11.377   8.288  70.767  1.00  0.00    -0.266 A  
HETATM   13  N   UNL     1     -12.496  13.192  70.844  1.00  0.00    -0.359 NA 
HETATM   14  C   UNL     1     -12.274   9.126  71.450  1.00  0.00    -0.407 A  
HETATM   15  C   UNL     1     -10.518  10.244  69.666  1.00  0.00    -0.286 A  
HETATM   16  C   UNL     1     -12.309  10.506  71.274  1.00  0.00    -0.397 A  
HETATM   17  C   UNL     1     -11.459  11.079  70.324  1.00  0.00    -0.363 A  
HETATM   18  N   UNL     1     -13.176  11.223  71.995  1.00  0.00    -0.459 NA 
HETATM   19  C   UNL     1     -13.207  12.540  71.765  1.00  0.00    -0.344 A  
HETATM   20  C   UNL     1     -11.632  12.468  70.110  1.00  0.00    -0.069 A  
BRANCH  12  21
HETATM   21  O   UNL     1     -11.641   6.958  70.920  1.00  0.00    -0.299 OA 
BRANCH  21  22
HETATM   22  C   UNL     1     -10.763   6.096  71.635  1.00  0.00    -0.245 C  
HETATM   23  C   UNL     1     -10.691   4.001  72.814  1.00  0.00    -0.095 C  
HETATM   24  C   UNL     1     -10.465   4.915  70.717  1.00  0.00    -0.096 C  
HETATM   25  O   UNL     1     -10.025   3.850  71.556  1.00  0.00    -0.183 OA 
HETATM   26  C   UNL     1     -11.324   5.388  72.853  1.00  0.00    -0.365 C  
ENDBRANCH  21  22
ENDBRANCH  12  21
BRANCH  20  27
HETATM   27  N   UNL     1     -10.880  13.118  69.090  1.00  0.00    -0.428 NA 
HETATM   28  H   UNL     1      -9.933  13.397  69.348  1.00  0.00     0.000 HD 
BRANCH  27  29
HETATM   29  C   UNL     1     -11.274  13.428  67.765  1.00  0.00    -0.279 A  
HETATM   30  C   UNL     1     -10.868  14.595  67.100  1.00  0.00    -0.303 A  
HETATM   31  C   UNL     1     -11.241  14.831  65.774  1.00  0.00    -0.337 A  
HETATM   32 CL   UNL     1     -10.759  16.303  65.011  1.00  0.00    -0.390 Cl 
HETATM   33  C   UNL     1     -12.001  13.893  65.086  1.00  0.00    -0.385 A  
HETATM   34  C   UNL     1     -12.372  12.709  65.702  1.00  0.00    -0.390 A  
HETATM   35  F   UNL     1     -12.366  14.106  63.815  1.00  0.00    -0.511 F  
HETATM   36  C   UNL     1     -12.004  12.473  67.031  1.00  0.00    -0.295 A  
ENDBRANCH  27  29
ENDBRANCH  20  27
ENDBRANCH   8  11
ENDBRANCH   6   7
ENDBRANCH   4   5
ENDBRANCH   2   4
TORSDOF 8
ENDMDL
MODEL       54
REMARK 921   NORMALIZED FREE ENERGY PREDICTED BY IDOCK:   -5.82 KCAL/MOL
REMARK 922        TOTAL FREE ENERGY PREDICTED BY IDOCK:  -10.08 KCAL/MOL
REMARK 923 INTER-LIGAND FREE ENERGY PREDICTED BY IDOCK:   -8.63 KCAL/MOL
REMARK 924 INTRA-LIGAND FREE ENERGY PREDICTED BY IDOCK:   -1.45 KCAL/MOL
REMARK 927      BINDING AFFINITY PREDICTED BY RF-SCORE:    0.00 PKD
ROOT
HETATM    1  C   UNL     1      -5.660   7.086  72.368  1.00  0.00    -0.038 C  
HETATM    2  N   UNL     1      -6.786   7.987  72.090  1.00  0.00    -0.063 NA 
HETATM    3  C   UNL     1      -7.506   8.243  73.347  1.00  0.00    -0.119 C  
ENDROOT
BRANCH   2   4
HETATM    4  C   UNL     1      -6.312   9.267  71.535  1.00  0.00    -0.029 C  
BRANCH   4   5
HETATM    5  C   UNL     1      -7.033   9.784  70.323  1.00  0.00    -0.135 C  
HETATM    6  C   UNL     1      -6.891  10.981  69.726  1.00  0.00    -0.116 C  
BRANCH   6   7
HETATM    7  C   UNL     1      -7.723  11.297  68.534  1.00  0.00    -0.131 C  
HETATM    8  N   UNL     1      -8.991  11.758  68.851  1.00  0.00    -0.386 N  
HETATM    9  O   UNL     1      -7.254  11.220  67.403  1.00  0.00    -0.097 OA 
HETATM   10  H   UNL     1      -9.292  11.746  69.826  1.00  0.00     0.000 HD 
BRANCH   8  11
HETATM   11  C   UNL     1      -9.882  12.244  67.866  1.00  0.00    -0.201 A  
HETATM   12  C   UNL     1     -11.025  11.543  67.479  1.00  0.00    -0.255 A  
HETATM   13  N   UNL     1     -11.125  15.689  64.631  1.00  0.00    -0.421 NA 
HETATM   14  C   UNL     1     -11.894  12.124  66.541  1.00  0.00    -0.322 A  
HETATM   15  C   UNL     1      -9.590  13.452  67.206  1.00  0.00    -0.234 A  
HETATM   16  C   UNL     1     -11.649  13.353  65.936  1.00  0.00    -0.342 A  
HETATM   17  C   UNL     1     -10.450  14.010  66.223  1.00  0.00    -0.286 A  
HETATM   18  N   UNL     1     -12.553  13.839  65.080  1.00  0.00    -0.631 NA 
HETATM   19  C   UNL     1     -12.260  15.002  64.489  1.00  0.00    -0.331 A  
HETATM   20  C   UNL     1     -10.210  15.193  65.482  1.00  0.00    -0.376 A  
BRANCH  12  21
HETATM   21  O   UNL     1     -11.337  10.252  67.793  1.00  0.00    -0.322 OA 
BRANCH  21  22
HETATM   22  C   UNL     1     -10.759   9.152  67.100  1.00  0.00    -0.143 C  
HETATM   23  C   UNL     1      -8.721   8.414  66.057  1.00  0.00    -0.157 C  
HETATM   24  C   UNL     1      -9.811   8.466  68.080  1.00  0.00    -0.169 C  
HETATM   25  O   UNL     1      -8.889   7.715  67.295  1.00  0.00    -0.119 OA 
HETATM   26  C   UNL     1      -9.817   9.468  65.954  1.00  0.00    -0.360 C  
ENDBRANCH  21  22
ENDBRANCH  12  21
BRANCH  20  27
HETATM   27  N   UNL     1      -8.969  15.875  65.636  1.00  0.00    -0.303 NA 
HETATM   28  H   UNL     1      -8.228  15.597  64.992  1.00  0.00     0.000 HD 
BRANCH  27  29
HETATM   29  C   UNL     1      -8.629  16.889  66.565  1.00  0.00    -0.270 A  
HETATM   30  C   UNL     1      -9.543  17.859  67.006  1.00  0.00    -0.286 A  
HETATM   31  C   UNL     1      -9.174  18.808  67.963  1.00  0.00    -0.302 A  
HETATM   32 CL   UNL     1     -10.315  20.013  68.439  1.00  0.00    -0.535 Cl 
HETATM   33  C   UNL     1      -7.899  18.784  68.514  1.00  0.00    -0.336 A  
HETATM   34  C   UNL     1      -6.994  17.805  68.135  1.00  0.00    -0.212 A  
HETATM   35  F   UNL     1      -7.532  19.686  69.433  1.00  0.00    -0.390 F  
HETATM   36  C   UNL     1      -7.359  16.857  67.173  1.00  0.00    -0.213 A  
ENDBRANCH  27  29
ENDBRANCH  20  27
ENDBRANCH   8  11
ENDBRANCH   6   7
ENDBRANCH   4   5
ENDBRANCH   2   4
TORSDOF 8
ENDMDL
MODEL       55
REMARK 921   NORMALIZED FREE ENERGY PREDICTED BY IDOCK:   -5.82 KCAL/MOL
REMARK 922        TOTAL FREE ENERGY PREDICTED BY IDOCK:  -10.08 KCAL/MOL
REMARK 923 INTER-LIGAND FREE ENERGY PREDICTED BY IDOCK:  -10.04 KCAL/MOL
REMARK 924 INTRA-LIGAND FREE ENERGY PREDICTED BY IDOCK:   -0.04 KCAL/MOL
REMARK 927      BINDING AFFINITY PREDICTED BY RF-SCORE:    0.00 PKD
ROOT
HETATM    1  C   UNL     1     -10.386  17.408  69.024  1.00  0.00    -0.319 C  
HETATM    2  N   UNL     1     -11.383  16.454  68.520  1.00  0.00    -0.348 NA 
HETATM    3  C   UNL     1     -10.804  15.731  67.377  1.00  0.00    -0.306 C  
ENDROOT
BRANCH   2   4
HETATM    4  C   UNL     1     -11.761  15.486  69.563  1.00  0.00    -0.365 C  
BRANCH   4   5
HETATM    5  C   UNL     1     -11.651  14.031  69.203  1.00  0.00    -0.356 C  
HETATM    6  C   UNL     1     -11.964  12.967  69.964  1.00  0.00    -0.383 C  
BRANCH   6   7
HETATM    7  C   UNL     1     -11.763  11.600  69.413  1.00  0.00    -0.340 C  
HETATM    8  N   UNL     1     -10.568  11.017  69.804  1.00  0.00    -0.454 N  
HETATM    9  O   UNL     1     -12.639  11.055  68.748  1.00  0.00    -0.350 OA 
HETATM   10  H   UNL     1      -9.893  11.575  70.327  1.00  0.00     0.000 HD 
BRANCH   8  11
HETATM   11  C   UNL     1     -10.255   9.670  69.502  1.00  0.00    -0.218 A  
HETATM   12  C   UNL     1     -10.435   8.635  70.421  1.00  0.00    -0.208 A  
HETATM   13  N   UNL     1      -8.577   6.333  66.353  1.00  0.00    -0.128 NA 
HETATM   14  C   UNL     1     -10.162   7.317  70.022  1.00  0.00    -0.206 A  
HETATM   15  C   UNL     1      -9.690   9.356  68.252  1.00  0.00    -0.162 A  
HETATM   16  C   UNL     1      -9.670   6.989  68.762  1.00  0.00    -0.143 A  
HETATM   17  C   UNL     1      -9.371   8.025  67.873  1.00  0.00    -0.148 A  
HETATM   18  N   UNL     1      -9.474   5.701  68.464  1.00  0.00    -0.122 NA 
HETATM   19  C   UNL     1      -8.962   5.433  67.259  1.00  0.00    -0.111 A  
HETATM   20  C   UNL     1      -8.763   7.629  66.657  1.00  0.00    -0.141 A  
BRANCH  12  21
HETATM   21  O   UNL     1     -10.707   8.763  71.752  1.00  0.00    -0.290 OA 
BRANCH  21  22
HETATM   22  C   UNL     1     -11.998   8.491  72.283  1.00  0.00    -0.385 C  
HETATM   23  C   UNL     1     -14.344   8.724  71.806  1.00  0.00    -0.330 C  
HETATM   24  C   UNL     1     -12.557   7.311  71.493  1.00  0.00    -0.379 C  
HETATM   25  O   UNL     1     -13.973   7.350  71.654  1.00  0.00    -0.400 OA 
HETATM   26  C   UNL     1     -13.077   9.533  72.059  1.00  0.00    -0.528 C  
ENDBRANCH  21  22
ENDBRANCH  12  21
BRANCH  20  27
HETATM   27  N   UNL     1      -8.332   8.624  65.734  1.00  0.00    -0.135 NA 
HETATM   28  H   UNL     1      -7.330   8.646  65.542  1.00  0.00     0.000 HD 
BRANCH  27  29
HETATM   29  C   UNL     1      -9.112   9.588  65.048  1.00  0.00    -0.228 A  
HETATM   30  C   UNL     1      -9.982  10.473  65.702  1.00  0.00    -0.332 A  
HETATM   31  C   UNL     1     -10.693  11.440  64.986  1.00  0.00    -0.277 A  
HETATM   32 CL   UNL     1     -11.789  12.475  65.827  1.00  0.00    -0.479 Cl 
HETATM   33  C   UNL     1     -10.522  11.556  63.613  1.00  0.00    -0.427 A  
HETATM   34  C   UNL     1      -9.629  10.729  62.949  1.00  0.00    -0.366 A  
HETATM   35  F   UNL     1     -11.195  12.479  62.913  1.00  0.00    -0.408 F  
HETATM   36  C   UNL     1      -8.922   9.757  63.663  1.00  0.00    -0.270 A  
ENDBRANCH  27  29
ENDBRANCH  20  27
ENDBRANCH   8  11
ENDBRANCH   6   7
ENDBRANCH   4   5
ENDBRANCH   2   4
TORSDOF 8
ENDMDL
MODEL       56
REMARK 921   NORMALIZED FREE ENERGY PREDICTED BY IDOCK:   -5.81 KCAL/MOL
REMARK 922        TOTAL FREE ENERGY PREDICTED BY IDOCK:  -10.06 KCAL/MOL
REMARK 923 INTER-LIGAND FREE ENERGY PREDICTED BY IDOCK:   -9.18 KCAL/MOL
REMARK 924 INTRA-LIGAND FREE ENERGY PREDICTED BY IDOCK:   -0.88 KCAL/MOL
REMARK 927      BINDING AFFINITY PREDICTED BY RF-SCORE:    0.00 PKD
ROOT
HETATM    1  C   UNL     1      -8.996   5.595  72.148  1.00  0.00    -0.137 C  
HETATM    2  N   UNL     1      -8.207   6.226  73.213  1.00  0.00    -0.115 NA 
HETATM    3  C   UNL     1      -6.781   6.121  72.868  1.00  0.00    -0.070 C  
ENDROOT
BRANCH   2   4
HETATM    4  C   UNL     1      -8.564   7.648  73.362  1.00  0.00    -0.188 C  
BRANCH   4   5
HETATM    5  C   UNL     1      -9.269   8.290  72.201  1.00  0.00    -0.289 C  
HETATM    6  C   UNL     1      -8.719   8.930  71.154  1.00  0.00    -0.280 C  
BRANCH   6   7
HETATM    7  C   UNL     1      -9.610   9.510  70.112  1.00  0.00    -0.248 C  
HETATM    8  N   UNL     1      -8.926  10.186  69.115  1.00  0.00    -0.165 N  
HETATM    9  O   UNL     1     -10.820   9.308  70.138  1.00  0.00    -0.224 OA 
HETATM   10  H   UNL     1      -7.920  10.327  69.212  1.00  0.00     0.000 HD 
BRANCH   8  11
HETATM   11  C   UNL     1      -9.578  10.687  67.963  1.00  0.00    -0.157 A  
HETATM   12  C   UNL     1      -9.542  10.025  66.735  1.00  0.00    -0.181 A  
HETATM   13  N   UNL     1     -12.305  14.128  65.819  1.00  0.00    -0.458 NA 
HETATM   14  C   UNL     1     -10.270  10.553  65.656  1.00  0.00    -0.315 A  
HETATM   15  C   UNL     1     -10.248  11.922  68.031  1.00  0.00    -0.199 A  
HETATM   16  C   UNL     1     -10.994  11.739  65.735  1.00  0.00    -0.301 A  
HETATM   17  C   UNL     1     -10.942  12.474  66.922  1.00  0.00    -0.296 A  
HETATM   18  N   UNL     1     -11.683  12.143  64.663  1.00  0.00    -0.347 NA 
HETATM   19  C   UNL     1     -12.331  13.308  64.767  1.00  0.00    -0.402 A  
HETATM   20  C   UNL     1     -11.601  13.727  66.893  1.00  0.00    -0.370 A  
BRANCH  12  21
HETATM   21  O   UNL     1      -8.737   8.977  66.396  1.00  0.00    -0.124 OA 
BRANCH  21  22
HETATM   22  C   UNL     1      -8.922   7.679  66.949  1.00  0.00    -0.138 C  
HETATM   23  C   UNL     1     -10.298   5.714  66.781  1.00  0.00    -0.262 C  
HETATM   24  C   UNL     1      -8.401   6.684  65.917  1.00  0.00    -0.137 C  
HETATM   25  O   UNL     1      -9.013   5.432  66.216  1.00  0.00    -0.128 OA 
HETATM   26  C   UNL     1     -10.349   7.197  67.129  1.00  0.00    -0.359 C  
ENDBRANCH  21  22
ENDBRANCH  12  21
BRANCH  20  27
HETATM   27  N   UNL     1     -11.517  14.589  68.023  1.00  0.00    -0.305 NA 
HETATM   28  H   UNL     1     -10.917  15.408  67.913  1.00  0.00     0.000 HD 
BRANCH  27  29
HETATM   29  C   UNL     1     -12.155  14.459  69.282  1.00  0.00    -0.299 A  
HETATM   30  C   UNL     1     -12.253  13.237  69.966  1.00  0.00    -0.345 A  
HETATM   31  C   UNL     1     -12.848  13.169  71.229  1.00  0.00    -0.296 A  
HETATM   32 CL   UNL     1     -12.990  11.638  72.013  1.00  0.00    -0.470 Cl 
HETATM   33  C   UNL     1     -13.327  14.323  71.837  1.00  0.00    -0.388 A  
HETATM   34  C   UNL     1     -13.196  15.550  71.206  1.00  0.00    -0.588 A  
HETATM   35  F   UNL     1     -13.898  14.273  73.047  1.00  0.00    -0.491 F  
HETATM   36  C   UNL     1     -12.606  15.619  69.940  1.00  0.00    -0.107 A  
ENDBRANCH  27  29
ENDBRANCH  20  27
ENDBRANCH   8  11
ENDBRANCH   6   7
ENDBRANCH   4   5
ENDBRANCH   2   4
TORSDOF 8
ENDMDL
MODEL       57
REMARK 921   NORMALIZED FREE ENERGY PREDICTED BY IDOCK:   -5.80 KCAL/MOL
REMARK 922        TOTAL FREE ENERGY PREDICTED BY IDOCK:  -10.05 KCAL/MOL
REMARK 923 INTER-LIGAND FREE ENERGY PREDICTED BY IDOCK:   -8.55 KCAL/MOL
REMARK 924 INTRA-LIGAND FREE ENERGY PREDICTED BY IDOCK:   -1.50 KCAL/MOL
REMARK 927      BINDING AFFINITY PREDICTED BY RF-SCORE:    0.00 PKD
ROOT
HETATM    1  C   UNL     1     -12.642  11.898  63.562  1.00  0.00    -0.459 C  
HETATM    2  N   UNL     1     -11.698  13.019  63.463  1.00  0.00    -0.495 NA 
HETATM    3  C   UNL     1     -12.239  14.158  64.220  1.00  0.00    -0.420 C  
ENDROOT
BRANCH   2   4
HETATM    4  C   UNL     1     -10.384  12.651  64.017  1.00  0.00    -0.389 C  
BRANCH   4   5
HETATM    5  C   UNL     1     -10.346  12.284  65.474  1.00  0.00    -0.296 C  
HETATM    6  C   UNL     1      -9.857  13.010  66.495  1.00  0.00    -0.263 C  
BRANCH   6   7
HETATM    7  C   UNL     1      -9.907  12.447  67.871  1.00  0.00    -0.202 C  
HETATM    8  N   UNL     1     -10.956  11.563  68.069  1.00  0.00    -0.215 N  
HETATM    9  O   UNL     1      -9.030  12.708  68.688  1.00  0.00    -0.092 OA 
HETATM   10  H   UNL     1     -11.651  11.447  67.331  1.00  0.00     0.000 HD 
BRANCH   8  11
HETATM   11  C   UNL     1     -11.093  10.815  69.262  1.00  0.00    -0.256 A  
HETATM   12  C   UNL     1     -12.055  11.116  70.228  1.00  0.00    -0.377 A  
HETATM   13  N   UNL     1      -9.633   7.139  72.130  1.00  0.00    -0.143 NA 
HETATM   14  C   UNL     1     -12.170  10.286  71.355  1.00  0.00    -0.481 A  
HETATM   15  C   UNL     1     -10.201   9.758  69.522  1.00  0.00    -0.238 A  
HETATM   16  C   UNL     1     -11.337   9.195  71.584  1.00  0.00    -0.376 A  
HETATM   17  C   UNL     1     -10.294   8.952  70.688  1.00  0.00    -0.265 A  
HETATM   18  N   UNL     1     -11.548   8.444  72.669  1.00  0.00    -0.361 NA 
HETATM   19  C   UNL     1     -10.700   7.431  72.875  1.00  0.00    -0.339 A  
HETATM   20  C   UNL     1      -9.413   7.902  71.045  1.00  0.00    -0.156 A  
BRANCH  12  21
HETATM   21  O   UNL     1     -12.820  12.244  70.293  1.00  0.00     0.108 OA 
BRANCH  21  22
HETATM   22  C   UNL     1     -12.374  13.415  70.967  1.00  0.00    -0.315 C  
HETATM   23  C   UNL     1     -12.642  15.804  71.018  1.00  0.00    -0.416 C  
HETATM   24  C   UNL     1     -13.515  13.859  71.877  1.00  0.00    -0.427 C  
HETATM   25  O   UNL     1     -13.296  15.239  72.159  1.00  0.00    -0.356 OA 
HETATM   26  C   UNL     1     -12.163  14.662  70.131  1.00  0.00    -0.391 C  
ENDBRANCH  21  22
ENDBRANCH  12  21
BRANCH  20  27
HETATM   27  N   UNL     1      -8.264   7.649  70.243  1.00  0.00    -0.121 NA 
HETATM   28  H   UNL     1      -7.401   8.099  70.550  1.00  0.00     0.000 HD 
BRANCH  27  29
HETATM   29  C   UNL     1      -8.163   6.853  69.075  1.00  0.00    -0.125 A  
HETATM   30  C   UNL     1      -8.015   7.398  67.790  1.00  0.00    -0.118 A  
HETATM   31  C   UNL     1      -7.867   6.570  66.674  1.00  0.00    -0.104 A  
HETATM   32 CL   UNL     1      -7.737   7.283  65.107  1.00  0.00    -0.105 Cl 
HETATM   33  C   UNL     1      -7.836   5.190  66.828  1.00  0.00    -0.100 A  
HETATM   34  C   UNL     1      -7.928   4.627  68.091  1.00  0.00    -0.084 A  
HETATM   35  F   UNL     1      -7.694   4.384  65.768  1.00  0.00    -0.085 F  
HETATM   36  C   UNL     1      -8.081   5.454  69.209  1.00  0.00    -0.093 A  
ENDBRANCH  27  29
ENDBRANCH  20  27
ENDBRANCH   8  11
ENDBRANCH   6   7
ENDBRANCH   4   5
ENDBRANCH   2   4
TORSDOF 8
ENDMDL
MODEL       58
REMARK 921   NORMALIZED FREE ENERGY PREDICTED BY IDOCK:   -5.80 KCAL/MOL
REMARK 922        TOTAL FREE ENERGY PREDICTED BY IDOCK:  -10.05 KCAL/MOL
REMARK 923 INTER-LIGAND FREE ENERGY PREDICTED BY IDOCK:   -8.75 KCAL/MOL
REMARK 924 INTRA-LIGAND FREE ENERGY PREDICTED BY IDOCK:   -1.30 KCAL/MOL
REMARK 927      BINDING AFFINITY PREDICTED BY RF-SCORE:    0.00 PKD
ROOT
HETATM    1  C   UNL     1     -10.837   6.111  66.816  1.00  0.00    -0.285 C  
HETATM    2  N   UNL     1     -10.618   7.490  67.270  1.00  0.00    -0.317 NA 
HETATM    3  C   UNL     1     -10.292   7.467  68.704  1.00  0.00    -0.200 C  
ENDROOT
BRANCH   2   4
HETATM    4  C   UNL     1      -9.507   8.117  66.532  1.00  0.00    -0.221 C  
BRANCH   4   5
HETATM    5  C   UNL     1      -9.434   9.618  66.574  1.00  0.00    -0.233 C  
HETATM    6  C   UNL     1      -9.858  10.490  65.642  1.00  0.00    -0.311 C  
BRANCH   6   7
HETATM    7  C   UNL     1      -9.673  11.947  65.880  1.00  0.00    -0.238 C  
HETATM    8  N   UNL     1      -9.030  12.235  67.073  1.00  0.00    -0.198 N  
HETATM    9  O   UNL     1     -10.002  12.769  65.029  1.00  0.00    -0.242 OA 
HETATM   10  H   UNL     1      -8.835  11.476  67.726  1.00  0.00     0.000 HD 
BRANCH   8  11
HETATM   11  C   UNL     1      -8.636  13.550  67.416  1.00  0.00    -0.208 A  
HETATM   12  C   UNL     1      -7.309  13.976  67.346  1.00  0.00    -0.114 A  
HETATM   13  N   UNL     1      -9.797  18.030  68.985  1.00  0.00    -0.290 NA 
HETATM   14  C   UNL     1      -7.008  15.316  67.641  1.00  0.00    -0.209 A  
HETATM   15  C   UNL     1      -9.599  14.457  67.897  1.00  0.00    -0.219 A  
HETATM   16  C   UNL     1      -7.967  16.239  68.049  1.00  0.00    -0.147 A  
HETATM   17  C   UNL     1      -9.279  15.798  68.240  1.00  0.00    -0.188 A  
HETATM   18  N   UNL     1      -7.589  17.501  68.274  1.00  0.00    -0.231 NA 
HETATM   19  C   UNL     1      -8.531  18.345  68.704  1.00  0.00    -0.295 A  
HETATM   20  C   UNL     1     -10.175  16.757  68.771  1.00  0.00    -0.299 A  
BRANCH  12  21
HETATM   21  O   UNL     1      -6.208  13.190  67.170  1.00  0.00    -0.282 OA 
BRANCH  21  22
HETATM   22  C   UNL     1      -5.571  12.537  68.262  1.00  0.00    -0.060 C  
HETATM   23  C   UNL     1      -6.030  11.288  70.266  1.00  0.00    -0.154 C  
HETATM   24  C   UNL     1      -5.692  11.037  68.006  1.00  0.00    -0.042 C  
HETATM   25  O   UNL     1      -5.525  10.395  69.267  1.00  0.00    -0.038 OA 
HETATM   26  C   UNL     1      -6.228  12.656  69.624  1.00  0.00    -0.122 C  
ENDBRANCH  21  22
ENDBRANCH  12  21
BRANCH  20  27
HETATM   27  N   UNL     1     -11.506  16.369  69.092  1.00  0.00    -0.249 NA 
HETATM   28  H   UNL     1     -12.240  16.779  68.512  1.00  0.00     0.000 HD 
BRANCH  27  29
HETATM   29  C   UNL     1     -11.947  15.488  70.111  1.00  0.00    -0.366 A  
HETATM   30  C   UNL     1     -12.060  15.872  71.456  1.00  0.00    -0.533 A  
HETATM   31  C   UNL     1     -12.548  14.982  72.417  1.00  0.00    -0.342 A  
HETATM   32 CL   UNL     1     -12.625  15.481  74.068  1.00  0.00    -0.731 Cl 
HETATM   33  C   UNL     1     -12.957  13.708  72.043  1.00  0.00    -0.334 A  
HETATM   34  C   UNL     1     -12.904  13.321  70.713  1.00  0.00    -0.194 A  
HETATM   35  F   UNL     1     -13.427  12.844  72.952  1.00  0.00    -0.511 F  
HETATM   36  C   UNL     1     -12.410  14.208  69.751  1.00  0.00    -0.350 A  
ENDBRANCH  27  29
ENDBRANCH  20  27
ENDBRANCH   8  11
ENDBRANCH   6   7
ENDBRANCH   4   5
ENDBRANCH   2   4
TORSDOF 8
ENDMDL
MODEL       59
REMARK 921   NORMALIZED FREE ENERGY PREDICTED BY IDOCK:   -5.78 KCAL/MOL
REMARK 922        TOTAL FREE ENERGY PREDICTED BY IDOCK:  -10.02 KCAL/MOL
REMARK 923 INTER-LIGAND FREE ENERGY PREDICTED BY IDOCK:   -8.50 KCAL/MOL
REMARK 924 INTRA-LIGAND FREE ENERGY PREDICTED BY IDOCK:   -1.53 KCAL/MOL
REMARK 927      BINDING AFFINITY PREDICTED BY RF-SCORE:    0.00 PKD
ROOT
HETATM    1  C   UNL     1      -5.826   7.763  64.264  1.00  0.00    -0.052 C  
HETATM    2  N   UNL     1      -6.494   8.895  63.609  1.00  0.00    -0.088 NA 
HETATM    3  C   UNL     1      -7.891   8.525  63.340  1.00  0.00    -0.150 C  
ENDROOT
BRANCH   2   4
HETATM    4  C   UNL     1      -6.468  10.091  64.469  1.00  0.00    -0.130 C  
BRANCH   4   5
HETATM    5  C   UNL     1      -7.159   9.979  65.798  1.00  0.00    -0.117 C  
HETATM    6  C   UNL     1      -7.162  10.872  66.804  1.00  0.00    -0.134 C  
BRANCH   6   7
HETATM    7  C   UNL     1      -7.906  10.552  68.052  1.00  0.00    -0.105 C  
HETATM    8  N   UNL     1      -9.120   9.924  67.825  1.00  0.00    -0.131 N  
HETATM    9  O   UNL     1      -7.410  10.771  69.153  1.00  0.00    -0.094 OA 
HETATM   10  H   UNL     1      -9.455   9.825  66.867  1.00  0.00     0.000 HD 
BRANCH   8  11
HETATM   11  C   UNL     1      -9.911   9.413  68.882  1.00  0.00    -0.179 A  
HETATM   12  C   UNL     1      -9.820   8.089  69.313  1.00  0.00    -0.178 A  
HETATM   13  N   UNL     1     -13.349  10.090  72.287  1.00  0.00    -0.383 NA 
HETATM   14  C   UNL     1     -10.593   7.676  70.411  1.00  0.00    -0.233 A  
HETATM   15  C   UNL     1     -10.866  10.246  69.495  1.00  0.00    -0.292 A  
HETATM   16  C   UNL     1     -11.488   8.514  71.069  1.00  0.00    -0.273 A  
HETATM   17  C   UNL     1     -11.678   9.807  70.575  1.00  0.00    -0.343 A  
HETATM   18  N   UNL     1     -12.153   8.040  72.127  1.00  0.00    -0.329 NA 
HETATM   19  C   UNL     1     -13.033   8.863  72.704  1.00  0.00    -0.269 A  
HETATM   20  C   UNL     1     -12.689  10.564  71.215  1.00  0.00    -0.428 A  
BRANCH  12  21
HETATM   21  O   UNL     1      -9.168   7.069  68.684  1.00  0.00    -0.133 OA 
BRANCH  21  22
HETATM   22  C   UNL     1      -9.868   5.961  68.128  1.00  0.00    -0.133 C  
HETATM   23  C   UNL     1     -10.487   4.953  66.034  1.00  0.00    -0.283 C  
HETATM   24  C   UNL     1      -8.812   4.991  67.608  1.00  0.00    -0.103 C  
HETATM   25  O   UNL     1      -9.459   4.165  66.644  1.00  0.00    -0.164 OA 
HETATM   26  C   UNL     1     -10.682   6.211  66.873  1.00  0.00    -0.413 C  
ENDBRANCH  21  22
ENDBRANCH  12  21
BRANCH  20  27
HETATM   27  N   UNL     1     -13.022  11.854  70.714  1.00  0.00    -0.030 NA 
HETATM   28  H   UNL     1     -13.620  11.868  69.888  1.00  0.00     0.000 HD 
BRANCH  27  29
HETATM   29  C   UNL     1     -12.631  13.122  71.214  1.00  0.00    -0.290 A  
HETATM   30  C   UNL     1     -11.882  14.041  70.462  1.00  0.00    -0.339 A  
HETATM   31  C   UNL     1     -11.564  15.299  70.981  1.00  0.00    -0.356 A  
HETATM   32 CL   UNL     1     -10.600  16.380  70.040  1.00  0.00    -0.256 Cl 
HETATM   33  C   UNL     1     -12.014  15.668  72.242  1.00  0.00    -0.467 A  
HETATM   34  C   UNL     1     -12.798  14.799  72.984  1.00  0.00    -0.583 A  
HETATM   35  F   UNL     1     -11.718  16.871  72.752  1.00  0.00    -0.583 F  
HETATM   36  C   UNL     1     -13.113  13.537  72.470  1.00  0.00    -0.458 A  
ENDBRANCH  27  29
ENDBRANCH  20  27
ENDBRANCH   8  11
ENDBRANCH   6   7
ENDBRANCH   4   5
ENDBRANCH   2   4
TORSDOF 8
ENDMDL
MODEL       60
REMARK 921   NORMALIZED FREE ENERGY PREDICTED BY IDOCK:   -5.75 KCAL/MOL
REMARK 922        TOTAL FREE ENERGY PREDICTED BY IDOCK:   -9.98 KCAL/MOL
REMARK 923 INTER-LIGAND FREE ENERGY PREDICTED BY IDOCK:   -8.56 KCAL/MOL
REMARK 924 INTRA-LIGAND FREE ENERGY PREDICTED BY IDOCK:   -1.41 KCAL/MOL
REMARK 927      BINDING AFFINITY PREDICTED BY RF-SCORE:    0.00 PKD
ROOT
HETATM    1  C   UNL     1     -11.087  13.574  64.432  1.00  0.00    -0.380 C  
HETATM    2  N   UNL     1     -11.492  12.165  64.355  1.00  0.00    -0.336 NA 
HETATM    3  C   UNL     1     -12.590  12.043  63.383  1.00  0.00    -0.469 C  
ENDROOT
BRANCH   2   4
HETATM    4  C   UNL     1     -10.368  11.316  63.924  1.00  0.00    -0.381 C  
BRANCH   4   5
HETATM    5  C   UNL     1      -9.959  10.213  64.859  1.00  0.00    -0.358 C  
HETATM    6  C   UNL     1      -9.077   9.223  64.632  1.00  0.00    -0.177 C  
BRANCH   6   7
HETATM    7  C   UNL     1      -8.829   8.218  65.700  1.00  0.00    -0.132 C  
HETATM    8  N   UNL     1      -9.986   7.772  66.319  1.00  0.00    -0.467 N  
HETATM    9  O   UNL     1      -7.696   7.797  65.915  1.00  0.00    -0.087 OA 
HETATM   10  H   UNL     1     -10.874   8.218  66.089  1.00  0.00     0.000 HD 
BRANCH   8  11
HETATM   11  C   UNL     1      -9.975   6.715  67.261  1.00  0.00    -0.154 A  
HETATM   12  C   UNL     1     -10.222   5.390  66.901  1.00  0.00    -0.240 A  
HETATM   13  N   UNL     1      -9.433   5.172  71.865  1.00  0.00    -0.145 NA 
HETATM   14  C   UNL     1     -10.128   4.390  67.883  1.00  0.00    -0.008 A  
HETATM   15  C   UNL     1      -9.760   7.005  68.621  1.00  0.00    -0.139 A  
HETATM   16  C   UNL     1      -9.846   4.660  69.219  1.00  0.00    -0.190 A  
HETATM   17  C   UNL     1      -9.714   5.993  69.617  1.00  0.00    -0.188 A  
HETATM   18  N   UNL     1      -9.743   3.637  70.073  1.00  0.00    -0.168 NA 
HETATM   19  C   UNL     1      -9.512   3.942  71.354  1.00  0.00    -0.152 A  
HETATM   20  C   UNL     1      -9.548   6.202  71.007  1.00  0.00    -0.175 A  
BRANCH  12  21
HETATM   21  O   UNL     1     -10.710   4.945  65.707  1.00  0.00    -0.270 OA 
BRANCH  21  22
HETATM   22  C   UNL     1     -10.011   3.987  64.921  1.00  0.00    -0.205 C  
HETATM   23  C   UNL     1      -9.349   3.493  62.663  1.00  0.00    -0.096 C  
HETATM   24  C   UNL     1      -8.672   4.618  64.550  1.00  0.00    -0.151 C  
HETATM   25  O   UNL     1      -8.199   3.919  63.401  1.00  0.00    -0.086 OA 
HETATM   26  C   UNL     1     -10.575   3.666  63.551  1.00  0.00    -0.266 C  
ENDBRANCH  21  22
ENDBRANCH  12  21
BRANCH  20  27
HETATM   27  N   UNL     1      -9.507   7.531  71.516  1.00  0.00    -0.150 NA 
HETATM   28  H   UNL     1      -8.605   7.838  71.881  1.00  0.00     0.000 HD 
BRANCH  27  29
HETATM   29  C   UNL     1     -10.554   8.484  71.580  1.00  0.00    -0.283 A  
HETATM   30  C   UNL     1     -10.613   9.613  70.748  1.00  0.00    -0.392 A  
HETATM   31  C   UNL     1     -11.693  10.497  70.815  1.00  0.00    -0.356 A  
HETATM   32 CL   UNL     1     -11.699  11.898  69.806  1.00  0.00    -0.397 Cl 
HETATM   33  C   UNL     1     -12.742  10.251  71.691  1.00  0.00    -0.456 A  
HETATM   34  C   UNL     1     -12.735   9.116  72.487  1.00  0.00    -0.352 A  
HETATM   35  F   UNL     1     -13.785  11.088  71.765  1.00  0.00    -0.293 F  
HETATM   36  C   UNL     1     -11.652   8.233  72.426  1.00  0.00    -0.464 A  
ENDBRANCH  27  29
ENDBRANCH  20  27
ENDBRANCH   8  11
ENDBRANCH   6   7
ENDBRANCH   4   5
ENDBRANCH   2   4
TORSDOF 8
ENDMDL
MODEL       61
REMARK 921   NORMALIZED FREE ENERGY PREDICTED BY IDOCK:   -5.66 KCAL/MOL
REMARK 922        TOTAL FREE ENERGY PREDICTED BY IDOCK:   -9.85 KCAL/MOL
REMARK 923 INTER-LIGAND FREE ENERGY PREDICTED BY IDOCK:   -8.34 KCAL/MOL
REMARK 924 INTRA-LIGAND FREE ENERGY PREDICTED BY IDOCK:   -1.52 KCAL/MOL
REMARK 927      BINDING AFFINITY PREDICTED BY RF-SCORE:    0.00 PKD
ROOT
HETATM    1  C   UNL     1      -6.295   7.534  63.758  1.00  0.00    -0.053 C  
HETATM    2  N   UNL     1      -6.810   8.873  63.446  1.00  0.00    -0.089 NA 
HETATM    3  C   UNL     1      -8.273   8.863  63.604  1.00  0.00    -0.172 C  
ENDROOT
BRANCH   2   4
HETATM    4  C   UNL     1      -6.233   9.883  64.349  1.00  0.00    -0.122 C  
BRANCH   4   5
HETATM    5  C   UNL     1      -7.084  10.312  65.511  1.00  0.00    -0.142 C  
HETATM    6  C   UNL     1      -6.701  10.987  66.609  1.00  0.00    -0.134 C  
BRANCH   6   7
HETATM    7  C   UNL     1      -7.712  11.300  67.655  1.00  0.00    -0.115 C  
HETATM    8  N   UNL     1      -8.918  10.641  67.472  1.00  0.00    -0.135 N  
HETATM    9  O   UNL     1      -7.426  12.013  68.612  1.00  0.00    -0.113 OA 
HETATM   10  H   UNL     1      -9.061  10.100  66.619  1.00  0.00     0.000 HD 
BRANCH   8  11
HETATM   11  C   UNL     1      -9.956  10.695  68.431  1.00  0.00    -0.163 A  
HETATM   12  C   UNL     1     -10.949  11.675  68.406  1.00  0.00    -0.220 A  
HETATM   13  N   UNL     1     -12.115   8.875  72.419  1.00  0.00    -0.322 NA 
HETATM   14  C   UNL     1     -11.983  11.621  69.355  1.00  0.00    -0.381 A  
HETATM   15  C   UNL     1      -9.971   9.763  69.486  1.00  0.00    -0.230 A  
HETATM   16  C   UNL     1     -12.044  10.659  70.359  1.00  0.00    -0.341 A  
HETATM   17  C   UNL     1     -10.995   9.744  70.471  1.00  0.00    -0.384 A  
HETATM   18  N   UNL     1     -13.086  10.670  71.196  1.00  0.00    -0.361 NA 
HETATM   19  C   UNL     1     -13.086   9.755  72.171  1.00  0.00    -0.422 A  
HETATM   20  C   UNL     1     -11.060   8.873  71.585  1.00  0.00    -0.350 A  
BRANCH  12  21
HETATM   21  O   UNL     1     -10.959  12.807  67.645  1.00  0.00    -0.231 OA 
BRANCH  21  22
HETATM   22  C   UNL     1     -11.538  12.832  66.345  1.00  0.00    -0.378 C  
HETATM   23  C   UNL     1     -12.112  14.317  64.542  1.00  0.00    -0.480 C  
HETATM   24  C   UNL     1     -10.391  13.029  65.358  1.00  0.00    -0.300 C  
HETATM   25  O   UNL     1     -10.970  13.542  64.161  1.00  0.00    -0.367 OA 
HETATM   26  C   UNL     1     -12.427  14.012  66.002  1.00  0.00    -0.489 C  
ENDBRANCH  21  22
ENDBRANCH  12  21
BRANCH  20  27
HETATM   27  N   UNL     1      -9.984   7.974  71.836  1.00  0.00    -0.182 NA 
HETATM   28  H   UNL     1      -9.079   8.408  72.020  1.00  0.00     0.000 HD 
BRANCH  27  29
HETATM   29  C   UNL     1     -10.006   6.558  71.863  1.00  0.00    -0.177 A  
HETATM   30  C   UNL     1     -10.317   5.820  73.016  1.00  0.00    -0.229 A  
HETATM   31  C   UNL     1     -10.376   4.424  72.979  1.00  0.00    -0.179 A  
HETATM   32 CL   UNL     1     -10.715   3.556  74.432  1.00  0.00    -0.222 Cl 
HETATM   33  C   UNL     1     -10.153   3.748  71.786  1.00  0.00    -0.104 A  
HETATM   34  C   UNL     1      -9.895   4.454  70.622  1.00  0.00    -0.280 A  
HETATM   35  F   UNL     1     -10.207   2.411  71.736  1.00  0.00    -0.236 F  
HETATM   36  C   UNL     1      -9.830   5.851  70.658  1.00  0.00    -0.230 A  
ENDBRANCH  27  29
ENDBRANCH  20  27
ENDBRANCH   8  11
ENDBRANCH   6   7
ENDBRANCH   4   5
ENDBRANCH   2   4
TORSDOF 8
ENDMDL
MODEL       62
REMARK 921   NORMALIZED FREE ENERGY PREDICTED BY IDOCK:   -5.65 KCAL/MOL
REMARK 922        TOTAL FREE ENERGY PREDICTED BY IDOCK:   -9.83 KCAL/MOL
REMARK 923 INTER-LIGAND FREE ENERGY PREDICTED BY IDOCK:   -9.11 KCAL/MOL
REMARK 924 INTRA-LIGAND FREE ENERGY PREDICTED BY IDOCK:   -0.72 KCAL/MOL
REMARK 927      BINDING AFFINITY PREDICTED BY RF-SCORE:    0.00 PKD
ROOT
HETATM    1  C   UNL     1     -11.651  15.151  72.058  1.00  0.00    -0.412 C  
HETATM    2  N   UNL     1     -12.212  14.915  70.722  1.00  0.00    -0.300 NA 
HETATM    3  C   UNL     1     -11.120  14.966  69.737  1.00  0.00    -0.274 C  
ENDROOT
BRANCH   2   4
HETATM    4  C   UNL     1     -12.866  13.597  70.650  1.00  0.00    -0.154 C  
BRANCH   4   5
HETATM    5  C   UNL     1     -12.041  12.465  70.105  1.00  0.00    -0.366 C  
HETATM    6  C   UNL     1     -11.948  11.210  70.579  1.00  0.00    -0.475 C  
BRANCH   6   7
HETATM    7  C   UNL     1     -11.053  10.242  69.889  1.00  0.00    -0.304 C  
HETATM    8  N   UNL     1     -11.660   9.027  69.614  1.00  0.00    -0.352 N  
HETATM    9  O   UNL     1      -9.921  10.569  69.545  1.00  0.00    -0.217 OA 
HETATM   10  H   UNL     1     -12.595   8.848  69.980  1.00  0.00     0.000 HD 
BRANCH   8  11
HETATM   11  C   UNL     1     -11.025   8.027  68.840  1.00  0.00     0.149 A  
HETATM   12  C   UNL     1     -11.058   6.677  69.190  1.00  0.00    -0.275 A  
HETATM   13  N   UNL     1      -8.340   6.766  64.958  1.00  0.00    -0.095 NA 
HETATM   14  C   UNL     1     -10.457   5.738  68.334  1.00  0.00    -0.283 A  
HETATM   15  C   UNL     1     -10.284   8.400  67.703  1.00  0.00    -0.298 A  
HETATM   16  C   UNL     1      -9.784   6.092  67.169  1.00  0.00    -0.131 A  
HETATM   17  C   UNL     1      -9.639   7.448  66.869  1.00  0.00    -0.240 A  
HETATM   18  N   UNL     1      -9.275   5.123  66.402  1.00  0.00    -0.136 NA 
HETATM   19  C   UNL     1      -8.600   5.507  65.314  1.00  0.00    -0.149 A  
HETATM   20  C   UNL     1      -8.841   7.741  65.736  1.00  0.00    -0.106 A  
BRANCH  12  21
HETATM   21  O   UNL     1     -11.480   6.150  70.376  1.00  0.00    -0.356 OA 
BRANCH  21  22
HETATM   22  C   UNL     1     -10.649   6.142  71.531  1.00  0.00    -0.239 C  
HETATM   23  C   UNL     1      -9.468   7.595  73.040  1.00  0.00    -0.226 C  
HETATM   24  C   UNL     1     -11.515   6.607  72.697  1.00  0.00    -0.183 C  
HETATM   25  O   UNL     1     -10.621   7.072  73.706  1.00  0.00    -0.375 OA 
HETATM   26  C   UNL     1      -9.519   7.152  71.582  1.00  0.00    -0.159 C  
ENDBRANCH  21  22
ENDBRANCH  12  21
BRANCH  20  27
HETATM   27  N   UNL     1      -8.556   9.098  65.413  1.00  0.00    -0.158 NA 
HETATM   28  H   UNL     1      -7.606   9.412  65.614  1.00  0.00     0.000 HD 
BRANCH  27  29
HETATM   29  C   UNL     1      -9.418  10.070  64.848  1.00  0.00    -0.293 A  
HETATM   30  C   UNL     1     -10.255  10.891  65.621  1.00  0.00    -0.323 A  
HETATM   31  C   UNL     1     -11.051  11.870  65.021  1.00  0.00    -0.305 A  
HETATM   32 CL   UNL     1     -12.101  12.824  66.005  1.00  0.00    -0.488 Cl 
HETATM   33  C   UNL     1     -11.000  12.064  63.646  1.00  0.00    -0.448 A  
HETATM   34  C   UNL     1     -10.145  11.303  62.865  1.00  0.00    -0.243 A  
HETATM   35  F   UNL     1     -11.756  13.000  63.057  1.00  0.00    -0.550 F  
HETATM   36  C   UNL     1      -9.352  10.318  63.463  1.00  0.00    -0.341 A  
ENDBRANCH  27  29
ENDBRANCH  20  27
ENDBRANCH   8  11
ENDBRANCH   6   7
ENDBRANCH   4   5
ENDBRANCH   2   4
TORSDOF 8
ENDMDL
MODEL       63
REMARK 921   NORMALIZED FREE ENERGY PREDICTED BY IDOCK:   -5.62 KCAL/MOL
REMARK 922        TOTAL FREE ENERGY PREDICTED BY IDOCK:   -9.79 KCAL/MOL
REMARK 923 INTER-LIGAND FREE ENERGY PREDICTED BY IDOCK:   -8.41 KCAL/MOL
REMARK 924 INTRA-LIGAND FREE ENERGY PREDICTED BY IDOCK:   -1.38 KCAL/MOL
REMARK 927      BINDING AFFINITY PREDICTED BY RF-SCORE:    0.00 PKD
ROOT
HETATM    1  C   UNL     1     -10.173  20.080  67.791  1.00  0.00    -0.409 C  
HETATM    2  N   UNL     1      -9.916  19.652  66.410  1.00  0.00    -0.417 NA 
HETATM    3  C   UNL     1      -8.461  19.586  66.201  1.00  0.00    -0.314 C  
ENDROOT
BRANCH   2   4
HETATM    4  C   UNL     1     -10.502  18.325  66.152  1.00  0.00    -0.383 C  
BRANCH   4   5
HETATM    5  C   UNL     1      -9.971  17.184  66.974  1.00  0.00    -0.287 C  
HETATM    6  C   UNL     1     -10.572  16.010  67.240  1.00  0.00    -0.313 C  
BRANCH   6   7
HETATM    7  C   UNL     1      -9.868  15.016  68.095  1.00  0.00    -0.216 C  
HETATM    8  N   UNL     1      -9.186  14.051  67.372  1.00  0.00    -0.207 N  
HETATM    9  O   UNL     1      -9.857  15.135  69.316  1.00  0.00    -0.222 OA 
HETATM   10  H   UNL     1      -9.295  14.022  66.358  1.00  0.00     0.000 HD 
BRANCH   8  11
HETATM   11  C   UNL     1      -8.342  13.102  67.997  1.00  0.00    -0.162 A  
HETATM   12  C   UNL     1      -6.960  13.274  68.085  1.00  0.00    -0.114 A  
HETATM   13  N   UNL     1      -7.779   8.855  70.345  1.00  0.00    -0.086 NA 
HETATM   14  C   UNL     1      -6.199  12.318  68.778  1.00  0.00    -0.072 A  
HETATM   15  C   UNL     1      -8.896  11.913  68.504  1.00  0.00    -0.108 A  
HETATM   16  C   UNL     1      -6.750  11.173  69.346  1.00  0.00    -0.120 A  
HETATM   17  C   UNL     1      -8.113  10.927  69.162  1.00  0.00    -0.104 A  
HETATM   18  N   UNL     1      -5.948  10.339  70.015  1.00  0.00    -0.054 NA 
HETATM   19  C   UNL     1      -6.509   9.231  70.510  1.00  0.00    -0.067 A  
HETATM   20  C   UNL     1      -8.582   9.688  69.661  1.00  0.00    -0.187 A  
BRANCH  12  21
HETATM   21  O   UNL     1      -6.209  14.205  67.429  1.00  0.00    -0.336 OA 
BRANCH  21  22
HETATM   22  C   UNL     1      -5.814  15.423  68.051  1.00  0.00    -0.139 C  
HETATM   23  C   UNL     1      -6.666  17.541  68.807  1.00  0.00    -0.225 C  
HETATM   24  C   UNL     1      -6.331  15.370  69.486  1.00  0.00    -0.147 C  
HETATM   25  O   UNL     1      -6.389  16.718  69.945  1.00  0.00    -0.215 OA 
HETATM   26  C   UNL     1      -6.460  16.701  67.552  1.00  0.00    -0.183 C  
ENDBRANCH  21  22
ENDBRANCH  12  21
BRANCH  20  27
HETATM   27  N   UNL     1      -9.935   9.308  69.430  1.00  0.00    -0.175 NA 
HETATM   28  H   UNL     1     -10.144   8.959  68.494  1.00  0.00     0.000 HD 
BRANCH  27  29
HETATM   29  C   UNL     1     -11.029   9.350  70.330  1.00  0.00    -0.266 A  
HETATM   30  C   UNL     1     -11.609  10.550  70.771  1.00  0.00    -0.432 A  
HETATM   31  C   UNL     1     -12.719  10.539  71.620  1.00  0.00    -0.445 A  
HETATM   32 CL   UNL     1     -13.370  12.038  72.176  1.00  0.00    -0.545 Cl 
HETATM   33  C   UNL     1     -13.283   9.332  72.016  1.00  0.00    -0.447 A  
HETATM   34  C   UNL     1     -12.761   8.134  71.554  1.00  0.00    -0.327 A  
HETATM   35  F   UNL     1     -14.347   9.306  72.829  1.00  0.00    -0.435 F  
HETATM   36  C   UNL     1     -11.646   8.143  70.709  1.00  0.00    -0.249 A  
ENDBRANCH  27  29
ENDBRANCH  20  27
ENDBRANCH   8  11
ENDBRANCH   6   7
ENDBRANCH   4   5
ENDBRANCH   2   4
TORSDOF 8
ENDMDL
MODEL       64
REMARK 921   NORMALIZED FREE ENERGY PREDICTED BY IDOCK:   -5.62 KCAL/MOL
REMARK 922        TOTAL FREE ENERGY PREDICTED BY IDOCK:   -9.79 KCAL/MOL
REMARK 923 INTER-LIGAND FREE ENERGY PREDICTED BY IDOCK:   -8.46 KCAL/MOL
REMARK 924 INTRA-LIGAND FREE ENERGY PREDICTED BY IDOCK:   -1.32 KCAL/MOL
REMARK 927      BINDING AFFINITY PREDICTED BY RF-SCORE:    0.00 PKD
ROOT
HETATM    1  C   UNL     1     -12.651  12.002  63.447  1.00  0.00    -0.469 C  
HETATM    2  N   UNL     1     -11.267  12.490  63.380  1.00  0.00    -0.458 NA 
HETATM    3  C   UNL     1     -11.075  13.504  64.427  1.00  0.00    -0.380 C  
ENDROOT
BRANCH   2   4
HETATM    4  C   UNL     1     -10.309  11.391  63.590  1.00  0.00    -0.410 C  
BRANCH   4   5
HETATM    5  C   UNL     1     -10.058  10.980  65.013  1.00  0.00    -0.354 C  
HETATM    6  C   UNL     1      -9.863   9.738  65.490  1.00  0.00    -0.378 C  
BRANCH   6   7
HETATM    7  C   UNL     1      -9.644   9.551  66.950  1.00  0.00    -0.165 C  
HETATM    8  N   UNL     1     -10.795   9.210  67.642  1.00  0.00    -0.475 N  
HETATM    9  O   UNL     1      -8.516   9.622  67.430  1.00  0.00    -0.124 OA 
HETATM   10  H   UNL     1     -11.689   9.217  67.150  1.00  0.00     0.000 HD 
BRANCH   8  11
HETATM   11  C   UNL     1     -10.770   8.853  69.011  1.00  0.00    -0.126 A  
HETATM   12  C   UNL     1     -10.819   9.802  70.034  1.00  0.00    -0.278 A  
HETATM   13  N   UNL     1     -10.549   5.410  72.471  1.00  0.00    -0.217 NA 
HETATM   14  C   UNL     1     -10.857   9.364  71.367  1.00  0.00    -0.430 A  
HETATM   15  C   UNL     1     -10.640   7.499  69.370  1.00  0.00    -0.225 A  
HETATM   16  C   UNL     1     -10.800   8.021  71.729  1.00  0.00    -0.242 A  
HETATM   17  C   UNL     1     -10.630   7.066  70.723  1.00  0.00    -0.240 A  
HETATM   18  N   UNL     1     -10.876   7.701  73.024  1.00  0.00    -0.385 NA 
HETATM   19  C   UNL     1     -10.776   6.404  73.331  1.00  0.00    -0.262 A  
HETATM   20  C   UNL     1     -10.459   5.733  71.169  1.00  0.00    -0.239 A  
BRANCH  12  21
HETATM   21  O   UNL     1     -10.675  11.152  69.901  1.00  0.00    -0.114 OA 
BRANCH  21  22
HETATM   22  C   UNL     1     -11.778  11.998  69.598  1.00  0.00    -0.335 C  
HETATM   23  C   UNL     1     -12.502  14.290  69.682  1.00  0.00    -0.171 C  
HETATM   24  C   UNL     1     -11.399  12.781  68.344  1.00  0.00    -0.295 C  
HETATM   25  O   UNL     1     -12.231  13.938  68.322  1.00  0.00    -0.332 OA 
HETATM   26  C   UNL     1     -12.079  13.125  70.568  1.00  0.00    -0.385 C  
ENDBRANCH  21  22
ENDBRANCH  12  21
BRANCH  20  27
HETATM   27  N   UNL     1     -10.179   4.708  70.220  1.00  0.00    -0.204 NA 
HETATM   28  H   UNL     1     -10.779   3.884  70.269  1.00  0.00     0.000 HD 
BRANCH  27  29
HETATM   29  C   UNL     1      -9.178   4.684  69.218  1.00  0.00    -0.127 A  
HETATM   30  C   UNL     1      -9.469   4.744  67.846  1.00  0.00    -0.181 A  
HETATM   31  C   UNL     1      -8.444   4.768  66.896  1.00  0.00    -0.105 A  
HETATM   32 CL   UNL     1      -8.849   4.793  65.218  1.00  0.00    -0.144 Cl 
HETATM   33  C   UNL     1      -7.116   4.761  67.304  1.00  0.00    -0.069 A  
HETATM   34  C   UNL     1      -6.801   4.755  68.654  1.00  0.00    -0.051 A  
HETATM   35  F   UNL     1      -6.123   4.785  66.406  1.00  0.00    -0.026 F  
HETATM   36  C   UNL     1      -7.825   4.725  69.605  1.00  0.00    -0.066 A  
ENDBRANCH  27  29
ENDBRANCH  20  27
ENDBRANCH   8  11
ENDBRANCH   6   7
ENDBRANCH   4   5
ENDBRANCH   2   4
TORSDOF 8
ENDMDL
MODEL       65
REMARK 921   NORMALIZED FREE ENERGY PREDICTED BY IDOCK:   -5.61 KCAL/MOL
REMARK 922        TOTAL FREE ENERGY PREDICTED BY IDOCK:   -9.77 KCAL/MOL
REMARK 923 INTER-LIGAND FREE ENERGY PREDICTED BY IDOCK:   -8.37 KCAL/MOL
REMARK 924 INTRA-LIGAND FREE ENERGY PREDICTED BY IDOCK:   -1.40 KCAL/MOL
REMARK 927      BINDING AFFINITY PREDICTED BY RF-SCORE:    0.00 PKD
ROOT
HETATM    1  C   UNL     1      -8.682  19.260  68.475  1.00  0.00    -0.367 C  
HETATM    2  N   UNL     1      -9.010  17.951  67.894  1.00  0.00    -0.259 NA 
HETATM    3  C   UNL     1      -7.980  17.605  66.902  1.00  0.00    -0.226 C  
ENDROOT
BRANCH   2   4
HETATM    4  C   UNL     1      -9.049  16.908  68.934  1.00  0.00    -0.223 C  
BRANCH   4   5
HETATM    5  C   UNL     1      -9.423  15.524  68.485  1.00  0.00    -0.200 C  
HETATM    6  C   UNL     1     -10.080  14.580  69.182  1.00  0.00    -0.145 C  
BRANCH   6   7
HETATM    7  C   UNL     1     -10.337  13.260  68.547  1.00  0.00    -0.239 C  
HETATM    8  N   UNL     1      -9.256  12.772  67.829  1.00  0.00    -0.191 N  
HETATM    9  O   UNL     1     -11.392  12.664  68.741  1.00  0.00    -0.249 OA 
HETATM   10  H   UNL     1      -8.438  13.369  67.700  1.00  0.00     0.000 HD 
BRANCH   8  11
HETATM   11  C   UNL     1      -9.250  11.473  67.269  1.00  0.00    -0.167 A  
HETATM   12  C   UNL     1      -9.376  11.248  65.898  1.00  0.00    -0.219 A  
HETATM   13  N   UNL     1      -8.982   6.629  67.851  1.00  0.00    -0.114 NA 
HETATM   14  C   UNL     1      -9.295   9.932  65.414  1.00  0.00    -0.297 A  
HETATM   15  C   UNL     1      -9.167  10.355  68.120  1.00  0.00    -0.145 A  
HETATM   16  C   UNL     1      -9.141   8.825  66.243  1.00  0.00    -0.193 A  
HETATM   17  C   UNL     1      -9.134   9.023  67.626  1.00  0.00    -0.144 A  
HETATM   18  N   UNL     1      -9.040   7.614  65.686  1.00  0.00     0.001 NA 
HETATM   19  C   UNL     1      -8.935   6.574  66.519  1.00  0.00    -0.143 A  
HETATM   20  C   UNL     1      -9.097   7.846  68.412  1.00  0.00    -0.135 A  
BRANCH  12  21
HETATM   21  O   UNL     1      -9.734  12.162  64.950  1.00  0.00    -0.191 OA 
BRANCH  21  22
HETATM   22  C   UNL     1     -11.050  12.701  64.888  1.00  0.00    -0.296 C  
HETATM   23  C   UNL     1     -12.270  14.686  64.294  1.00  0.00    -0.408 C  
HETATM   24  C   UNL     1     -11.441  12.731  63.413  1.00  0.00    -0.394 C  
HETATM   25  O   UNL     1     -12.491  13.687  63.292  1.00  0.00    -0.801 OA 
HETATM   26  C   UNL     1     -11.224  14.158  65.268  1.00  0.00    -0.326 C  
ENDBRANCH  21  22
ENDBRANCH  12  21
BRANCH  20  27
HETATM   27  N   UNL     1      -9.187   7.947  69.829  1.00  0.00    -0.150 NA 
HETATM   28  H   UNL     1      -8.526   8.586  70.271  1.00  0.00     0.000 HD 
BRANCH  27  29
HETATM   29  C   UNL     1     -10.076   7.276  70.706  1.00  0.00    -0.190 A  
HETATM   30  C   UNL     1     -11.447   7.568  70.775  1.00  0.00    -0.305 A  
HETATM   31  C   UNL     1     -12.292   6.843  71.620  1.00  0.00    -0.371 A  
HETATM   32 CL   UNL     1     -13.963   7.269  71.709  1.00  0.00    -0.473 Cl 
HETATM   33  C   UNL     1     -11.786   5.799  72.384  1.00  0.00    -0.168 A  
HETATM   34  C   UNL     1     -10.446   5.456  72.296  1.00  0.00    -0.272 A  
HETATM   35  F   UNL     1     -12.584   5.095  73.198  1.00  0.00    -0.202 F  
HETATM   36  C   UNL     1      -9.597   6.184  71.456  1.00  0.00    -0.172 A  
ENDBRANCH  27  29
ENDBRANCH  20  27
ENDBRANCH   8  11
ENDBRANCH   6   7
ENDBRANCH   4   5
ENDBRANCH   2   4
TORSDOF 8
ENDMDL
MODEL       66
REMARK 921   NORMALIZED FREE ENERGY PREDICTED BY IDOCK:   -5.60 KCAL/MOL
REMARK 922        TOTAL FREE ENERGY PREDICTED BY IDOCK:   -9.75 KCAL/MOL
REMARK 923 INTER-LIGAND FREE ENERGY PREDICTED BY IDOCK:   -8.26 KCAL/MOL
REMARK 924 INTRA-LIGAND FREE ENERGY PREDICTED BY IDOCK:   -1.50 KCAL/MOL
REMARK 927      BINDING AFFINITY PREDICTED BY RF-SCORE:    0.00 PKD
ROOT
HETATM    1  C   UNL     1      -8.290   8.337  72.360  1.00  0.00    -0.170 C  
HETATM    2  N   UNL     1      -6.960   8.136  71.770  1.00  0.00    -0.069 NA 
HETATM    3  C   UNL     1      -7.074   7.160  70.676  1.00  0.00    -0.066 C  
ENDROOT
BRANCH   2   4
HETATM    4  C   UNL     1      -6.425   9.400  71.236  1.00  0.00    -0.037 C  
BRANCH   4   5
HETATM    5  C   UNL     1      -7.123   9.973  70.035  1.00  0.00    -0.146 C  
HETATM    6  C   UNL     1      -6.953  11.188  69.485  1.00  0.00    -0.111 C  
BRANCH   6   7
HETATM    7  C   UNL     1      -7.765  11.562  68.295  1.00  0.00    -0.123 C  
HETATM    8  N   UNL     1      -9.046  11.986  68.612  1.00  0.00    -0.374 N  
HETATM    9  O   UNL     1      -7.272  11.557  67.172  1.00  0.00    -0.122 OA 
HETATM   10  H   UNL     1      -9.367  11.913  69.578  1.00  0.00     0.000 HD 
BRANCH   8  11
HETATM   11  C   UNL     1      -9.924  12.517  67.637  1.00  0.00    -0.201 A  
HETATM   12  C   UNL     1     -11.089  11.858  67.241  1.00  0.00    -0.288 A  
HETATM   13  N   UNL     1     -11.069  16.055  64.468  1.00  0.00    -0.590 NA 
HETATM   14  C   UNL     1     -11.942  12.482  66.316  1.00  0.00    -0.410 A  
HETATM   15  C   UNL     1      -9.597  13.727  66.998  1.00  0.00    -0.251 A  
HETATM   16  C   UNL     1     -11.661  13.713  65.732  1.00  0.00    -0.333 A  
HETATM   17  C   UNL     1     -10.442  14.329  66.028  1.00  0.00    -0.306 A  
HETATM   18  N   UNL     1     -12.551  14.242  64.887  1.00  0.00    -0.634 NA 
HETATM   19  C   UNL     1     -12.224  15.405  64.317  1.00  0.00    -0.126 A  
HETATM   20  C   UNL     1     -10.167  15.517  65.308  1.00  0.00    -0.346 A  
BRANCH  12  21
HETATM   21  O   UNL     1     -11.439  10.572  67.533  1.00  0.00    -0.431 OA 
BRANCH  21  22
HETATM   22  C   UNL     1     -10.908   9.468  66.808  1.00  0.00     0.039 C  
HETATM   23  C   UNL     1      -8.885   8.644  65.800  1.00  0.00    -0.193 C  
HETATM   24  C   UNL     1     -10.044   8.677  67.786  1.00  0.00    -0.211 C  
HETATM   25  O   UNL     1      -9.144   7.903  66.997  1.00  0.00    -0.129 OA 
HETATM   26  C   UNL     1      -9.906   9.772  65.711  1.00  0.00    -0.360 C  
ENDBRANCH  21  22
ENDBRANCH  12  21
BRANCH  20  27
HETATM   27  N   UNL     1      -8.906  16.158  65.470  1.00  0.00    -0.108 NA 
HETATM   28  H   UNL     1      -8.194  15.916  64.781  1.00  0.00     0.000 HD 
BRANCH  27  29
HETATM   29  C   UNL     1      -8.511  17.088  66.464  1.00  0.00    -0.271 A  
HETATM   30  C   UNL     1      -7.390  16.897  67.287  1.00  0.00    -0.199 A  
HETATM   31  C   UNL     1      -7.011  17.867  68.218  1.00  0.00    -0.222 A  
HETATM   32 CL   UNL     1      -5.655  17.568  69.243  1.00  0.00    -0.186 Cl 
HETATM   33  C   UNL     1      -7.728  19.053  68.320  1.00  0.00    -0.311 A  
HETATM   34  C   UNL     1      -8.808  19.290  67.484  1.00  0.00    -0.339 A  
HETATM   35  F   UNL     1      -7.376  19.993  69.208  1.00  0.00    -0.336 F  
HETATM   36  C   UNL     1      -9.192  18.317  66.555  1.00  0.00    -0.298 A  
ENDBRANCH  27  29
ENDBRANCH  20  27
ENDBRANCH   8  11
ENDBRANCH   6   7
ENDBRANCH   4   5
ENDBRANCH   2   4
TORSDOF 8
ENDMDL
MODEL       67
REMARK 921   NORMALIZED FREE ENERGY PREDICTED BY IDOCK:   -5.57 KCAL/MOL
REMARK 922        TOTAL FREE ENERGY PREDICTED BY IDOCK:   -9.71 KCAL/MOL
REMARK 923 INTER-LIGAND FREE ENERGY PREDICTED BY IDOCK:   -8.28 KCAL/MOL
REMARK 924 INTRA-LIGAND FREE ENERGY PREDICTED BY IDOCK:   -1.43 KCAL/MOL
REMARK 927      BINDING AFFINITY PREDICTED BY RF-SCORE:    0.00 PKD
ROOT
HETATM    1  C   UNL     1     -12.108  12.787  69.991  1.00  0.00    -0.285 C  
HETATM    2  N   UNL     1     -12.462  13.154  71.368  1.00  0.00    -0.250 NA 
HETATM    3  C   UNL     1     -13.303  14.360  71.332  1.00  0.00    -0.349 C  
ENDROOT
BRANCH   2   4
HETATM    4  C   UNL     1     -13.205  12.066  72.029  1.00  0.00    -0.375 C  
BRANCH   4   5
HETATM    5  C   UNL     1     -12.948  10.674  71.526  1.00  0.00    -0.566 C  
HETATM    6  C   UNL     1     -13.186   9.511  72.160  1.00  0.00    -0.539 C  
BRANCH   6   7
HETATM    7  C   UNL     1     -12.840   8.234  71.480  1.00  0.00    -0.293 C  
HETATM    8  N   UNL     1     -11.494   8.119  71.173  1.00  0.00    -0.272 N  
HETATM    9  O   UNL     1     -13.689   7.365  71.307  1.00  0.00    -0.359 OA 
HETATM   10  H   UNL     1     -10.881   8.920  71.326  1.00  0.00     0.000 HD 
BRANCH   8  11
HETATM   11  C   UNL     1     -10.941   6.924  70.653  1.00  0.00    -0.264 A  
HETATM   12  C   UNL     1     -10.481   5.893  71.474  1.00  0.00    -0.233 A  
HETATM   13  N   UNL     1      -9.623   4.205  66.813  1.00  0.00    -0.197 NA 
HETATM   14  C   UNL     1     -10.007   4.712  70.880  1.00  0.00    -0.273 A  
HETATM   15  C   UNL     1     -10.795   6.779  69.261  1.00  0.00    -0.303 A  
HETATM   16  C   UNL     1      -9.925   4.532  69.503  1.00  0.00    -0.165 A  
HETATM   17  C   UNL     1     -10.268   5.600  68.670  1.00  0.00    -0.263 A  
HETATM   18  N   UNL     1      -9.491   3.359  69.033  1.00  0.00    -0.165 NA 
HETATM   19  C   UNL     1      -9.389   3.242  67.705  1.00  0.00    -0.197 A  
HETATM   20  C   UNL     1     -10.048   5.391  67.287  1.00  0.00    -0.193 A  
BRANCH  12  21
HETATM   21  O   UNL     1     -10.285   5.949  72.823  1.00  0.00    -0.177 OA 
BRANCH  21  22
HETATM   22  C   UNL     1      -9.074   6.441  73.385  1.00  0.00    -0.127 C  
HETATM   23  C   UNL     1      -7.171   7.828  72.895  1.00  0.00    -0.087 C  
HETATM   24  C   UNL     1      -9.313   7.909  73.726  1.00  0.00    -0.147 C  
HETATM   25  O   UNL     1      -8.028   8.520  73.809  1.00  0.00    -0.374 OA 
HETATM   26  C   UNL     1      -7.872   6.545  72.465  1.00  0.00    -0.103 C  
ENDBRANCH  21  22
ENDBRANCH  12  21
BRANCH  20  27
HETATM   27  N   UNL     1     -10.274   6.458  66.372  1.00  0.00    -0.418 NA 
HETATM   28  H   UNL     1     -11.040   6.321  65.711  1.00  0.00     0.000 HD 
BRANCH  27  29
HETATM   29  C   UNL     1      -9.576   7.686  66.259  1.00  0.00    -0.085 A  
HETATM   30  C   UNL     1     -10.169   8.930  66.523  1.00  0.00    -0.319 A  
HETATM   31  C   UNL     1      -9.425  10.110  66.448  1.00  0.00    -0.176 A  
HETATM   32 CL   UNL     1     -10.208  11.622  66.733  1.00  0.00    -0.241 Cl 
HETATM   33  C   UNL     1      -8.071  10.062  66.136  1.00  0.00    -0.122 A  
HETATM   34  C   UNL     1      -7.448   8.842  65.922  1.00  0.00    -0.093 A  
HETATM   35  F   UNL     1      -7.344  11.184  66.061  1.00  0.00    -0.138 F  
HETATM   36  C   UNL     1      -8.193   7.661  65.992  1.00  0.00    -0.128 A  
ENDBRANCH  27  29
ENDBRANCH  20  27
ENDBRANCH   8  11
ENDBRANCH   6   7
ENDBRANCH   4   5
ENDBRANCH   2   4
TORSDOF 8
ENDMDL
MODEL       68
REMARK 921   NORMALIZED FREE ENERGY PREDICTED BY IDOCK:   -5.56 KCAL/MOL
REMARK 922        TOTAL FREE ENERGY PREDICTED BY IDOCK:   -9.70 KCAL/MOL
REMARK 923 INTER-LIGAND FREE ENERGY PREDICTED BY IDOCK:   -8.79 KCAL/MOL
REMARK 924 INTRA-LIGAND FREE ENERGY PREDICTED BY IDOCK:   -0.91 KCAL/MOL
REMARK 927      BINDING AFFINITY PREDICTED BY RF-SCORE:    0.00 PKD
ROOT
HETATM    1  C   UNL     1     -10.100  18.380  68.308  1.00  0.00    -0.383 C  
HETATM    2  N   UNL     1     -10.527  17.774  67.040  1.00  0.00    -0.343 NA 
HETATM    3  C   UNL     1     -10.413  18.782  65.976  1.00  0.00    -0.432 C  
ENDROOT
BRANCH   2   4
HETATM    4  C   UNL     1      -9.685  16.614  66.700  1.00  0.00    -0.266 C  
BRANCH   4   5
HETATM    5  C   UNL     1     -10.166  15.272  67.174  1.00  0.00    -0.252 C  
HETATM    6  C   UNL     1     -10.822  14.334  66.467  1.00  0.00    -0.304 C  
BRANCH   6   7
HETATM    7  C   UNL     1     -11.221  13.069  67.141  1.00  0.00    -0.286 C  
HETATM    8  N   UNL     1     -10.510  12.813  68.303  1.00  0.00    -0.235 N  
HETATM    9  O   UNL     1     -12.154  12.397  66.713  1.00  0.00    -0.578 OA 
HETATM   10  H   UNL     1      -9.727  13.420  68.547  1.00  0.00     0.000 HD 
BRANCH   8  11
HETATM   11  C   UNL     1     -10.835  11.737  69.162  1.00  0.00    -0.172 A  
HETATM   12  C   UNL     1     -11.947  11.761  70.004  1.00  0.00    -0.344 A  
HETATM   13  N   UNL     1      -9.828   7.293  70.925  1.00  0.00    -0.184 NA 
HETATM   14  C   UNL     1     -12.239  10.626  70.779  1.00  0.00    -0.474 A  
HETATM   15  C   UNL     1      -9.986  10.616  69.217  1.00  0.00    -0.215 A  
HETATM   16  C   UNL     1     -11.443   9.485  70.785  1.00  0.00    -0.310 A  
HETATM   17  C   UNL     1     -10.262   9.491  70.039  1.00  0.00    -0.281 A  
HETATM   18  N   UNL     1     -11.822   8.442  71.530  1.00  0.00    -0.284 NA 
HETATM   19  C   UNL     1     -11.008   7.381  71.541  1.00  0.00    -0.230 A  
HETATM   20  C   UNL     1      -9.440   8.347  70.186  1.00  0.00    -0.164 A  
BRANCH  12  21
HETATM   21  O   UNL     1     -12.727  12.842  70.296  1.00  0.00    -0.055 OA 
BRANCH  21  22
HETATM   22  C   UNL     1     -12.450  13.688  71.407  1.00  0.00    -0.285 C  
HETATM   23  C   UNL     1     -13.055  15.795  72.396  1.00  0.00    -0.465 C  
HETATM   24  C   UNL     1     -13.643  13.573  72.352  1.00  0.00    -0.608 C  
HETATM   25  O   UNL     1     -13.621  14.737  73.175  1.00  0.00    -0.552 OA 
HETATM   26  C   UNL     1     -12.418  15.182  71.154  1.00  0.00    -0.416 C  
ENDBRANCH  21  22
ENDBRANCH  12  21
BRANCH  20  27
HETATM   27  N   UNL     1      -8.171   8.309  69.542  1.00  0.00    -0.117 NA 
HETATM   28  H   UNL     1      -7.415   7.880  70.077  1.00  0.00     0.000 HD 
BRANCH  27  29
HETATM   29  C   UNL     1      -7.820   8.790  68.256  1.00  0.00    -0.101 A  
HETATM   30  C   UNL     1      -8.460   8.366  67.081  1.00  0.00    -0.123 A  
HETATM   31  C   UNL     1      -8.112   8.907  65.840  1.00  0.00    -0.109 A  
HETATM   32 CL   UNL     1      -8.892   8.320  64.416  1.00  0.00     0.171 Cl 
HETATM   33  C   UNL     1      -7.143   9.898  65.759  1.00  0.00    -0.110 A  
HETATM   34  C   UNL     1      -6.532  10.372  66.909  1.00  0.00    -0.076 A  
HETATM   35  F   UNL     1      -6.800  10.427  64.577  1.00  0.00    -0.134 F  
HETATM   36  C   UNL     1      -6.874   9.828  68.152  1.00  0.00    -0.069 A  
ENDBRANCH  27  29
ENDBRANCH  20  27
ENDBRANCH   8  11
ENDBRANCH   6   7
ENDBRANCH   4   5
ENDBRANCH   2   4
TORSDOF 8
ENDMDL
MODEL       69
REMARK 921   NORMALIZED FREE ENERGY PREDICTED BY IDOCK:   -5.55 KCAL/MOL
REMARK 922        TOTAL FREE ENERGY PREDICTED BY IDOCK:   -9.68 KCAL/MOL
REMARK 923 INTER-LIGAND FREE ENERGY PREDICTED BY IDOCK:   -9.06 KCAL/MOL
REMARK 924 INTRA-LIGAND FREE ENERGY PREDICTED BY IDOCK:   -0.62 KCAL/MOL
REMARK 927      BINDING AFFINITY PREDICTED BY RF-SCORE:    0.00 PKD
ROOT
HETATM    1  C   UNL     1      -6.039   5.885  71.525  1.00  0.00    -0.038 C  
HETATM    2  N   UNL     1      -7.295   6.626  71.703  1.00  0.00    -0.085 NA 
HETATM    3  C   UNL     1      -7.750   6.454  73.091  1.00  0.00    -0.098 C  
ENDROOT
BRANCH   2   4
HETATM    4  C   UNL     1      -7.103   8.061  71.432  1.00  0.00    -0.063 C  
BRANCH   4   5
HETATM    5  C   UNL     1      -8.204   8.758  70.683  1.00  0.00    -0.159 C  
HETATM    6  C   UNL     1      -9.457   9.008  71.103  1.00  0.00    -0.348 C  
BRANCH   6   7
HETATM    7  C   UNL     1     -10.400   9.705  70.188  1.00  0.00    -0.266 C  
HETATM    8  N   UNL     1      -9.966  10.963  69.800  1.00  0.00    -0.390 N  
HETATM    9  O   UNL     1     -11.411   9.142  69.780  1.00  0.00    -0.126 OA 
HETATM   10  H   UNL     1      -9.127  11.352  70.232  1.00  0.00     0.000 HD 
BRANCH   8  11
HETATM   11  C   UNL     1     -10.650  11.727  68.825  1.00  0.00    -0.206 A  
HETATM   12  C   UNL     1     -11.551  12.738  69.163  1.00  0.00    -0.319 A  
HETATM   13  N   UNL     1     -11.577  12.722  64.132  1.00  0.00    -0.366 NA 
HETATM   14  C   UNL     1     -12.140  13.494  68.136  1.00  0.00    -0.290 A  
HETATM   15  C   UNL     1     -10.464  11.432  67.462  1.00  0.00    -0.233 A  
HETATM   16  C   UNL     1     -11.906  13.255  66.785  1.00  0.00    -0.394 A  
HETATM   17  C   UNL     1     -11.101  12.171  66.429  1.00  0.00    -0.358 A  
HETATM   18  N   UNL     1     -12.487  14.052  65.882  1.00  0.00    -0.491 NA 
HETATM   19  C   UNL     1     -12.270  13.763  64.595  1.00  0.00    -0.406 A  
HETATM   20  C   UNL     1     -11.003  11.913  65.040  1.00  0.00    -0.312 A  
BRANCH  12  21
HETATM   21  O   UNL     1     -12.068  12.991  70.399  1.00  0.00    -0.359 OA 
BRANCH  21  22
HETATM   22  C   UNL     1     -12.652  14.248  70.725  1.00  0.00    -0.356 C  
HETATM   23  C   UNL     1     -13.382  15.585  72.585  1.00  0.00    -0.522 C  
HETATM   24  C   UNL     1     -11.535  15.114  71.300  1.00  0.00    -0.349 C  
HETATM   25  O   UNL     1     -12.169  16.137  72.064  1.00  0.00    -0.471 OA 
HETATM   26  C   UNL     1     -13.658  14.274  71.859  1.00  0.00    -0.501 C  
ENDBRANCH  21  22
ENDBRANCH  12  21
BRANCH  20  27
HETATM   27  N   UNL     1     -10.285  10.769  64.590  1.00  0.00    -0.340 NA 
HETATM   28  H   UNL     1     -10.431  10.510  63.613  1.00  0.00     0.000 HD 
BRANCH  27  29
HETATM   29  C   UNL     1      -9.396   9.941  65.320  1.00  0.00    -0.251 A  
HETATM   30  C   UNL     1      -9.826   8.848  66.088  1.00  0.00    -0.326 A  
HETATM   31  C   UNL     1      -8.905   8.031  66.749  1.00  0.00    -0.140 A  
HETATM   32 CL   UNL     1      -9.482   6.727  67.722  1.00  0.00    -0.119 Cl 
HETATM   33  C   UNL     1      -7.543   8.276  66.630  1.00  0.00    -0.090 A  
HETATM   34  C   UNL     1      -7.089   9.318  65.836  1.00  0.00    -0.090 A  
HETATM   35  F   UNL     1      -6.649   7.501  67.257  1.00  0.00    -0.053 F  
HETATM   36  C   UNL     1      -8.009  10.140  65.177  1.00  0.00    -0.146 A  
ENDBRANCH  27  29
ENDBRANCH  20  27
ENDBRANCH   8  11
ENDBRANCH   6   7
ENDBRANCH   4   5
ENDBRANCH   2   4
TORSDOF 8
ENDMDL
MODEL       70
REMARK 921   NORMALIZED FREE ENERGY PREDICTED BY IDOCK:   -5.54 KCAL/MOL
REMARK 922        TOTAL FREE ENERGY PREDICTED BY IDOCK:   -9.68 KCAL/MOL
REMARK 923 INTER-LIGAND FREE ENERGY PREDICTED BY IDOCK:   -8.50 KCAL/MOL
REMARK 924 INTRA-LIGAND FREE ENERGY PREDICTED BY IDOCK:   -1.17 KCAL/MOL
REMARK 927      BINDING AFFINITY PREDICTED BY RF-SCORE:    0.00 PKD
ROOT
HETATM    1  C   UNL     1      -9.126   4.601  68.142  1.00  0.00    -0.120 C  
HETATM    2  N   UNL     1      -7.700   4.859  68.377  1.00  0.00    -0.081 NA 
HETATM    3  C   UNL     1      -7.015   4.934  67.078  1.00  0.00    -0.061 C  
ENDROOT
BRANCH   2   4
HETATM    4  C   UNL     1      -7.507   6.129  69.099  1.00  0.00    -0.090 C  
BRANCH   4   5
HETATM    5  C   UNL     1      -8.303   7.307  68.614  1.00  0.00    -0.125 C  
HETATM    6  C   UNL     1      -9.247   7.996  69.281  1.00  0.00    -0.152 C  
BRANCH   6   7
HETATM    7  C   UNL     1      -9.928   9.131  68.601  1.00  0.00    -0.170 C  
HETATM    8  N   UNL     1      -9.327   9.502  67.409  1.00  0.00    -0.130 N  
HETATM    9  O   UNL     1     -10.967   9.601  69.054  1.00  0.00    -0.208 OA 
HETATM   10  H   UNL     1      -8.442   9.069  67.145  1.00  0.00     0.000 HD 
BRANCH   8  11
HETATM   11  C   UNL     1      -9.903  10.464  66.545  1.00  0.00    -0.206 A  
HETATM   12  C   UNL     1     -10.030  10.255  65.171  1.00  0.00    -0.325 A  
HETATM   13  N   UNL     1     -11.970  14.842  65.884  1.00  0.00    -0.223 NA 
HETATM   14  C   UNL     1     -10.672  11.231  64.392  1.00  0.00    -0.407 A  
HETATM   15  C   UNL     1     -10.318  11.702  67.069  1.00  0.00    -0.248 A  
HETATM   16  C   UNL     1     -11.150  12.429  64.915  1.00  0.00    -0.303 A  
HETATM   17  C   UNL     1     -10.923  12.705  66.265  1.00  0.00    -0.314 A  
HETATM   18  N   UNL     1     -11.778  13.281  64.098  1.00  0.00    -0.399 NA 
HETATM   19  C   UNL     1     -12.184  14.438  64.631  1.00  0.00    -0.464 A  
HETATM   20  C   UNL     1     -11.327  13.990  66.702  1.00  0.00    -0.335 A  
BRANCH  12  21
HETATM   21  O   UNL     1      -9.454   9.258  64.440  1.00  0.00     0.010 OA 
BRANCH  21  22
HETATM   22  C   UNL     1      -8.365   9.507  63.559  1.00  0.00    -0.176 C  
HETATM   23  C   UNL     1      -5.973   9.327  63.386  1.00  0.00    -0.089 C  
HETATM   24  C   UNL     1      -7.915   8.151  63.023  1.00  0.00    -0.154 C  
HETATM   25  O   UNL     1      -6.575   8.320  62.566  1.00  0.00    -0.087 OA 
HETATM   26  C   UNL     1      -7.077  10.023  64.172  1.00  0.00    -0.126 C  
ENDBRANCH  21  22
ENDBRANCH  12  21
BRANCH  20  27
HETATM   27  N   UNL     1     -11.044  14.396  68.038  1.00  0.00    -0.264 NA 
HETATM   28  H   UNL     1     -10.155  14.877  68.176  1.00  0.00     0.000 HD 
BRANCH  27  29
HETATM   29  C   UNL     1     -11.837  14.220  69.199  1.00  0.00    -0.330 A  
HETATM   30  C   UNL     1     -11.981  12.982  69.845  1.00  0.00    -0.381 A  
HETATM   31  C   UNL     1     -12.732  12.869  71.018  1.00  0.00    -0.251 A  
HETATM   32 CL   UNL     1     -12.923  11.318  71.751  1.00  0.00    -0.559 Cl 
HETATM   33  C   UNL     1     -13.325  13.994  71.577  1.00  0.00    -0.350 A  
HETATM   34  C   UNL     1     -13.155  15.237  70.989  1.00  0.00    -0.544 A  
HETATM   35  F   UNL     1     -14.047  13.901  72.702  1.00  0.00    -0.555 F  
HETATM   36  C   UNL     1     -12.408  15.351  69.812  1.00  0.00    -0.288 A  
ENDBRANCH  27  29
ENDBRANCH  20  27
ENDBRANCH   8  11
ENDBRANCH   6   7
ENDBRANCH   4   5
ENDBRANCH   2   4
TORSDOF 8
ENDMDL
MODEL       71
REMARK 921   NORMALIZED FREE ENERGY PREDICTED BY IDOCK:   -5.54 KCAL/MOL
REMARK 922        TOTAL FREE ENERGY PREDICTED BY IDOCK:   -9.66 KCAL/MOL
REMARK 923 INTER-LIGAND FREE ENERGY PREDICTED BY IDOCK:   -9.16 KCAL/MOL
REMARK 924 INTRA-LIGAND FREE ENERGY PREDICTED BY IDOCK:   -0.51 KCAL/MOL
REMARK 927      BINDING AFFINITY PREDICTED BY RF-SCORE:    0.00 PKD
ROOT
HETATM    1  C   UNL     1      -7.879   5.303  68.029  1.00  0.00    -0.091 C  
HETATM    2  N   UNL     1      -9.170   5.464  67.347  1.00  0.00    -0.111 NA 
HETATM    3  C   UNL     1     -10.199   5.763  68.354  1.00  0.00    -0.191 C  
ENDROOT
BRANCH   2   4
HETATM    4  C   UNL     1      -9.115   6.565  66.370  1.00  0.00    -0.155 C  
BRANCH   4   5
HETATM    5  C   UNL     1      -9.814   7.840  66.752  1.00  0.00    -0.312 C  
HETATM    6  C   UNL     1      -9.687   9.052  66.184  1.00  0.00    -0.354 C  
BRANCH   6   7
HETATM    7  C   UNL     1     -10.470  10.193  66.733  1.00  0.00    -0.204 C  
HETATM    8  N   UNL     1     -10.473  10.244  68.118  1.00  0.00    -0.177 N  
HETATM    9  O   UNL     1     -10.974  11.025  65.986  1.00  0.00    -0.189 OA 
HETATM   10  H   UNL     1     -10.053   9.477  68.642  1.00  0.00     0.000 HD 
BRANCH   8  11
HETATM   11  C   UNL     1     -11.040  11.329  68.828  1.00  0.00    -0.233 A  
HETATM   12  C   UNL     1     -11.854  11.147  69.946  1.00  0.00    -0.363 A  
HETATM   13  N   UNL     1     -11.672  16.143  69.380  1.00  0.00    -0.269 NA 
HETATM   14  C   UNL     1     -12.325  12.277  70.635  1.00  0.00    -0.375 A  
HETATM   15  C   UNL     1     -10.826  12.642  68.369  1.00  0.00    -0.268 A  
HETATM   16  C   UNL     1     -12.059  13.581  70.229  1.00  0.00    -0.355 A  
HETATM   17  C   UNL     1     -11.346  13.779  69.044  1.00  0.00    -0.333 A  
HETATM   18  N   UNL     1     -12.524  14.592  70.971  1.00  0.00    -0.317 NA 
HETATM   19  C   UNL     1     -12.282  15.828  70.524  1.00  0.00    -0.363 A  
HETATM   20  C   UNL     1     -11.216  15.126  68.627  1.00  0.00    -0.286 A  
BRANCH  12  21
HETATM   21  O   UNL     1     -12.395   9.972  70.380  1.00  0.00    -0.229 OA 
BRANCH  21  22
HETATM   22  C   UNL     1     -11.583   8.872  70.772  1.00  0.00    -0.259 C  
HETATM   23  C   UNL     1     -10.582   7.832  72.696  1.00  0.00    -0.317 C  
HETATM   24  C   UNL     1     -12.508   7.860  71.442  1.00  0.00    -0.309 C  
HETATM   25  O   UNL     1     -11.682   7.030  72.253  1.00  0.00    -0.275 OA 
HETATM   26  C   UNL     1     -10.567   9.114  71.872  1.00  0.00    -0.303 C  
ENDBRANCH  21  22
ENDBRANCH  12  21
BRANCH  20  27
HETATM   27  N   UNL     1     -10.592  15.415  67.380  1.00  0.00    -0.283 NA 
HETATM   28  H   UNL     1     -10.644  14.678  66.677  1.00  0.00     0.000 HD 
BRANCH  27  29
HETATM   29  C   UNL     1      -9.908  16.593  66.989  1.00  0.00    -0.260 A  
HETATM   30  C   UNL     1      -8.541  16.612  66.670  1.00  0.00    -0.293 A  
HETATM   31  C   UNL     1      -7.922  17.789  66.240  1.00  0.00    -0.247 A  
HETATM   32 CL   UNL     1      -6.228  17.778  65.906  1.00  0.00    -0.256 Cl 
HETATM   33  C   UNL     1      -8.664  18.954  66.094  1.00  0.00    -0.165 A  
HETATM   34  C   UNL     1     -10.026  18.950  66.352  1.00  0.00    -0.435 A  
HETATM   35  F   UNL     1      -8.085  20.089  65.682  1.00  0.00    -0.347 F  
HETATM   36  C   UNL     1     -10.646  17.774  66.788  1.00  0.00    -0.235 A  
ENDBRANCH  27  29
ENDBRANCH  20  27
ENDBRANCH   8  11
ENDBRANCH   6   7
ENDBRANCH   4   5
ENDBRANCH   2   4
TORSDOF 8
ENDMDL
MODEL       72
REMARK 921   NORMALIZED FREE ENERGY PREDICTED BY IDOCK:   -5.52 KCAL/MOL
REMARK 922        TOTAL FREE ENERGY PREDICTED BY IDOCK:   -9.65 KCAL/MOL
REMARK 923 INTER-LIGAND FREE ENERGY PREDICTED BY IDOCK:   -8.73 KCAL/MOL
REMARK 924 INTRA-LIGAND FREE ENERGY PREDICTED BY IDOCK:   -0.91 KCAL/MOL
REMARK 927      BINDING AFFINITY PREDICTED BY RF-SCORE:    0.00 PKD
ROOT
HETATM    1  C   UNL     1     -13.208  13.931  71.571  1.00  0.00    -0.352 C  
HETATM    2  N   UNL     1     -13.272  15.398  71.583  1.00  0.00    -0.444 NA 
HETATM    3  C   UNL     1     -13.697  15.839  72.920  1.00  0.00    -0.551 C  
ENDROOT
BRANCH   2   4
HETATM    4  C   UNL     1     -11.956  15.986  71.276  1.00  0.00    -0.424 C  
BRANCH   4   5
HETATM    5  C   UNL     1     -11.051  15.182  70.386  1.00  0.00    -0.289 C  
HETATM    6  C   UNL     1      -9.930  15.590  69.766  1.00  0.00    -0.281 C  
BRANCH   6   7
HETATM    7  C   UNL     1      -9.186  14.626  68.910  1.00  0.00    -0.151 C  
HETATM    8  N   UNL     1      -9.845  13.420  68.735  1.00  0.00    -0.418 N  
HETATM    9  O   UNL     1      -8.133  14.950  68.368  1.00  0.00    -0.126 OA 
HETATM   10  H   UNL     1     -10.698  13.241  69.265  1.00  0.00     0.000 HD 
BRANCH   8  11
HETATM   11  C   UNL     1      -9.371  12.427  67.845  1.00  0.00    -0.195 A  
HETATM   12  C   UNL     1      -9.494  12.544  66.460  1.00  0.00    -0.240 A  
HETATM   13  N   UNL     1      -7.197   8.115  67.102  1.00  0.00    -0.082 NA 
HETATM   14  C   UNL     1      -8.940  11.546  65.641  1.00  0.00    -0.081 A  
HETATM   15  C   UNL     1      -8.801  11.250  68.363  1.00  0.00    -0.159 A  
HETATM   16  C   UNL     1      -8.310  10.412  66.145  1.00  0.00    -0.149 A  
HETATM   17  C   UNL     1      -8.286  10.222  67.529  1.00  0.00    -0.114 A  
HETATM   18  N   UNL     1      -7.784   9.535  65.285  1.00  0.00    -0.107 NA 
HETATM   19  C   UNL     1      -7.225   8.439  65.809  1.00  0.00    -0.072 A  
HETATM   20  C   UNL     1      -7.738   8.992  67.967  1.00  0.00    -0.097 A  
BRANCH  12  21
HETATM   21  O   UNL     1     -10.244  13.459  65.781  1.00  0.00    -0.285 OA 
BRANCH  21  22
HETATM   22  C   UNL     1     -10.783  13.181  64.494  1.00  0.00    -0.398 C  
HETATM   23  C   UNL     1     -12.699  12.230  63.394  1.00  0.00    -0.336 C  
HETATM   24  C   UNL     1     -11.889  14.203  64.251  1.00  0.00    -0.397 C  
HETATM   25  O   UNL     1     -12.737  13.653  63.246  1.00  0.00    -0.765 OA 
HETATM   26  C   UNL     1     -11.543  11.879  64.324  1.00  0.00    -0.405 C  
ENDBRANCH  21  22
ENDBRANCH  12  21
BRANCH  20  27
HETATM   27  N   UNL     1      -7.763   8.668  69.353  1.00  0.00    -0.089 NA 
HETATM   28  H   UNL     1      -6.959   8.983  69.896  1.00  0.00     0.000 HD 
BRANCH  27  29
HETATM   29  C   UNL     1      -8.759   7.967  70.077  1.00  0.00    -0.140 A  
HETATM   30  C   UNL     1      -8.920   6.574  70.003  1.00  0.00    -0.144 A  
HETATM   31  C   UNL     1      -9.884   5.922  70.776  1.00  0.00    -0.183 A  
HETATM   32 CL   UNL     1     -10.079   4.214  70.616  1.00  0.00    -0.176 Cl 
HETATM   33  C   UNL     1     -10.681   6.646  71.654  1.00  0.00    -0.229 A  
HETATM   34  C   UNL     1     -10.508   8.015  71.785  1.00  0.00    -0.287 A  
HETATM   35  F   UNL     1     -11.609   6.035  72.402  1.00  0.00    -0.306 F  
HETATM   36  C   UNL     1      -9.547   8.671  71.008  1.00  0.00    -0.264 A  
ENDBRANCH  27  29
ENDBRANCH  20  27
ENDBRANCH   8  11
ENDBRANCH   6   7
ENDBRANCH   4   5
ENDBRANCH   2   4
TORSDOF 8
ENDMDL
MODEL       73
REMARK 921   NORMALIZED FREE ENERGY PREDICTED BY IDOCK:   -5.52 KCAL/MOL
REMARK 922        TOTAL FREE ENERGY PREDICTED BY IDOCK:   -9.64 KCAL/MOL
REMARK 923 INTER-LIGAND FREE ENERGY PREDICTED BY IDOCK:   -9.13 KCAL/MOL
REMARK 924 INTRA-LIGAND FREE ENERGY PREDICTED BY IDOCK:   -0.51 KCAL/MOL
REMARK 927      BINDING AFFINITY PREDICTED BY RF-SCORE:    0.00 PKD
ROOT
HETATM    1  C   UNL     1     -14.205   8.130  71.559  1.00  0.00    -0.409 C  
HETATM    2  N   UNL     1     -13.260   8.987  72.286  1.00  0.00    -0.432 NA 
HETATM    3  C   UNL     1     -12.018   8.232  72.512  1.00  0.00    -0.356 C  
ENDROOT
BRANCH   2   4
HETATM    4  C   UNL     1     -12.953  10.205  71.516  1.00  0.00    -0.444 C  
BRANCH   4   5
HETATM    5  C   UNL     1     -11.881  10.086  70.469  1.00  0.00    -0.387 C  
HETATM    6  C   UNL     1     -11.751  10.801  69.338  1.00  0.00    -0.378 C  
BRANCH   6   7
HETATM    7  C   UNL     1     -10.613  10.509  68.425  1.00  0.00    -0.199 C  
HETATM    8  N   UNL     1     -10.779   9.346  67.690  1.00  0.00    -0.402 N  
HETATM    9  O   UNL     1      -9.680  11.298  68.312  1.00  0.00    -0.183 OA 
HETATM   10  H   UNL     1     -11.577   8.743  67.891  1.00  0.00     0.000 HD 
BRANCH   8  11
HETATM   11  C   UNL     1      -9.877   8.968  66.667  1.00  0.00    -0.248 A  
HETATM   12  C   UNL     1      -9.141   7.784  66.718  1.00  0.00    -0.154 A  
HETATM   13  N   UNL     1      -7.714   9.911  62.388  1.00  0.00    -0.116 NA 
HETATM   14  C   UNL     1      -8.315   7.449  65.632  1.00  0.00    -0.143 A  
HETATM   15  C   UNL     1      -9.666   9.834  65.578  1.00  0.00    -0.382 A  
HETATM   16  C   UNL     1      -8.155   8.267  64.518  1.00  0.00    -0.146 A  
HETATM   17  C   UNL     1      -8.792   9.510  64.506  1.00  0.00    -0.249 A  
HETATM   18  N   UNL     1      -7.374   7.845  63.519  1.00  0.00    -0.097 NA 
HETATM   19  C   UNL     1      -7.213   8.678  62.486  1.00  0.00    -0.097 A  
HETATM   20  C   UNL     1      -8.490  10.340  63.399  1.00  0.00    -0.185 A  
BRANCH  12  21
HETATM   21  O   UNL     1      -8.998   6.957  67.794  1.00  0.00    -0.119 OA 
BRANCH  21  22
HETATM   22  C   UNL     1      -9.780   5.777  67.941  1.00  0.00    -0.120 C  
HETATM   23  C   UNL     1      -9.603   3.391  68.187  1.00  0.00    -0.094 C  
HETATM   24  C   UNL     1      -9.649   5.344  69.399  1.00  0.00    -0.149 C  
HETATM   25  O   UNL     1      -9.988   3.960  69.443  1.00  0.00    -0.084 OA 
HETATM   26  C   UNL     1      -9.302   4.531  67.221  1.00  0.00    -0.165 C  
ENDBRANCH  21  22
ENDBRANCH  12  21
BRANCH  20  27
HETATM   27  N   UNL     1      -9.014  11.664  63.353  1.00  0.00    -0.481 NA 
HETATM   28  H   UNL     1      -8.492  12.327  62.780  1.00  0.00     0.000 HD 
BRANCH  27  29
HETATM   29  C   UNL     1     -10.165  12.179  63.999  1.00  0.00    -0.370 A  
HETATM   30  C   UNL     1     -10.105  12.937  65.179  1.00  0.00    -0.241 A  
HETATM   31  C   UNL     1     -11.265  13.467  65.750  1.00  0.00    -0.290 A  
HETATM   32 CL   UNL     1     -11.149  14.351  67.228  1.00  0.00    -0.304 Cl 
HETATM   33  C   UNL     1     -12.496  13.272  65.136  1.00  0.00    -0.470 A  
HETATM   34  C   UNL     1     -12.578  12.572  63.943  1.00  0.00    -0.485 A  
HETATM   35  F   UNL     1     -13.616  13.775  65.672  1.00  0.00    -0.257 F  
HETATM   36  C   UNL     1     -11.419  12.036  63.372  1.00  0.00    -0.489 A  
ENDBRANCH  27  29
ENDBRANCH  20  27
ENDBRANCH   8  11
ENDBRANCH   6   7
ENDBRANCH   4   5
ENDBRANCH   2   4
TORSDOF 8
ENDMDL
MODEL       74
REMARK 921   NORMALIZED FREE ENERGY PREDICTED BY IDOCK:   -5.52 KCAL/MOL
REMARK 922        TOTAL FREE ENERGY PREDICTED BY IDOCK:   -9.64 KCAL/MOL
REMARK 923 INTER-LIGAND FREE ENERGY PREDICTED BY IDOCK:   -8.22 KCAL/MOL
REMARK 924 INTRA-LIGAND FREE ENERGY PREDICTED BY IDOCK:   -1.41 KCAL/MOL
REMARK 927      BINDING AFFINITY PREDICTED BY RF-SCORE:    0.00 PKD
ROOT
HETATM    1  C   UNL     1      -8.334   5.812  64.977  1.00  0.00    -0.138 C  
HETATM    2  N   UNL     1      -9.533   5.471  65.753  1.00  0.00    -0.105 NA 
HETATM    3  C   UNL     1      -9.415   4.079  66.214  1.00  0.00    -0.190 C  
ENDROOT
BRANCH   2   4
HETATM    4  C   UNL     1      -9.673   6.357  66.922  1.00  0.00    -0.153 C  
BRANCH   4   5
HETATM    5  C   UNL     1      -9.641   7.835  66.655  1.00  0.00    -0.286 C  
HETATM    6  C   UNL     1     -10.307   8.805  67.305  1.00  0.00    -0.360 C  
BRANCH   6   7
HETATM    7  C   UNL     1     -10.141  10.217  66.864  1.00  0.00    -0.223 C  
HETATM    8  N   UNL     1      -9.756  11.073  67.883  1.00  0.00    -0.169 N  
HETATM    9  O   UNL     1     -10.265  10.523  65.682  1.00  0.00    -0.262 OA 
HETATM   10  H   UNL     1      -9.719  10.719  68.839  1.00  0.00     0.000 HD 
BRANCH   8  11
HETATM   11  C   UNL     1      -9.410  12.423  67.639  1.00  0.00    -0.188 A  
HETATM   12  C   UNL     1      -8.161  12.799  67.144  1.00  0.00    -0.129 A  
HETATM   13  N   UNL     1     -10.604  17.161  67.699  1.00  0.00    -0.356 NA 
HETATM   14  C   UNL     1      -7.918  14.154  66.867  1.00  0.00     0.154 A  
HETATM   15  C   UNL     1     -10.332  13.439  67.953  1.00  0.00    -0.238 A  
HETATM   16  C   UNL     1      -8.851  15.159  67.108  1.00  0.00    -0.216 A  
HETATM   17  C   UNL     1     -10.061  14.813  67.715  1.00  0.00    -0.224 A  
HETATM   18  N   UNL     1      -8.540  16.416  66.779  1.00  0.00    -0.210 NA 
HETATM   19  C   UNL     1      -9.447  17.356  67.065  1.00  0.00    -0.266 A  
HETATM   20  C   UNL     1     -10.912  15.897  68.041  1.00  0.00    -0.336 A  
BRANCH  12  21
HETATM   21  O   UNL     1      -7.054  12.008  67.036  1.00  0.00    -0.139 OA 
BRANCH  21  22
HETATM   22  C   UNL     1      -6.128  11.864  68.106  1.00  0.00    -0.051 C  
HETATM   23  C   UNL     1      -6.000  11.575  70.490  1.00  0.00    -0.093 C  
HETATM   24  C   UNL     1      -6.165  10.397  68.523  1.00  0.00    -0.047 C  
HETATM   25  O   UNL     1      -5.656  10.340  69.853  1.00  0.00    -0.040 OA 
HETATM   26  C   UNL     1      -6.465  12.550  69.416  1.00  0.00    -0.102 C  
ENDBRANCH  21  22
ENDBRANCH  12  21
BRANCH  20  27
HETATM   27  N   UNL     1     -12.121  15.649  68.752  1.00  0.00    -0.571 NA 
HETATM   28  H   UNL     1     -12.974  15.655  68.192  1.00  0.00     0.000 HD 
BRANCH  27  29
HETATM   29  C   UNL     1     -12.294  15.396  70.135  1.00  0.00    -0.361 A  
HETATM   30  C   UNL     1     -12.937  14.249  70.628  1.00  0.00    -0.318 A  
HETATM   31  C   UNL     1     -13.038  14.019  72.002  1.00  0.00    -0.401 A  
HETATM   32 CL   UNL     1     -13.880  12.620  72.563  1.00  0.00    -0.355 Cl 
HETATM   33  C   UNL     1     -12.474  14.914  72.903  1.00  0.00    -0.369 A  
HETATM   34  C   UNL     1     -11.789  16.028  72.442  1.00  0.00    -0.639 A  
HETATM   35  F   UNL     1     -12.562  14.706  74.223  1.00  0.00    -0.526 F  
HETATM   36  C   UNL     1     -11.691  16.263  71.067  1.00  0.00    -0.317 A  
ENDBRANCH  27  29
ENDBRANCH  20  27
ENDBRANCH   8  11
ENDBRANCH   6   7
ENDBRANCH   4   5
ENDBRANCH   2   4
TORSDOF 8
ENDMDL
MODEL       75
REMARK 921   NORMALIZED FREE ENERGY PREDICTED BY IDOCK:   -5.50 KCAL/MOL
REMARK 922        TOTAL FREE ENERGY PREDICTED BY IDOCK:   -9.61 KCAL/MOL
REMARK 923 INTER-LIGAND FREE ENERGY PREDICTED BY IDOCK:   -8.82 KCAL/MOL
REMARK 924 INTRA-LIGAND FREE ENERGY PREDICTED BY IDOCK:   -0.80 KCAL/MOL
REMARK 927      BINDING AFFINITY PREDICTED BY RF-SCORE:    0.00 PKD
ROOT
HETATM    1  C   UNL     1     -12.861  13.888  65.662  1.00  0.00    -0.424 C  
HETATM    2  N   UNL     1     -12.357  14.090  64.297  1.00  0.00    -0.653 NA 
HETATM    3  C   UNL     1     -11.572  15.333  64.264  1.00  0.00    -0.197 C  
ENDROOT
BRANCH   2   4
HETATM    4  C   UNL     1     -11.501  12.966  63.880  1.00  0.00    -0.446 C  
BRANCH   4   5
HETATM    5  C   UNL     1     -11.072  12.010  64.958  1.00  0.00    -0.368 C  
HETATM    6  C   UNL     1     -10.430  10.838  64.813  1.00  0.00    -0.335 C  
BRANCH   6   7
HETATM    7  C   UNL     1     -10.110  10.034  66.023  1.00  0.00    -0.248 C  
HETATM    8  N   UNL     1      -9.976   8.679  65.768  1.00  0.00    -0.395 N  
HETATM    9  O   UNL     1      -9.912  10.580  67.105  1.00  0.00    -0.180 OA 
HETATM   10  H   UNL     1     -10.202   8.326  64.837  1.00  0.00     0.000 HD 
BRANCH   8  11
HETATM   11  C   UNL     1      -9.537   7.767  66.757  1.00  0.00    -0.212 A  
HETATM   12  C   UNL     1      -8.390   6.988  66.600  1.00  0.00    -0.118 A  
HETATM   13  N   UNL     1     -10.152   5.655  71.120  1.00  0.00    -0.196 NA 
HETATM   14  C   UNL     1      -7.984   6.155  67.656  1.00  0.00    -0.106 A  
HETATM   15  C   UNL     1     -10.304   7.591  67.923  1.00  0.00    -0.266 A  
HETATM   16  C   UNL     1      -8.699   6.029  68.843  1.00  0.00    -0.122 A  
HETATM   17  C   UNL     1      -9.913   6.710  68.967  1.00  0.00    -0.162 A  
HETATM   18  N   UNL     1      -8.214   5.236  69.803  1.00  0.00    -0.096 NA 
HETATM   19  C   UNL     1      -8.952   5.110  70.911  1.00  0.00    -0.135 A  
HETATM   20  C   UNL     1     -10.646   6.442  70.148  1.00  0.00    -0.240 A  
BRANCH  12  21
HETATM   21  O   UNL     1      -7.673   6.812  65.453  1.00  0.00    -0.088 OA 
BRANCH  21  22
HETATM   22  C   UNL     1      -6.681   7.745  65.038  1.00  0.00    -0.051 C  
HETATM   23  C   UNL     1      -6.403   9.961  64.147  1.00  0.00    -0.126 C  
HETATM   24  C   UNL     1      -6.598   8.810  66.127  1.00  0.00    -0.065 C  
HETATM   25  O   UNL     1      -6.013   9.962  65.525  1.00  0.00    -0.064 OA 
HETATM   26  C   UNL     1      -6.990   8.594  63.820  1.00  0.00    -0.087 C  
ENDBRANCH  21  22
ENDBRANCH  12  21
BRANCH  20  27
HETATM   27  N   UNL     1     -11.940   7.014  70.314  1.00  0.00    -0.597 NA 
HETATM   28  H   UNL     1     -12.723   6.432  70.016  1.00  0.00     0.000 HD 
BRANCH  27  29
HETATM   29  C   UNL     1     -12.281   8.285  70.839  1.00  0.00    -0.091 A  
HETATM   30  C   UNL     1     -11.873   9.491  70.247  1.00  0.00    -0.109 A  
HETATM   31  C   UNL     1     -12.278  10.721  70.774  1.00  0.00    -0.381 A  
HETATM   32 CL   UNL     1     -11.712  12.179  70.043  1.00  0.00    -0.366 Cl 
HETATM   33  C   UNL     1     -13.119  10.763  71.879  1.00  0.00    -0.451 A  
HETATM   34  C   UNL     1     -13.579   9.587  72.451  1.00  0.00    -0.459 A  
HETATM   35  F   UNL     1     -13.517  11.934  72.394  1.00  0.00    -0.603 F  
HETATM   36  C   UNL     1     -13.170   8.355  71.929  1.00  0.00    -0.381 A  
ENDBRANCH  27  29
ENDBRANCH  20  27
ENDBRANCH   8  11
ENDBRANCH   6   7
ENDBRANCH   4   5
ENDBRANCH   2   4
TORSDOF 8
ENDMDL
MODEL       76
REMARK 921   NORMALIZED FREE ENERGY PREDICTED BY IDOCK:   -5.47 KCAL/MOL
REMARK 922        TOTAL FREE ENERGY PREDICTED BY IDOCK:   -9.56 KCAL/MOL
REMARK 923 INTER-LIGAND FREE ENERGY PREDICTED BY IDOCK:   -8.23 KCAL/MOL
REMARK 924 INTRA-LIGAND FREE ENERGY PREDICTED BY IDOCK:   -1.33 KCAL/MOL
REMARK 927      BINDING AFFINITY PREDICTED BY RF-SCORE:    0.00 PKD
ROOT
HETATM    1  C   UNL     1     -12.775  11.916  63.410  1.00  0.00    -0.366 C  
HETATM    2  N   UNL     1     -11.931  13.101  63.610  1.00  0.00    -0.511 NA 
HETATM    3  C   UNL     1     -12.524  13.927  64.673  1.00  0.00    -0.325 C  
ENDROOT
BRANCH   2   4
HETATM    4  C   UNL     1     -10.565  12.715  64.004  1.00  0.00    -0.427 C  
BRANCH   4   5
HETATM    5  C   UNL     1     -10.392  12.184  65.399  1.00  0.00    -0.301 C  
HETATM    6  C   UNL     1      -9.878  10.998  65.772  1.00  0.00    -0.282 C  
BRANCH   6   7
HETATM    7  C   UNL     1      -9.811  10.663  67.221  1.00  0.00    -0.176 C  
HETATM    8  N   UNL     1     -11.036  10.310  67.763  1.00  0.00    -0.384 N  
HETATM    9  O   UNL     1      -8.735  10.638  67.810  1.00  0.00    -0.128 OA 
HETATM   10  H   UNL     1     -11.876  10.403  67.191  1.00  0.00     0.000 HD 
BRANCH   8  11
HETATM   11  C   UNL     1     -11.160   9.823  69.086  1.00  0.00    -0.123 A  
HETATM   12  C   UNL     1     -11.973  10.440  70.038  1.00  0.00    -0.247 A  
HETATM   13  N   UNL     1      -9.950   6.554  72.510  1.00  0.00    -0.170 NA 
HETATM   14  C   UNL     1     -12.093   9.857  71.310  1.00  0.00    -0.485 A  
HETATM   15  C   UNL     1     -10.401   8.707  69.485  1.00  0.00    -0.214 A  
HETATM   16  C   UNL     1     -11.400   8.712  71.691  1.00  0.00    -0.307 A  
HETATM   17  C   UNL     1     -10.491   8.152  70.790  1.00  0.00    -0.223 A  
HETATM   18  N   UNL     1     -11.606   8.213  72.913  1.00  0.00    -0.308 NA 
HETATM   19  C   UNL     1     -10.890   7.137  73.254  1.00  0.00    -0.338 A  
HETATM   20  C   UNL     1      -9.733   7.063  71.284  1.00  0.00    -0.171 A  
BRANCH  12  21
HETATM   21  O   UNL     1     -12.566  11.664  69.934  1.00  0.00    -0.093 OA 
BRANCH  21  22
HETATM   22  C   UNL     1     -11.808  12.868  69.953  1.00  0.00    -0.303 C  
HETATM   23  C   UNL     1     -11.911  15.195  69.352  1.00  0.00    -0.307 C  
HETATM   24  C   UNL     1     -12.393  13.737  71.063  1.00  0.00    -0.372 C  
HETATM   25  O   UNL     1     -12.005  15.078  70.775  1.00  0.00    -0.275 OA 
HETATM   26  C   UNL     1     -11.940  13.792  68.757  1.00  0.00    -0.400 C  
ENDBRANCH  21  22
ENDBRANCH  12  21
BRANCH  20  27
HETATM   27  N   UNL     1      -8.712   6.494  70.471  1.00  0.00    -0.143 NA 
HETATM   28  H   UNL     1      -7.840   7.022  70.419  1.00  0.00     0.000 HD 
BRANCH  27  29
HETATM   29  C   UNL     1      -8.749   5.291  69.723  1.00  0.00    -0.105 A  
HETATM   30  C   UNL     1      -8.022   4.145  70.083  1.00  0.00    -0.054 A  
HETATM   31  C   UNL     1      -8.131   2.965  69.341  1.00  0.00    -0.047 A  
HETATM   32 CL   UNL     1      -7.181   1.596  69.791  1.00  0.00    -0.036 Cl 
HETATM   33  C   UNL     1      -8.988   2.904  68.250  1.00  0.00    -0.146 A  
HETATM   34  C   UNL     1      -9.756   4.005  67.904  1.00  0.00    -0.148 A  
HETATM   35  F   UNL     1      -9.104   1.780  67.530  1.00  0.00    -0.126 F  
HETATM   36  C   UNL     1      -9.644   5.188  68.641  1.00  0.00    -0.194 A  
ENDBRANCH  27  29
ENDBRANCH  20  27
ENDBRANCH   8  11
ENDBRANCH   6   7
ENDBRANCH   4   5
ENDBRANCH   2   4
TORSDOF 8
ENDMDL
MODEL       77
REMARK 921   NORMALIZED FREE ENERGY PREDICTED BY IDOCK:   -5.47 KCAL/MOL
REMARK 922        TOTAL FREE ENERGY PREDICTED BY IDOCK:   -9.56 KCAL/MOL
REMARK 923 INTER-LIGAND FREE ENERGY PREDICTED BY IDOCK:   -8.09 KCAL/MOL
REMARK 924 INTRA-LIGAND FREE ENERGY PREDICTED BY IDOCK:   -1.47 KCAL/MOL
REMARK 927      BINDING AFFINITY PREDICTED BY RF-SCORE:    0.00 PKD
ROOT
HETATM    1  C   UNL     1      -8.238   5.159  69.920  1.00  0.00    -0.086 C  
HETATM    2  N   UNL     1      -7.392   5.628  71.025  1.00  0.00    -0.082 NA 
HETATM    3  C   UNL     1      -6.053   5.930  70.498  1.00  0.00    -0.030 C  
ENDROOT
BRANCH   2   4
HETATM    4  C   UNL     1      -7.955   6.843  71.640  1.00  0.00    -0.101 C  
BRANCH   4   5
HETATM    5  C   UNL     1      -8.795   7.718  70.754  1.00  0.00    -0.139 C  
HETATM    6  C   UNL     1      -9.196   8.982  70.983  1.00  0.00    -0.331 C  
BRANCH   6   7
HETATM    7  C   UNL     1     -10.044   9.666  69.970  1.00  0.00    -0.252 C  
HETATM    8  N   UNL     1      -9.317  10.264  68.953  1.00  0.00    -0.168 N  
HETATM    9  O   UNL     1     -11.268   9.605  70.032  1.00  0.00    -0.241 OA 
HETATM   10  H   UNL     1      -8.299  10.288  69.021  1.00  0.00     0.000 HD 
BRANCH   8  11
HETATM   11  C   UNL     1      -9.941  10.842  67.822  1.00  0.00    -0.176 A  
HETATM   12  C   UNL     1      -9.978  10.206  66.581  1.00  0.00    -0.216 A  
HETATM   13  N   UNL     1     -12.398  14.546  65.792  1.00  0.00    -0.294 NA 
HETATM   14  C   UNL     1     -10.674  10.817  65.525  1.00  0.00    -0.145 A  
HETATM   15  C   UNL     1     -10.503  12.128  67.926  1.00  0.00    -0.224 A  
HETATM   16  C   UNL     1     -11.295  12.058  65.639  1.00  0.00    -0.329 A  
HETATM   17  C   UNL     1     -11.164  12.761  66.839  1.00  0.00    -0.339 A  
HETATM   18  N   UNL     1     -11.962  12.541  64.587  1.00  0.00    -0.382 NA 
HETATM   19  C   UNL     1     -12.508  13.754  64.725  1.00  0.00    -0.349 A  
HETATM   20  C   UNL     1     -11.715  14.065  66.846  1.00  0.00    -0.410 A  
BRANCH  12  21
HETATM   21  O   UNL     1      -9.270   9.102  66.208  1.00  0.00    -0.165 OA 
BRANCH  21  22
HETATM   22  C   UNL     1      -9.379   7.869  66.910  1.00  0.00    -0.164 C  
HETATM   23  C   UNL     1     -10.667   5.841  67.014  1.00  0.00    -0.289 C  
HETATM   24  C   UNL     1      -8.845   6.785  65.978  1.00  0.00    -0.135 C  
HETATM   25  O   UNL     1      -9.390   5.551  66.438  1.00  0.00    -0.143 OA 
HETATM   26  C   UNL     1     -10.775   7.351  67.195  1.00  0.00    -0.400 C  
ENDBRANCH  21  22
ENDBRANCH  12  21
BRANCH  20  27
HETATM   27  N   UNL     1     -11.541  14.892  67.992  1.00  0.00    -0.336 NA 
HETATM   28  H   UNL     1     -12.217  14.756  68.744  1.00  0.00     0.000 HD 
BRANCH  27  29
HETATM   29  C   UNL     1     -10.552  15.880  68.225  1.00  0.00    -0.276 A  
HETATM   30  C   UNL     1      -9.253  15.574  68.658  1.00  0.00    -0.202 A  
HETATM   31  C   UNL     1      -8.297  16.580  68.824  1.00  0.00    -0.248 A  
HETATM   32 CL   UNL     1      -6.726  16.163  69.406  1.00  0.00    -0.197 Cl 
HETATM   33  C   UNL     1      -8.616  17.900  68.532  1.00  0.00    -0.293 A  
HETATM   34  C   UNL     1      -9.876  18.223  68.053  1.00  0.00    -0.343 A  
HETATM   35  F   UNL     1      -7.711  18.875  68.686  1.00  0.00    -0.315 F  
HETATM   36  C   UNL     1     -10.836  17.219  67.892  1.00  0.00    -0.283 A  
ENDBRANCH  27  29
ENDBRANCH  20  27
ENDBRANCH   8  11
ENDBRANCH   6   7
ENDBRANCH   4   5
ENDBRANCH   2   4
TORSDOF 8
ENDMDL
MODEL       78
REMARK 921   NORMALIZED FREE ENERGY PREDICTED BY IDOCK:   -5.43 KCAL/MOL
REMARK 922        TOTAL FREE ENERGY PREDICTED BY IDOCK:   -9.51 KCAL/MOL
REMARK 923 INTER-LIGAND FREE ENERGY PREDICTED BY IDOCK:   -8.37 KCAL/MOL
REMARK 924 INTRA-LIGAND FREE ENERGY PREDICTED BY IDOCK:   -1.14 KCAL/MOL
REMARK 927      BINDING AFFINITY PREDICTED BY RF-SCORE:    0.00 PKD
ROOT
HETATM    1  C   UNL     1      -7.614  20.828  67.148  1.00  0.00    -0.289 C  
HETATM    2  N   UNL     1      -8.159  19.569  66.626  1.00  0.00    -0.289 NA 
HETATM    3  C   UNL     1      -7.283  18.465  67.049  1.00  0.00    -0.203 C  
ENDROOT
BRANCH   2   4
HETATM    4  C   UNL     1      -9.519  19.331  67.139  1.00  0.00    -0.323 C  
BRANCH   4   5
HETATM    5  C   UNL     1      -9.722  18.087  67.957  1.00  0.00    -0.309 C  
HETATM    6  C   UNL     1     -10.709  17.180  67.849  1.00  0.00    -0.355 C  
BRANCH   6   7
HETATM    7  C   UNL     1     -10.728  16.018  68.779  1.00  0.00    -0.282 C  
HETATM    8  N   UNL     1     -11.703  15.082  68.473  1.00  0.00    -0.393 N  
HETATM    9  O   UNL     1      -9.885  15.909  69.664  1.00  0.00    -0.268 OA 
HETATM   10  H   UNL     1     -12.378  15.292  67.737  1.00  0.00     0.000 HD 
BRANCH   8  11
HETATM   11  C   UNL     1     -11.793  13.842  69.150  1.00  0.00    -0.358 A  
HETATM   12  C   UNL     1     -12.666  13.635  70.218  1.00  0.00    -0.098 A  
HETATM   13  N   UNL     1     -10.320   9.216  69.694  1.00  0.00    -0.211 NA 
HETATM   14  C   UNL     1     -12.743  12.356  70.795  1.00  0.00    -0.208 A  
HETATM   15  C   UNL     1     -10.939  12.788  68.776  1.00  0.00    -0.289 A  
HETATM   16  C   UNL     1     -11.952  11.287  70.383  1.00  0.00    -0.380 A  
HETATM   17  C   UNL     1     -10.990  11.511  69.396  1.00  0.00    -0.233 A  
HETATM   18  N   UNL     1     -12.123  10.099  70.971  1.00  0.00    -0.345 NA 
HETATM   19  C   UNL     1     -11.315   9.110  70.576  1.00  0.00    -0.257 A  
HETATM   20  C   UNL     1     -10.140  10.415  69.112  1.00  0.00    -0.222 A  
BRANCH  12  21
HETATM   21  O   UNL     1     -13.367  14.588  70.897  1.00  0.00    -0.363 OA 
BRANCH  21  22
HETATM   22  C   UNL     1     -13.364  14.651  72.319  1.00  0.00    -0.392 C  
HETATM   23  C   UNL     1     -12.294  15.740  74.177  1.00  0.00    -0.638 C  
HETATM   24  C   UNL     1     -14.043  15.963  72.702  1.00  0.00    -0.307 C  
HETATM   25  O   UNL     1     -13.615  16.269  74.026  1.00  0.00    -0.337 OA 
HETATM   26  C   UNL     1     -12.020  14.803  73.006  1.00  0.00    -0.235 C  
ENDBRANCH  21  22
ENDBRANCH  12  21
BRANCH  20  27
HETATM   27  N   UNL     1      -9.066  10.581  68.193  1.00  0.00    -0.138 NA 
HETATM   28  H   UNL     1      -8.489  11.412  68.331  1.00  0.00     0.000 HD 
BRANCH  27  29
HETATM   29  C   UNL     1      -8.693   9.745  67.111  1.00  0.00    -0.132 A  
HETATM   30  C   UNL     1      -7.409   9.192  66.980  1.00  0.00    -0.090 A  
HETATM   31  C   UNL     1      -7.105   8.331  65.922  1.00  0.00    -0.071 A  
HETATM   32 CL   UNL     1      -5.500   7.713  65.774  1.00  0.00    -0.028 Cl 
HETATM   33  C   UNL     1      -8.084   7.989  64.998  1.00  0.00    -0.145 A  
HETATM   34  C   UNL     1      -9.373   8.480  65.133  1.00  0.00     0.264 A  
HETATM   35  F   UNL     1      -7.807   7.164  63.979  1.00  0.00    -0.107 F  
HETATM   36  C   UNL     1      -9.678   9.346  66.188  1.00  0.00    -0.334 A  
ENDBRANCH  27  29
ENDBRANCH  20  27
ENDBRANCH   8  11
ENDBRANCH   6   7
ENDBRANCH   4   5
ENDBRANCH   2   4
TORSDOF 8
ENDMDL
MODEL       79
REMARK 921   NORMALIZED FREE ENERGY PREDICTED BY IDOCK:   -5.43 KCAL/MOL
REMARK 922        TOTAL FREE ENERGY PREDICTED BY IDOCK:   -9.50 KCAL/MOL
REMARK 923 INTER-LIGAND FREE ENERGY PREDICTED BY IDOCK:   -8.44 KCAL/MOL
REMARK 924 INTRA-LIGAND FREE ENERGY PREDICTED BY IDOCK:   -1.06 KCAL/MOL
REMARK 927      BINDING AFFINITY PREDICTED BY RF-SCORE:    0.00 PKD
ROOT
HETATM    1  C   UNL     1     -11.983   6.196  72.361  1.00  0.00    -0.190 C  
HETATM    2  N   UNL     1     -10.853   6.669  73.171  1.00  0.00    -0.274 NA 
HETATM    3  C   UNL     1      -9.785   5.657  73.125  1.00  0.00    -0.154 C  
ENDROOT
BRANCH   2   4
HETATM    4  C   UNL     1     -10.331   7.945  72.653  1.00  0.00    -0.308 C  
BRANCH   4   5
HETATM    5  C   UNL     1     -10.585   8.237  71.201  1.00  0.00    -0.258 C  
HETATM    6  C   UNL     1      -9.960   7.711  70.132  1.00  0.00    -0.186 C  
BRANCH   6   7
HETATM    7  C   UNL     1     -10.362   8.154  68.770  1.00  0.00    -0.202 C  
HETATM    8  N   UNL     1     -10.070   9.484  68.512  1.00  0.00    -0.171 N  
HETATM    9  O   UNL     1     -10.827   7.355  67.962  1.00  0.00    -0.161 OA 
HETATM   10  H   UNL     1      -9.718  10.069  69.270  1.00  0.00     0.000 HD 
BRANCH   8  11
HETATM   11  C   UNL     1     -10.245  10.057  67.230  1.00  0.00    -0.222 A  
HETATM   12  C   UNL     1      -9.577   9.582  66.101  1.00  0.00    -0.239 A  
HETATM   13  N   UNL     1     -12.342  13.405  64.355  1.00  0.00    -0.569 NA 
HETATM   14  C   UNL     1      -9.854  10.163  64.852  1.00  0.00    -0.390 A  
HETATM   15  C   UNL     1     -11.080  11.180  67.084  1.00  0.00    -0.352 A  
HETATM   16  C   UNL     1     -10.734  11.229  64.688  1.00  0.00    -0.303 A  
HETATM   17  C   UNL     1     -11.319  11.793  65.824  1.00  0.00    -0.309 A  
HETATM   18  N   UNL     1     -10.959  11.692  63.454  1.00  0.00    -0.393 NA 
HETATM   19  C   UNL     1     -11.778  12.742  63.344  1.00  0.00    -0.488 A  
HETATM   20  C   UNL     1     -12.106  12.947  65.598  1.00  0.00    -0.458 A  
BRANCH  12  21
HETATM   21  O   UNL     1      -8.538   8.698  66.078  1.00  0.00    -0.137 OA 
BRANCH  21  22
HETATM   22  C   UNL     1      -7.193   9.116  66.281  1.00  0.00    -0.091 C  
HETATM   23  C   UNL     1      -5.721  10.068  67.927  1.00  0.00    -0.038 C  
HETATM   24  C   UNL     1      -6.534   8.059  67.162  1.00  0.00    -0.057 C  
HETATM   25  O   UNL     1      -5.403   8.682  67.766  1.00  0.00    -0.034 OA 
HETATM   26  C   UNL     1      -6.970  10.368  67.108  1.00  0.00    -0.088 C  
ENDBRANCH  21  22
ENDBRANCH  12  21
BRANCH  20  27
HETATM   27  N   UNL     1     -12.659  13.647  66.708  1.00  0.00    -0.319 NA 
HETATM   28  H   UNL     1     -13.648  13.476  66.891  1.00  0.00     0.000 HD 
BRANCH  27  29
HETATM   29  C   UNL     1     -12.016  14.550  67.590  1.00  0.00    -0.320 A  
HETATM   30  C   UNL     1     -12.232  14.548  68.977  1.00  0.00    -0.215 A  
HETATM   31  C   UNL     1     -11.535  15.425  69.812  1.00  0.00    -0.324 A  
HETATM   32 CL   UNL     1     -11.869  15.420  71.506  1.00  0.00    -0.402 Cl 
HETATM   33  C   UNL     1     -10.593  16.295  69.279  1.00  0.00    -0.293 A  
HETATM   34  C   UNL     1     -10.322  16.282  67.919  1.00  0.00    -0.285 A  
HETATM   35  F   UNL     1      -9.916  17.140  70.067  1.00  0.00     0.104 F  
HETATM   36  C   UNL     1     -11.023  15.409  67.081  1.00  0.00    -0.317 A  
ENDBRANCH  27  29
ENDBRANCH  20  27
ENDBRANCH   8  11
ENDBRANCH   6   7
ENDBRANCH   4   5
ENDBRANCH   2   4
TORSDOF 8
ENDMDL
MODEL       80
REMARK 921   NORMALIZED FREE ENERGY PREDICTED BY IDOCK:   -5.40 KCAL/MOL
REMARK 922        TOTAL FREE ENERGY PREDICTED BY IDOCK:   -9.46 KCAL/MOL
REMARK 923 INTER-LIGAND FREE ENERGY PREDICTED BY IDOCK:   -8.20 KCAL/MOL
REMARK 924 INTRA-LIGAND FREE ENERGY PREDICTED BY IDOCK:   -1.25 KCAL/MOL
REMARK 927      BINDING AFFINITY PREDICTED BY RF-SCORE:    0.00 PKD
ROOT
HETATM    1  C   UNL     1      -9.887   5.960  72.209  1.00  0.00    -0.160 C  
HETATM    2  N   UNL     1      -9.442   6.627  73.440  1.00  0.00    -0.138 NA 
HETATM    3  C   UNL     1      -8.191   5.998  73.890  1.00  0.00    -0.110 C  
ENDROOT
BRANCH   2   4
HETATM    4  C   UNL     1      -9.205   8.062  73.205  1.00  0.00    -0.279 C  
BRANCH   4   5
HETATM    5  C   UNL     1      -9.787   8.644  71.947  1.00  0.00    -0.384 C  
HETATM    6  C   UNL     1      -9.135   9.264  70.947  1.00  0.00    -0.288 C  
BRANCH   6   7
HETATM    7  C   UNL     1      -9.914   9.782  69.790  1.00  0.00    -0.236 C  
HETATM    8  N   UNL     1      -9.182  10.617  68.961  1.00  0.00    -0.223 N  
HETATM    9  O   UNL     1     -11.066   9.408  69.591  1.00  0.00    -0.222 OA 
HETATM   10  H   UNL     1      -8.241  10.894  69.243  1.00  0.00     0.000 HD 
BRANCH   8  11
HETATM   11  C   UNL     1      -9.698  11.099  67.734  1.00  0.00    -0.171 A  
HETATM   12  C   UNL     1      -9.611  10.369  66.548  1.00  0.00    -0.179 A  
HETATM   13  N   UNL     1     -11.970  14.602  65.197  1.00  0.00    -0.358 NA 
HETATM   14  C   UNL     1     -10.206  10.888  65.386  1.00  0.00    -0.339 A  
HETATM   15  C   UNL     1     -10.275  12.381  67.684  1.00  0.00    -0.210 A  
HETATM   16  C   UNL     1     -10.842  12.125  65.344  1.00  0.00    -0.294 A  
HETATM   17  C   UNL     1     -10.832  12.919  66.493  1.00  0.00    -0.290 A  
HETATM   18  N   UNL     1     -11.408  12.517  64.199  1.00  0.00    -0.351 NA 
HETATM   19  C   UNL     1     -11.972  13.729  64.189  1.00  0.00    -0.432 A  
HETATM   20  C   UNL     1     -11.389  14.212  66.346  1.00  0.00    -0.338 A  
BRANCH  12  21
HETATM   21  O   UNL     1      -8.863   9.249  66.331  1.00  0.00    -0.137 OA 
BRANCH  21  22
HETATM   22  C   UNL     1      -8.553   8.797  65.018  1.00  0.00    -0.169 C  
HETATM   23  C   UNL     1      -6.722   8.088  63.629  1.00  0.00    -0.074 C  
HETATM   24  C   UNL     1      -8.282   7.299  65.122  1.00  0.00    -0.110 C  
HETATM   25  O   UNL     1      -7.512   6.946  63.976  1.00  0.00    -0.083 OA 
HETATM   26  C   UNL     1      -7.258   9.288  64.401  1.00  0.00    -0.097 C  
ENDBRANCH  21  22
ENDBRANCH  12  21
BRANCH  20  27
HETATM   27  N   UNL     1     -11.332  15.127  67.436  1.00  0.00    -0.327 NA 
HETATM   28  H   UNL     1     -12.038  14.997  68.161  1.00  0.00     0.000 HD 
BRANCH  27  29
HETATM   29  C   UNL     1     -10.423  16.195  67.645  1.00  0.00    -0.292 A  
HETATM   30  C   UNL     1      -9.116  16.196  67.134  1.00  0.00    -0.218 A  
HETATM   31  C   UNL     1      -8.274  17.294  67.324  1.00  0.00    -0.196 A  
HETATM   32 CL   UNL     1      -6.657  17.232  66.721  1.00  0.00    -0.225 Cl 
HETATM   33  C   UNL     1      -8.734  18.418  67.999  1.00  0.00    -0.287 A  
HETATM   34  C   UNL     1     -10.038  18.464  68.468  1.00  0.00    -0.413 A  
HETATM   35  F   UNL     1      -7.939  19.479  68.188  1.00  0.00    -0.315 F  
HETATM   36  C   UNL     1     -10.881  17.363  68.284  1.00  0.00    -0.256 A  
ENDBRANCH  27  29
ENDBRANCH  20  27
ENDBRANCH   8  11
ENDBRANCH   6   7
ENDBRANCH   4   5
ENDBRANCH   2   4
TORSDOF 8
ENDMDL
MODEL       81
REMARK 921   NORMALIZED FREE ENERGY PREDICTED BY IDOCK:   -5.37 KCAL/MOL
REMARK 922        TOTAL FREE ENERGY PREDICTED BY IDOCK:   -9.42 KCAL/MOL
REMARK 923 INTER-LIGAND FREE ENERGY PREDICTED BY IDOCK:   -8.10 KCAL/MOL
REMARK 924 INTRA-LIGAND FREE ENERGY PREDICTED BY IDOCK:   -1.32 KCAL/MOL
REMARK 927      BINDING AFFINITY PREDICTED BY RF-SCORE:    0.00 PKD
ROOT
HETATM    1  C   UNL     1      -6.803   4.805  65.544  1.00  0.00    -0.061 C  
HETATM    2  N   UNL     1      -6.953   5.426  64.222  1.00  0.00    -0.047 NA 
HETATM    3  C   UNL     1      -8.380   5.437  63.867  1.00  0.00    -0.109 C  
ENDROOT
BRANCH   2   4
HETATM    4  C   UNL     1      -6.446   6.809  64.229  1.00  0.00    -0.038 C  
BRANCH   4   5
HETATM    5  C   UNL     1      -7.181   7.791  65.097  1.00  0.00    -0.065 C  
HETATM    6  C   UNL     1      -6.847   9.066  65.366  1.00  0.00    -0.073 C  
BRANCH   6   7
HETATM    7  C   UNL     1      -7.715   9.865  66.272  1.00  0.00    -0.105 C  
HETATM    8  N   UNL     1      -8.998   9.357  66.398  1.00  0.00    -0.146 N  
HETATM    9  O   UNL     1      -7.264  10.825  66.889  1.00  0.00    -0.102 OA 
HETATM   10  H   UNL     1      -9.280   8.573  65.808  1.00  0.00     0.000 HD 
BRANCH   8  11
HETATM   11  C   UNL     1      -9.931   9.890  67.319  1.00  0.00    -0.196 A  
HETATM   12  C   UNL     1     -10.787  10.942  66.993  1.00  0.00    -0.266 A  
HETATM   13  N   UNL     1     -11.939   9.881  71.773  1.00  0.00    -0.339 NA 
HETATM   14  C   UNL     1     -11.730  11.371  67.942  1.00  0.00    -0.300 A  
HETATM   15  C   UNL     1      -9.971   9.384  68.632  1.00  0.00    -0.187 A  
HETATM   16  C   UNL     1     -11.824  10.828  69.220  1.00  0.00    -0.288 A  
HETATM   17  C   UNL     1     -10.895   9.856  69.601  1.00  0.00    -0.281 A  
HETATM   18  N   UNL     1     -12.777  11.279  70.041  1.00  0.00    -0.083 NA 
HETATM   19  C   UNL     1     -12.807  10.761  71.273  1.00  0.00    -0.438 A  
HETATM   20  C   UNL     1     -10.972   9.435  70.951  1.00  0.00    -0.320 A  
BRANCH  12  21
HETATM   21  O   UNL     1     -10.720  11.737  65.886  1.00  0.00    -0.264 OA 
BRANCH  21  22
HETATM   22  C   UNL     1     -11.810  12.558  65.485  1.00  0.00    -0.439 C  
HETATM   23  C   UNL     1     -12.333  14.723  64.577  1.00  0.00    -0.366 C  
HETATM   24  C   UNL     1     -11.811  12.571  63.959  1.00  0.00    -0.431 C  
HETATM   25  O   UNL     1     -12.537  13.733  63.564  1.00  0.00    -0.814 OA 
HETATM   26  C   UNL     1     -11.715  14.040  65.792  1.00  0.00    -0.368 C  
ENDBRANCH  21  22
ENDBRANCH  12  21
BRANCH  20  27
HETATM   27  N   UNL     1     -10.002   8.523  71.456  1.00  0.00    -0.219 NA 
HETATM   28  H   UNL     1      -9.066   8.904  71.596  1.00  0.00     0.000 HD 
BRANCH  27  29
HETATM   29  C   UNL     1     -10.167   7.155  71.789  1.00  0.00    -0.195 A  
HETATM   30  C   UNL     1      -9.573   6.114  71.059  1.00  0.00    -0.194 A  
HETATM   31  C   UNL     1      -9.724   4.783  71.457  1.00  0.00    -0.172 A  
HETATM   32 CL   UNL     1      -9.016   3.532  70.502  1.00  0.00    -0.145 Cl 
HETATM   33  C   UNL     1     -10.445   4.476  72.605  1.00  0.00    -0.195 A  
HETATM   34  C   UNL     1     -10.998   5.489  73.373  1.00  0.00    -0.324 A  
HETATM   35  F   UNL     1     -10.597   3.205  72.999  1.00  0.00    -0.212 F  
HETATM   36  C   UNL     1     -10.853   6.821  72.973  1.00  0.00    -0.314 A  
ENDBRANCH  27  29
ENDBRANCH  20  27
ENDBRANCH   8  11
ENDBRANCH   6   7
ENDBRANCH   4   5
ENDBRANCH   2   4
TORSDOF 8
ENDMDL
MODEL       82
REMARK 921   NORMALIZED FREE ENERGY PREDICTED BY IDOCK:   -5.34 KCAL/MOL
REMARK 922        TOTAL FREE ENERGY PREDICTED BY IDOCK:   -9.38 KCAL/MOL
REMARK 923 INTER-LIGAND FREE ENERGY PREDICTED BY IDOCK:   -8.76 KCAL/MOL
REMARK 924 INTRA-LIGAND FREE ENERGY PREDICTED BY IDOCK:   -0.63 KCAL/MOL
REMARK 927      BINDING AFFINITY PREDICTED BY RF-SCORE:    0.00 PKD
ROOT
HETATM    1  C   UNL     1      -7.281  14.644  67.544  1.00  0.00    -0.192 C  
HETATM    2  N   UNL     1      -5.851  14.403  67.774  1.00  0.00    -0.294 NA 
HETATM    3  C   UNL     1      -5.323  15.480  68.625  1.00  0.00    -0.094 C  
ENDROOT
BRANCH   2   4
HETATM    4  C   UNL     1      -5.636  13.109  68.444  1.00  0.00    -0.082 C  
BRANCH   4   5
HETATM    5  C   UNL     1      -6.829  12.202  68.555  1.00  0.00    -0.086 C  
HETATM    6  C   UNL     1      -6.985  11.139  69.364  1.00  0.00    -0.124 C  
BRANCH   6   7
HETATM    7  C   UNL     1      -8.253  10.363  69.303  1.00  0.00    -0.158 C  
HETATM    8  N   UNL     1      -8.538   9.677  70.472  1.00  0.00    -0.265 N  
HETATM    9  O   UNL     1      -8.981  10.428  68.317  1.00  0.00    -0.129 OA 
HETATM   10  H   UNL     1      -7.843   9.661  71.218  1.00  0.00     0.000 HD 
BRANCH   8  11
HETATM   11  C   UNL     1      -9.764   8.996  70.664  1.00  0.00    -0.234 A  
HETATM   12  C   UNL     1      -9.961   7.678  70.249  1.00  0.00    -0.189 A  
HETATM   13  N   UNL     1     -14.368   8.976  72.299  1.00  0.00    -0.443 NA 
HETATM   14  C   UNL     1     -11.186   7.052  70.535  1.00  0.00    -0.335 A  
HETATM   15  C   UNL     1     -10.848   9.678  71.246  1.00  0.00    -0.366 A  
HETATM   16  C   UNL     1     -12.239   7.697  71.175  1.00  0.00    -0.285 A  
HETATM   17  C   UNL     1     -12.100   9.051  71.489  1.00  0.00    -0.410 A  
HETATM   18  N   UNL     1     -13.354   7.006  71.434  1.00  0.00    -0.322 NA 
HETATM   19  C   UNL     1     -14.357   7.674  72.012  1.00  0.00    -0.328 A  
HETATM   20  C   UNL     1     -13.252   9.675  72.027  1.00  0.00    -0.453 A  
BRANCH  12  21
HETATM   21  O   UNL     1      -9.145   6.947  69.437  1.00  0.00    -0.141 OA 
BRANCH  21  22
HETATM   22  C   UNL     1      -9.492   6.659  68.087  1.00  0.00    -0.115 C  
HETATM   23  C   UNL     1      -8.554   5.967  65.984  1.00  0.00    -0.147 C  
HETATM   24  C   UNL     1      -9.442   5.141  67.937  1.00  0.00    -0.129 C  
HETATM   25  O   UNL     1      -9.293   4.877  66.544  1.00  0.00    -0.128 OA 
HETATM   26  C   UNL     1      -8.518   7.094  67.010  1.00  0.00    -0.122 C  
ENDBRANCH  21  22
ENDBRANCH  12  21
BRANCH  20  27
HETATM   27  N   UNL     1     -13.234  11.076  72.284  1.00  0.00    -0.540 NA 
HETATM   28  H   UNL     1     -13.537  11.359  73.216  1.00  0.00     0.000 HD 
BRANCH  27  29
HETATM   29  C   UNL     1     -12.851  12.127  71.414  1.00  0.00    -0.276 A  
HETATM   30  C   UNL     1     -12.397  11.908  70.104  1.00  0.00    -0.247 A  
HETATM   31  C   UNL     1     -12.079  12.981  69.267  1.00  0.00    -0.200 A  
HETATM   32 CL   UNL     1     -11.478  12.663  67.680  1.00  0.00    -0.364 Cl 
HETATM   33  C   UNL     1     -12.237  14.286  69.716  1.00  0.00    -0.339 A  
HETATM   34  C   UNL     1     -12.732  14.531  70.987  1.00  0.00    -0.413 A  
HETATM   35  F   UNL     1     -11.937  15.324  68.925  1.00  0.00    -0.329 F  
HETATM   36  C   UNL     1     -13.046  13.459  71.828  1.00  0.00    -0.479 A  
ENDBRANCH  27  29
ENDBRANCH  20  27
ENDBRANCH   8  11
ENDBRANCH   6   7
ENDBRANCH   4   5
ENDBRANCH   2   4
TORSDOF 8
ENDMDL
MODEL       83
REMARK 921   NORMALIZED FREE ENERGY PREDICTED BY IDOCK:   -5.33 KCAL/MOL
REMARK 922        TOTAL FREE ENERGY PREDICTED BY IDOCK:   -9.37 KCAL/MOL
REMARK 923 INTER-LIGAND FREE ENERGY PREDICTED BY IDOCK:   -8.00 KCAL/MOL
REMARK 924 INTRA-LIGAND FREE ENERGY PREDICTED BY IDOCK:   -1.37 KCAL/MOL
REMARK 927      BINDING AFFINITY PREDICTED BY RF-SCORE:    0.00 PKD
ROOT
HETATM    1  C   UNL     1     -12.776  13.856  65.289  1.00  0.00    -0.449 C  
HETATM    2  N   UNL     1     -12.298  12.501  64.986  1.00  0.00    -0.530 NA 
HETATM    3  C   UNL     1     -12.410  12.275  63.537  1.00  0.00    -0.565 C  
ENDROOT
BRANCH   2   4
HETATM    4  C   UNL     1     -10.893  12.334  65.394  1.00  0.00    -0.286 C  
BRANCH   4   5
HETATM    5  C   UNL     1     -10.556  11.080  66.151  1.00  0.00    -0.288 C  
HETATM    6  C   UNL     1      -9.875  10.007  65.708  1.00  0.00    -0.345 C  
BRANCH   6   7
HETATM    7  C   UNL     1      -9.664   8.856  66.627  1.00  0.00    -0.237 C  
HETATM    8  N   UNL     1      -8.341   8.684  67.002  1.00  0.00    -0.106 N  
HETATM    9  O   UNL     1     -10.616   8.206  67.048  1.00  0.00    -0.329 OA 
HETATM   10  H   UNL     1      -7.623   9.259  66.562  1.00  0.00     0.000 HD 
BRANCH   8  11
HETATM   11  C   UNL     1      -7.954   7.736  67.978  1.00  0.00    -0.122 A  
HETATM   12  C   UNL     1      -7.433   6.485  67.642  1.00  0.00    -0.097 A  
HETATM   13  N   UNL     1      -7.480   6.464  72.672  1.00  0.00    -0.091 NA 
HETATM   14  C   UNL     1      -7.011   5.625  68.670  1.00  0.00    -0.064 A  
HETATM   15  C   UNL     1      -8.145   8.030  69.341  1.00  0.00    -0.118 A  
HETATM   16  C   UNL     1      -7.131   5.938  70.020  1.00  0.00    -0.071 A  
HETATM   17  C   UNL     1      -7.760   7.134  70.375  1.00  0.00    -0.095 A  
HETATM   18  N   UNL     1      -6.669   5.069  70.924  1.00  0.00    -0.034 NA 
HETATM   19  C   UNL     1      -6.841   5.388  72.211  1.00  0.00    -0.078 A  
HETATM   20  C   UNL     1      -7.956   7.333  71.763  1.00  0.00    -0.095 A  
BRANCH  12  21
HETATM   21  O   UNL     1      -7.423   5.911  66.404  1.00  0.00    -0.080 OA 
BRANCH  21  22
HETATM   22  C   UNL     1      -8.210   4.764  66.104  1.00  0.00    -0.107 C  
HETATM   23  C   UNL     1     -10.354   4.095  65.244  1.00  0.00    -0.168 C  
HETATM   24  C   UNL     1      -8.215   4.622  64.585  1.00  0.00    -0.113 C  
HETATM   25  O   UNL     1      -9.353   3.829  64.256  1.00  0.00    -0.131 OA 
HETATM   26  C   UNL     1      -9.696   4.843  66.397  1.00  0.00    -0.200 C  
ENDBRANCH  21  22
ENDBRANCH  12  21
BRANCH  20  27
HETATM   27  N   UNL     1      -8.678   8.476  72.212  1.00  0.00    -0.305 NA 
HETATM   28  H   UNL     1      -8.155   9.129  72.795  1.00  0.00     0.000 HD 
BRANCH  27  29
HETATM   29  C   UNL     1     -10.027   8.824  71.953  1.00  0.00    -0.331 A  
HETATM   30  C   UNL     1     -10.407   9.693  70.919  1.00  0.00    -0.334 A  
HETATM   31  C   UNL     1     -11.755   9.966  70.672  1.00  0.00    -0.323 A  
HETATM   32 CL   UNL     1     -12.175  11.079  69.421  1.00  0.00    -0.392 Cl 
HETATM   33  C   UNL     1     -12.742   9.353  71.434  1.00  0.00    -0.345 A  
HETATM   34  C   UNL     1     -12.396   8.450  72.428  1.00  0.00    -0.412 A  
HETATM   35  F   UNL     1     -14.038   9.604  71.208  1.00  0.00    -0.310 F  
HETATM   36  C   UNL     1     -11.047   8.180  72.680  1.00  0.00    -0.450 A  
ENDBRANCH  27  29
ENDBRANCH  20  27
ENDBRANCH   8  11
ENDBRANCH   6   7
ENDBRANCH   4   5
ENDBRANCH   2   4
TORSDOF 8
ENDMDL
MODEL       84
REMARK 921   NORMALIZED FREE ENERGY PREDICTED BY IDOCK:   -5.33 KCAL/MOL
REMARK 922        TOTAL FREE ENERGY PREDICTED BY IDOCK:   -9.36 KCAL/MOL
REMARK 923 INTER-LIGAND FREE ENERGY PREDICTED BY IDOCK:   -7.71 KCAL/MOL
REMARK 924 INTRA-LIGAND FREE ENERGY PREDICTED BY IDOCK:   -1.65 KCAL/MOL
REMARK 927      BINDING AFFINITY PREDICTED BY RF-SCORE:    0.00 PKD
ROOT
HETATM    1  C   UNL     1     -12.003  13.129  63.433  1.00  0.00    -0.483 C  
HETATM    2  N   UNL     1     -12.321  14.218  64.366  1.00  0.00    -0.638 NA 
HETATM    3  C   UNL     1     -13.013  13.651  65.533  1.00  0.00    -0.271 C  
ENDROOT
BRANCH   2   4
HETATM    4  C   UNL     1     -11.096  14.901  64.815  1.00  0.00    -0.383 C  
BRANCH   4   5
HETATM    5  C   UNL     1     -10.139  14.091  65.644  1.00  0.00    -0.342 C  
HETATM    6  C   UNL     1      -9.831  14.254  66.943  1.00  0.00    -0.264 C  
BRANCH   6   7
HETATM    7  C   UNL     1      -8.837  13.341  67.570  1.00  0.00    -0.206 C  
HETATM    8  N   UNL     1      -9.211  12.007  67.530  1.00  0.00    -0.175 N  
HETATM    9  O   UNL     1      -7.768  13.770  67.991  1.00  0.00    -0.123 OA 
HETATM   10  H   UNL     1     -10.141  11.763  67.191  1.00  0.00     0.000 HD 
BRANCH   8  11
HETATM   11  C   UNL     1      -8.342  10.970  67.946  1.00  0.00    -0.124 A  
HETATM   12  C   UNL     1      -7.361  10.435  67.110  1.00  0.00    -0.092 A  
HETATM   13  N   UNL     1      -6.852   7.839  71.389  1.00  0.00    -0.048 NA 
HETATM   14  C   UNL     1      -6.495   9.453  67.619  1.00  0.00    -0.062 A  
HETATM   15  C   UNL     1      -8.495  10.413  69.229  1.00  0.00    -0.162 A  
HETATM   16  C   UNL     1      -6.594   8.947  68.912  1.00  0.00    -0.052 A  
HETATM   17  C   UNL     1      -7.645   9.387  69.721  1.00  0.00    -0.095 A  
HETATM   18  N   UNL     1      -5.701   8.039  69.316  1.00  0.00    -0.033 NA 
HETATM   19  C   UNL     1      -5.857   7.548  70.550  1.00  0.00    -0.027 A  
HETATM   20  C   UNL     1      -7.758   8.744  70.977  1.00  0.00    -0.119 A  
BRANCH  12  21
HETATM   21  O   UNL     1      -7.232  10.641  65.767  1.00  0.00    -0.144 OA 
BRANCH  21  22
HETATM   22  C   UNL     1      -7.959   9.870  64.817  1.00  0.00    -0.143 C  
HETATM   23  C   UNL     1      -9.386  10.071  62.891  1.00  0.00    -0.260 C  
HETATM   24  C   UNL     1      -7.175   9.935  63.509  1.00  0.00    -0.126 C  
HETATM   25  O   UNL     1      -8.096   9.616  62.469  1.00  0.00    -0.122 OA 
HETATM   26  C   UNL     1      -9.309  10.402  64.377  1.00  0.00    -0.321 C  
ENDBRANCH  21  22
ENDBRANCH  12  21
BRANCH  20  27
HETATM   27  N   UNL     1      -8.858   9.055  71.826  1.00  0.00    -0.356 NA 
HETATM   28  H   UNL     1      -8.673   9.744  72.557  1.00  0.00     0.000 HD 
BRANCH  27  29
HETATM   29  C   UNL     1     -10.176   8.535  71.790  1.00  0.00    -0.282 A  
HETATM   30  C   UNL     1     -11.314   9.345  71.653  1.00  0.00    -0.452 A  
HETATM   31  C   UNL     1     -12.589   8.780  71.571  1.00  0.00    -0.326 A  
HETATM   32 CL   UNL     1     -13.965   9.817  71.452  1.00  0.00    -0.126 Cl 
HETATM   33  C   UNL     1     -12.744   7.400  71.596  1.00  0.00    -0.365 A  
HETATM   34  C   UNL     1     -11.633   6.575  71.678  1.00  0.00    -0.357 A  
HETATM   35  F   UNL     1     -13.960   6.844  71.517  1.00  0.00    -0.415 F  
HETATM   36  C   UNL     1     -10.355   7.138  71.766  1.00  0.00    -0.216 A  
ENDBRANCH  27  29
ENDBRANCH  20  27
ENDBRANCH   8  11
ENDBRANCH   6   7
ENDBRANCH   4   5
ENDBRANCH   2   4
TORSDOF 8
ENDMDL
MODEL       85
REMARK 921   NORMALIZED FREE ENERGY PREDICTED BY IDOCK:   -5.32 KCAL/MOL
REMARK 922        TOTAL FREE ENERGY PREDICTED BY IDOCK:   -9.35 KCAL/MOL
REMARK 923 INTER-LIGAND FREE ENERGY PREDICTED BY IDOCK:  -10.10 KCAL/MOL
REMARK 924 INTRA-LIGAND FREE ENERGY PREDICTED BY IDOCK:    0.74 KCAL/MOL
REMARK 927      BINDING AFFINITY PREDICTED BY RF-SCORE:    0.00 PKD
ROOT
HETATM    1  C   UNL     1     -11.995   6.799  70.102  1.00  0.00    -0.185 C  
HETATM    2  N   UNL     1     -10.656   6.677  69.511  1.00  0.00    -0.223 NA 
HETATM    3  C   UNL     1     -10.756   6.926  68.065  1.00  0.00    -0.218 C  
ENDROOT
BRANCH   2   4
HETATM    4  C   UNL     1      -9.727   7.653  70.106  1.00  0.00    -0.179 C  
BRANCH   4   5
HETATM    5  C   UNL     1      -9.785   9.054  69.565  1.00  0.00    -0.171 C  
HETATM    6  C   UNL     1     -10.719   9.992  69.803  1.00  0.00    -0.304 C  
BRANCH   6   7
HETATM    7  C   UNL     1     -10.591  11.321  69.148  1.00  0.00    -0.187 C  
HETATM    8  N   UNL     1     -11.466  12.271  69.650  1.00  0.00    -0.453 N  
HETATM    9  O   UNL     1      -9.720  11.526  68.307  1.00  0.00    -0.185 OA 
HETATM   10  H   UNL     1     -12.177  11.983  70.323  1.00  0.00     0.000 HD 
BRANCH   8  11
HETATM   11  C   UNL     1     -11.406  13.630  69.259  1.00  0.00    -0.269 A  
HETATM   12  C   UNL     1     -12.050  14.643  69.971  1.00  0.00    -0.329 A  
HETATM   13  N   UNL     1      -9.829  17.064  66.161  1.00  0.00    -0.395 NA 
HETATM   14  C   UNL     1     -11.887  15.975  69.556  1.00  0.00    -0.243 A  
HETATM   15  C   UNL     1     -10.718  13.980  68.082  1.00  0.00    -0.254 A  
HETATM   16  C   UNL     1     -11.149  16.337  68.433  1.00  0.00    -0.362 A  
HETATM   17  C   UNL     1     -10.599  15.326  67.642  1.00  0.00    -0.270 A  
HETATM   18  N   UNL     1     -11.024  17.635  68.138  1.00  0.00    -0.203 NA 
HETATM   19  C   UNL     1     -10.343  17.937  67.028  1.00  0.00    -0.362 A  
HETATM   20  C   UNL     1      -9.965  15.758  66.452  1.00  0.00    -0.277 A  
BRANCH  12  21
HETATM   21  O   UNL     1     -12.973  14.484  70.962  1.00  0.00    -0.332 OA 
BRANCH  21  22
HETATM   22  C   UNL     1     -13.112  15.429  72.017  1.00  0.00    -0.413 C  
HETATM   23  C   UNL     1     -12.412  15.884  74.273  1.00  0.00    -0.633 C  
HETATM   24  C   UNL     1     -11.802  16.210  72.080  1.00  0.00    -0.536 C  
HETATM   25  O   UNL     1     -11.731  16.777  73.386  1.00  0.00    -0.299 OA 
HETATM   26  C   UNL     1     -13.199  14.887  73.431  1.00  0.00    -0.383 C  
ENDBRANCH  21  22
ENDBRANCH  12  21
BRANCH  20  27
HETATM   27  N   UNL     1      -9.464  14.790  65.535  1.00  0.00    -0.481 NA 
HETATM   28  H   UNL     1      -8.449  14.757  65.437  1.00  0.00     0.000 HD 
BRANCH  27  29
HETATM   29  C   UNL     1     -10.190  13.868  64.741  1.00  0.00    -0.324 A  
HETATM   30  C   UNL     1      -9.709  12.589  64.423  1.00  0.00     0.035 A  
HETATM   31  C   UNL     1     -10.484  11.696  63.679  1.00  0.00    -0.429 A  
HETATM   32 CL   UNL     1      -9.832  10.150  63.269  1.00  0.00    -0.129 Cl 
HETATM   33  C   UNL     1     -11.761  12.057  63.267  1.00  0.00    -0.333 A  
HETATM   34  C   UNL     1     -12.281  13.295  63.612  1.00  0.00    -0.522 A  
HETATM   35  F   UNL     1     -12.517  11.211  62.554  1.00  0.00     0.097 F  
HETATM   36  C   UNL     1     -11.504  14.192  64.352  1.00  0.00    -0.344 A  
ENDBRANCH  27  29
ENDBRANCH  20  27
ENDBRANCH   8  11
ENDBRANCH   6   7
ENDBRANCH   4   5
ENDBRANCH   2   4
TORSDOF 8
ENDMDL
MODEL       86
REMARK 921   NORMALIZED FREE ENERGY PREDICTED BY IDOCK:   -5.31 KCAL/MOL
REMARK 922        TOTAL FREE ENERGY PREDICTED BY IDOCK:   -9.33 KCAL/MOL
REMARK 923 INTER-LIGAND FREE ENERGY PREDICTED BY IDOCK:   -8.42 KCAL/MOL
REMARK 924 INTRA-LIGAND FREE ENERGY PREDICTED BY IDOCK:   -0.91 KCAL/MOL
REMARK 927      BINDING AFFINITY PREDICTED BY RF-SCORE:    0.00 PKD
ROOT
HETATM    1  C   UNL     1      -5.975  15.170  70.272  1.00  0.00    -0.139 C  
HETATM    2  N   UNL     1      -5.126  14.198  70.973  1.00  0.00    -0.111 NA 
HETATM    3  C   UNL     1      -5.160  14.496  72.413  1.00  0.00    -0.200 C  
ENDROOT
BRANCH   2   4
HETATM    4  C   UNL     1      -5.606  12.823  70.753  1.00  0.00    -0.173 C  
BRANCH   4   5
HETATM    5  C   UNL     1      -6.274  12.546  69.436  1.00  0.00    -0.113 C  
HETATM    6  C   UNL     1      -6.104  11.481  68.632  1.00  0.00    -0.047 C  
BRANCH   6   7
HETATM    7  C   UNL     1      -6.861  11.413  67.353  1.00  0.00    -0.101 C  
HETATM    8  N   UNL     1      -8.232  11.306  67.528  1.00  0.00    -0.121 N  
HETATM    9  O   UNL     1      -6.285  11.528  66.276  1.00  0.00    -0.079 OA 
HETATM   10  H   UNL     1      -8.602  11.178  68.470  1.00  0.00     0.000 HD 
BRANCH   8  11
HETATM   11  C   UNL     1      -9.135  11.369  66.440  1.00  0.00    -0.193 A  
HETATM   12  C   UNL     1      -9.410  10.266  65.631  1.00  0.00    -0.192 A  
HETATM   13  N   UNL     1     -12.238  13.938  63.675  1.00  0.00    -0.656 NA 
HETATM   14  C   UNL     1     -10.368  10.392  64.612  1.00  0.00    -0.190 A  
HETATM   15  C   UNL     1      -9.746  12.595  66.120  1.00  0.00    -0.253 A  
HETATM   16  C   UNL     1     -11.030  11.584  64.333  1.00  0.00    -0.324 A  
HETATM   17  C   UNL     1     -10.678  12.727  65.056  1.00  0.00    -0.321 A  
HETATM   18  N   UNL     1     -11.951  11.596  63.365  1.00  0.00    -0.339 NA 
HETATM   19  C   UNL     1     -12.533  12.770  63.101  1.00  0.00    -0.080 A  
HETATM   20  C   UNL     1     -11.302  13.928  64.641  1.00  0.00    -0.375 A  
BRANCH  12  21
HETATM   21  O   UNL     1      -8.730   9.083  65.605  1.00  0.00    -0.153 OA 
BRANCH  21  22
HETATM   22  C   UNL     1      -9.002   8.041  66.536  1.00  0.00    -0.157 C  
HETATM   23  C   UNL     1     -10.685   6.447  67.175  1.00  0.00    -0.361 C  
HETATM   24  C   UNL     1      -8.888   6.727  65.769  1.00  0.00    -0.069 C  
HETATM   25  O   UNL     1      -9.618   5.757  66.516  1.00  0.00    -0.148 OA 
HETATM   26  C   UNL     1     -10.415   7.944  67.078  1.00  0.00    -0.419 C  
ENDBRANCH  21  22
ENDBRANCH  12  21
BRANCH  20  27
HETATM   27  N   UNL     1     -10.930  15.158  65.253  1.00  0.00    -0.372 NA 
HETATM   28  H   UNL     1     -10.570  15.877  64.623  1.00  0.00     0.000 HD 
BRANCH  27  29
HETATM   29  C   UNL     1     -10.992  15.516  66.623  1.00  0.00    -0.248 A  
HETATM   30  C   UNL     1     -10.466  16.716  67.125  1.00  0.00    -0.300 A  
HETATM   31  C   UNL     1     -10.597  17.047  68.476  1.00  0.00    -0.370 A  
HETATM   32 CL   UNL     1      -9.891  18.511  69.058  1.00  0.00    -0.357 Cl 
HETATM   33  C   UNL     1     -11.282  16.200  69.338  1.00  0.00    -0.335 A  
HETATM   34  C   UNL     1     -11.857  15.033  68.859  1.00  0.00    -0.337 A  
HETATM   35  F   UNL     1     -11.417  16.504  70.635  1.00  0.00    -0.384 F  
HETATM   36  C   UNL     1     -11.721  14.697  67.508  1.00  0.00    -0.403 A  
ENDBRANCH  27  29
ENDBRANCH  20  27
ENDBRANCH   8  11
ENDBRANCH   6   7
ENDBRANCH   4   5
ENDBRANCH   2   4
TORSDOF 8
ENDMDL
MODEL       87
REMARK 921   NORMALIZED FREE ENERGY PREDICTED BY IDOCK:   -5.30 KCAL/MOL
REMARK 922        TOTAL FREE ENERGY PREDICTED BY IDOCK:   -9.32 KCAL/MOL
REMARK 923 INTER-LIGAND FREE ENERGY PREDICTED BY IDOCK:   -8.76 KCAL/MOL
REMARK 924 INTRA-LIGAND FREE ENERGY PREDICTED BY IDOCK:   -0.56 KCAL/MOL
REMARK 927      BINDING AFFINITY PREDICTED BY RF-SCORE:    0.00 PKD
ROOT
HETATM    1  C   UNL     1     -11.887   6.154  72.239  1.00  0.00    -0.275 C  
HETATM    2  N   UNL     1     -10.665   6.792  71.731  1.00  0.00    -0.221 NA 
HETATM    3  C   UNL     1      -9.582   5.796  71.725  1.00  0.00    -0.155 C  
ENDROOT
BRANCH   2   4
HETATM    4  C   UNL     1     -10.865   7.296  70.361  1.00  0.00    -0.246 C  
BRANCH   4   5
HETATM    5  C   UNL     1     -10.679   8.773  70.154  1.00  0.00    -0.239 C  
HETATM    6  C   UNL     1     -10.595   9.438  68.988  1.00  0.00    -0.233 C  
BRANCH   6   7
HETATM    7  C   UNL     1     -10.395  10.913  69.011  1.00  0.00    -0.211 C  
HETATM    8  N   UNL     1      -9.410  11.350  68.139  1.00  0.00    -0.175 N  
HETATM    9  O   UNL     1     -11.118  11.634  69.692  1.00  0.00    -0.208 OA 
HETATM   10  H   UNL     1      -8.843  10.660  67.648  1.00  0.00     0.000 HD 
BRANCH   8  11
HETATM   11  C   UNL     1      -9.167  12.725  67.910  1.00  0.00    -0.205 A  
HETATM   12  C   UNL     1      -7.930  13.203  67.474  1.00  0.00    -0.179 A  
HETATM   13  N   UNL     1     -10.750  17.347  67.902  1.00  0.00    -0.384 NA 
HETATM   14  C   UNL     1      -7.788  14.575  67.207  1.00  0.00    -0.199 A  
HETATM   15  C   UNL     1     -10.183  13.661  68.177  1.00  0.00    -0.247 A  
HETATM   16  C   UNL     1      -8.811  15.498  67.400  1.00  0.00    -0.190 A  
HETATM   17  C   UNL     1     -10.016  15.053  67.949  1.00  0.00    -0.222 A  
HETATM   18  N   UNL     1      -8.590  16.778  67.085  1.00  0.00    -0.190 NA 
HETATM   19  C   UNL     1      -9.584  17.639  67.325  1.00  0.00    -0.271 A  
HETATM   20  C   UNL     1     -10.968  16.062  68.232  1.00  0.00    -0.335 A  
BRANCH  12  21
HETATM   21  O   UNL     1      -6.758  12.507  67.421  1.00  0.00    -0.138 OA 
BRANCH  21  22
HETATM   22  C   UNL     1      -5.820  12.535  68.490  1.00  0.00    -0.055 C  
HETATM   23  C   UNL     1      -5.577  13.173  70.796  1.00  0.00    -0.187 C  
HETATM   24  C   UNL     1      -6.222  11.422  69.454  1.00  0.00    -0.091 C  
HETATM   25  O   UNL     1      -5.638  11.746  70.713  1.00  0.00    -0.185 OA 
HETATM   26  C   UNL     1      -5.846  13.742  69.408  1.00  0.00    -0.095 C  
ENDBRANCH  21  22
ENDBRANCH  12  21
BRANCH  20  27
HETATM   27  N   UNL     1     -12.185  15.713  68.885  1.00  0.00    -0.580 NA 
HETATM   28  H   UNL     1     -13.011  15.667  68.287  1.00  0.00     0.000 HD 
BRANCH  27  29
HETATM   29  C   UNL     1     -12.399  15.423  70.255  1.00  0.00    -0.388 A  
HETATM   30  C   UNL     1     -13.139  14.315  70.695  1.00  0.00    -0.247 A  
HETATM   31  C   UNL     1     -13.279  14.043  72.059  1.00  0.00    -0.412 A  
HETATM   32 CL   UNL     1     -14.240  12.697  72.555  1.00  0.00    -0.020 Cl 
HETATM   33  C   UNL     1     -12.658  14.854  73.000  1.00  0.00    -0.426 A  
HETATM   34  C   UNL     1     -11.878  15.925  72.591  1.00  0.00    -0.598 A  
HETATM   35  F   UNL     1     -12.782  14.605  74.310  1.00  0.00    -0.471 F  
HETATM   36  C   UNL     1     -11.741  16.202  71.227  1.00  0.00    -0.480 A  
ENDBRANCH  27  29
ENDBRANCH  20  27
ENDBRANCH   8  11
ENDBRANCH   6   7
ENDBRANCH   4   5
ENDBRANCH   2   4
TORSDOF 8
ENDMDL
MODEL       88
REMARK 921   NORMALIZED FREE ENERGY PREDICTED BY IDOCK:   -5.28 KCAL/MOL
REMARK 922        TOTAL FREE ENERGY PREDICTED BY IDOCK:   -9.29 KCAL/MOL
REMARK 923 INTER-LIGAND FREE ENERGY PREDICTED BY IDOCK:   -8.75 KCAL/MOL
REMARK 924 INTRA-LIGAND FREE ENERGY PREDICTED BY IDOCK:   -0.54 KCAL/MOL
REMARK 927      BINDING AFFINITY PREDICTED BY RF-SCORE:    0.00 PKD
ROOT
HETATM    1  C   UNL     1     -12.646  15.706  74.293  1.00  0.00    -0.577 C  
HETATM    2  N   UNL     1     -12.803  15.648  72.834  1.00  0.00    -0.423 NA 
HETATM    3  C   UNL     1     -11.472  15.505  72.223  1.00  0.00    -0.402 C  
ENDROOT
BRANCH   2   4
HETATM    4  C   UNL     1     -13.641  14.502  72.439  1.00  0.00    -0.466 C  
BRANCH   4   5
HETATM    5  C   UNL     1     -13.276  13.813  71.154  1.00  0.00    -0.277 C  
HETATM    6  C   UNL     1     -12.513  12.716  70.994  1.00  0.00    -0.354 C  
BRANCH   6   7
HETATM    7  C   UNL     1     -12.265  12.203  69.620  1.00  0.00    -0.120 C  
HETATM    8  N   UNL     1     -11.417  13.008  68.875  1.00  0.00    -0.279 N  
HETATM    9  O   UNL     1     -12.724  11.124  69.260  1.00  0.00    -0.252 OA 
HETATM   10  H   UNL     1     -11.123  13.906  69.259  1.00  0.00     0.000 HD 
BRANCH   8  11
HETATM   11  C   UNL     1     -10.946  12.623  67.597  1.00  0.00    -0.241 A  
HETATM   12  C   UNL     1     -10.788  13.534  66.552  1.00  0.00    -0.282 A  
HETATM   13  N   UNL     1      -9.370   9.140  64.554  1.00  0.00     0.078 NA 
HETATM   14  C   UNL     1     -10.253  13.085  65.334  1.00  0.00    -0.301 A  
HETATM   15  C   UNL     1     -10.673  11.266  67.342  1.00  0.00    -0.285 A  
HETATM   16  C   UNL     1      -9.913  11.756  65.096  1.00  0.00    -0.253 A  
HETATM   17  C   UNL     1     -10.177  10.812  66.091  1.00  0.00    -0.308 A  
HETATM   18  N   UNL     1      -9.378  11.432  63.915  1.00  0.00    -0.133 NA 
HETATM   19  C   UNL     1      -9.104  10.139  63.711  1.00  0.00    -0.261 A  
HETATM   20  C   UNL     1      -9.920   9.465  65.738  1.00  0.00    -0.208 A  
BRANCH  12  21
HETATM   21  O   UNL     1     -11.246  14.818  66.512  1.00  0.00    -0.335 OA 
BRANCH  21  22
HETATM   22  C   UNL     1     -10.399  15.926  66.799  1.00  0.00    -0.298 C  
HETATM   23  C   UNL     1     -10.323  18.329  66.752  1.00  0.00    -0.384 C  
HETATM   24  C   UNL     1     -10.923  16.556  68.086  1.00  0.00    -0.336 C  
HETATM   25  O   UNL     1     -10.433  17.894  68.111  1.00  0.00    -0.374 OA 
HETATM   26  C   UNL     1     -10.454  17.107  65.850  1.00  0.00    -0.265 C  
ENDBRANCH  21  22
ENDBRANCH  12  21
BRANCH  20  27
HETATM   27  N   UNL     1     -10.254   8.426  66.652  1.00  0.00    -0.336 NA 
HETATM   28  H   UNL     1     -11.081   8.589  67.226  1.00  0.00     0.000 HD 
BRANCH  27  29
HETATM   29  C   UNL     1      -9.587   7.194  66.870  1.00  0.00    -0.168 A  
HETATM   30  C   UNL     1      -8.262   7.113  67.327  1.00  0.00    -0.119 A  
HETATM   31  C   UNL     1      -7.665   5.874  67.575  1.00  0.00    -0.097 A  
HETATM   32 CL   UNL     1      -6.018   5.821  68.091  1.00  0.00    -0.016 Cl 
HETATM   33  C   UNL     1      -8.389   4.702  67.398  1.00  0.00    -0.104 A  
HETATM   34  C   UNL     1      -9.715   4.756  66.996  1.00  0.00    -0.205 A  
HETATM   35  F   UNL     1      -7.830   3.508  67.632  1.00  0.00    -0.074 F  
HETATM   36  C   UNL     1     -10.313   5.995  66.742  1.00  0.00    -0.296 A  
ENDBRANCH  27  29
ENDBRANCH  20  27
ENDBRANCH   8  11
ENDBRANCH   6   7
ENDBRANCH   4   5
ENDBRANCH   2   4
TORSDOF 8
ENDMDL
MODEL       89
REMARK 921   NORMALIZED FREE ENERGY PREDICTED BY IDOCK:   -5.27 KCAL/MOL
REMARK 922        TOTAL FREE ENERGY PREDICTED BY IDOCK:   -9.28 KCAL/MOL
REMARK 923 INTER-LIGAND FREE ENERGY PREDICTED BY IDOCK:   -8.45 KCAL/MOL
REMARK 924 INTRA-LIGAND FREE ENERGY PREDICTED BY IDOCK:   -0.83 KCAL/MOL
REMARK 927      BINDING AFFINITY PREDICTED BY RF-SCORE:    0.00 PKD
ROOT
HETATM    1  C   UNL     1      -9.758  20.004  67.922  1.00  0.00    -0.390 C  
HETATM    2  N   UNL     1     -10.573  18.783  67.887  1.00  0.00    -0.378 NA 
HETATM    3  C   UNL     1     -10.429  18.159  66.563  1.00  0.00    -0.341 C  
ENDROOT
BRANCH   2   4
HETATM    4  C   UNL     1     -10.137  17.828  68.921  1.00  0.00    -0.350 C  
BRANCH   4   5
HETATM    5  C   UNL     1     -10.571  16.400  68.745  1.00  0.00    -0.310 C  
HETATM    6  C   UNL     1     -10.748  15.469  69.699  1.00  0.00    -0.274 C  
BRANCH   6   7
HETATM    7  C   UNL     1     -11.171  14.099  69.301  1.00  0.00    -0.269 C  
HETATM    8  N   UNL     1     -10.144  13.336  68.769  1.00  0.00    -0.415 N  
HETATM    9  O   UNL     1     -12.313  13.706  69.522  1.00  0.00    -0.294 OA 
HETATM   10  H   UNL     1      -9.240  13.775  68.594  1.00  0.00     0.000 HD 
BRANCH   8  11
HETATM   11  C   UNL     1     -10.309  11.964  68.462  1.00  0.00    -0.218 A  
HETATM   12  C   UNL     1     -11.092  11.526  67.393  1.00  0.00    -0.282 A  
HETATM   13  N   UNL     1      -9.359   7.274  69.450  1.00  0.00    -0.152 NA 
HETATM   14  C   UNL     1     -11.152  10.150  67.114  1.00  0.00    -0.122 A  
HETATM   15  C   UNL     1      -9.708  10.994  69.286  1.00  0.00    -0.033 A  
HETATM   16  C   UNL     1     -10.503   9.189  67.882  1.00  0.00    -0.237 A  
HETATM   17  C   UNL     1      -9.813   9.602  69.025  1.00  0.00    -0.183 A  
HETATM   18  N   UNL     1     -10.592   7.907  67.516  1.00  0.00    -0.260 NA 
HETATM   19  C   UNL     1      -9.989   7.011  68.304  1.00  0.00    -0.153 A  
HETATM   20  C   UNL     1      -9.280   8.563  69.825  1.00  0.00    -0.157 A  
BRANCH  12  21
HETATM   21  O   UNL     1     -11.960  12.276  66.655  1.00  0.00    -0.598 OA 
BRANCH  21  22
HETATM   22  C   UNL     1     -11.557  12.923  65.453  1.00  0.00    -0.350 C  
HETATM   23  C   UNL     1     -12.304  13.449  63.229  1.00  0.00    -0.169 C  
HETATM   24  C   UNL     1     -12.322  14.241  65.387  1.00  0.00    -0.415 C  
HETATM   25  O   UNL     1     -12.321  14.642  64.019  1.00  0.00    -0.712 OA 
HETATM   26  C   UNL     1     -11.969  12.277  64.144  1.00  0.00    -0.518 C  
ENDBRANCH  21  22
ENDBRANCH  12  21
BRANCH  20  27
HETATM   27  N   UNL     1      -8.648   8.885  71.060  1.00  0.00    -0.190 NA 
HETATM   28  H   UNL     1      -8.705   9.863  71.346  1.00  0.00     0.000 HD 
BRANCH  27  29
HETATM   29  C   UNL     1      -7.950   8.025  71.944  1.00  0.00    -0.115 A  
HETATM   30  C   UNL     1      -8.480   6.810  72.405  1.00  0.00    -0.121 A  
HETATM   31  C   UNL     1      -7.732   5.971  73.236  1.00  0.00    -0.101 A  
HETATM   32 CL   UNL     1      -8.442   4.510  73.818  1.00  0.00    -0.104 Cl 
HETATM   33  C   UNL     1      -6.436   6.320  73.593  1.00  0.00    -0.070 A  
HETATM   34  C   UNL     1      -5.869   7.489  73.110  1.00  0.00    -0.048 A  
HETATM   35  F   UNL     1      -5.706   5.526  74.388  1.00  0.00    -0.041 F  
HETATM   36  C   UNL     1      -6.618   8.332  72.283  1.00  0.00    -0.083 A  
ENDBRANCH  27  29
ENDBRANCH  20  27
ENDBRANCH   8  11
ENDBRANCH   6   7
ENDBRANCH   4   5
ENDBRANCH   2   4
TORSDOF 8
ENDMDL
MODEL       90
REMARK 921   NORMALIZED FREE ENERGY PREDICTED BY IDOCK:   -5.24 KCAL/MOL
REMARK 922        TOTAL FREE ENERGY PREDICTED BY IDOCK:   -9.23 KCAL/MOL
REMARK 923 INTER-LIGAND FREE ENERGY PREDICTED BY IDOCK:   -7.78 KCAL/MOL
REMARK 924 INTRA-LIGAND FREE ENERGY PREDICTED BY IDOCK:   -1.45 KCAL/MOL
REMARK 927      BINDING AFFINITY PREDICTED BY RF-SCORE:    0.00 PKD
ROOT
HETATM    1  C   UNL     1     -12.983  14.410  70.794  1.00  0.00    -0.326 C  
HETATM    2  N   UNL     1     -12.497  15.796  70.802  1.00  0.00    -0.418 NA 
HETATM    3  C   UNL     1     -11.636  15.985  71.980  1.00  0.00    -0.414 C  
ENDROOT
BRANCH   2   4
HETATM    4  C   UNL     1     -11.720  16.089  69.585  1.00  0.00    -0.276 C  
BRANCH   4   5
HETATM    5  C   UNL     1     -11.056  14.921  68.912  1.00  0.00    -0.267 C  
HETATM    6  C   UNL     1      -9.913  14.307  69.266  1.00  0.00     0.058 C  
BRANCH   6   7
HETATM    7  C   UNL     1      -9.421  13.168  68.444  1.00  0.00    -0.166 C  
HETATM    8  N   UNL     1     -10.022  11.959  68.760  1.00  0.00    -0.381 N  
HETATM    9  O   UNL     1      -8.621  13.351  67.532  1.00  0.00    -0.176 OA 
HETATM   10  H   UNL     1     -10.647  11.913  69.565  1.00  0.00     0.000 HD 
BRANCH   8  11
HETATM   11  C   UNL     1      -9.795  10.787  68.001  1.00  0.00    -0.165 A  
HETATM   12  C   UNL     1     -10.435  10.547  66.785  1.00  0.00    -0.242 A  
HETATM   13  N   UNL     1      -7.544   6.484  67.454  1.00  0.00    -0.098 NA 
HETATM   14  C   UNL     1     -10.106   9.389  66.060  1.00  0.00    -0.302 A  
HETATM   15  C   UNL     1      -8.935   9.793  68.506  1.00  0.00    -0.124 A  
HETATM   16  C   UNL     1      -9.202   8.436  66.519  1.00  0.00    -0.189 A  
HETATM   17  C   UNL     1      -8.644   8.602  67.789  1.00  0.00    -0.136 A  
HETATM   18  N   UNL     1      -8.929   7.384  65.741  1.00  0.00    -0.083 NA 
HETATM   19  C   UNL     1      -8.088   6.470  66.236  1.00  0.00    -0.115 A  
HETATM   20  C   UNL     1      -7.829   7.537  68.242  1.00  0.00    -0.122 A  
BRANCH  12  21
HETATM   21  O   UNL     1     -11.488  11.242  66.265  1.00  0.00    -0.265 OA 
BRANCH  21  22
HETATM   22  C   UNL     1     -11.309  12.239  65.266  1.00  0.00    -0.338 C  
HETATM   23  C   UNL     1     -12.288  13.117  63.253  1.00  0.00    -0.283 C  
HETATM   24  C   UNL     1     -12.344  13.326  65.541  1.00  0.00    -0.480 C  
HETATM   25  O   UNL     1     -12.513  14.043  64.321  1.00  0.00    -0.645 OA 
HETATM   26  C   UNL     1     -11.651  11.862  63.838  1.00  0.00    -0.515 C  
ENDBRANCH  21  22
ENDBRANCH  12  21
BRANCH  20  27
HETATM   27  N   UNL     1      -7.300   7.573  69.563  1.00  0.00    -0.082 NA 
HETATM   28  H   UNL     1      -6.302   7.773  69.635  1.00  0.00     0.000 HD 
BRANCH  27  29
HETATM   29  C   UNL     1      -7.978   7.369  70.791  1.00  0.00    -0.104 A  
HETATM   30  C   UNL     1      -7.693   8.103  71.952  1.00  0.00    -0.129 A  
HETATM   31  C   UNL     1      -8.425   7.900  73.126  1.00  0.00    -0.186 A  
HETATM   32 CL   UNL     1      -8.008   8.792  74.544  1.00  0.00    -0.012 Cl 
HETATM   33  C   UNL     1      -9.468   6.983  73.147  1.00  0.00    -0.157 A  
HETATM   34  C   UNL     1      -9.803   6.281  72.000  1.00  0.00    -0.173 A  
HETATM   35  F   UNL     1     -10.178   6.778  74.264  1.00  0.00    -0.316 F  
HETATM   36  C   UNL     1      -9.069   6.479  70.826  1.00  0.00    -0.154 A  
ENDBRANCH  27  29
ENDBRANCH  20  27
ENDBRANCH   8  11
ENDBRANCH   6   7
ENDBRANCH   4   5
ENDBRANCH   2   4
TORSDOF 8
ENDMDL
MODEL       91
REMARK 921   NORMALIZED FREE ENERGY PREDICTED BY IDOCK:   -5.21 KCAL/MOL
REMARK 922        TOTAL FREE ENERGY PREDICTED BY IDOCK:   -9.18 KCAL/MOL
REMARK 923 INTER-LIGAND FREE ENERGY PREDICTED BY IDOCK:   -7.99 KCAL/MOL
REMARK 924 INTRA-LIGAND FREE ENERGY PREDICTED BY IDOCK:   -1.20 KCAL/MOL
REMARK 927      BINDING AFFINITY PREDICTED BY RF-SCORE:    0.00 PKD
ROOT
HETATM    1  C   UNL     1     -12.383  14.236  70.552  1.00  0.00    -0.360 C  
HETATM    2  N   UNL     1     -13.056  14.480  71.834  1.00  0.00    -0.330 NA 
HETATM    3  C   UNL     1     -14.136  15.456  71.619  1.00  0.00    -0.514 C  
ENDROOT
BRANCH   2   4
HETATM    4  C   UNL     1     -13.629  13.236  72.375  1.00  0.00    -0.594 C  
BRANCH   4   5
HETATM    5  C   UNL     1     -13.232  11.959  71.690  1.00  0.00    -0.364 C  
HETATM    6  C   UNL     1     -13.279  10.709  72.183  1.00  0.00    -0.379 C  
BRANCH   6   7
HETATM    7  C   UNL     1     -12.820   9.578  71.333  1.00  0.00    -0.358 C  
HETATM    8  N   UNL     1     -11.616   9.823  70.691  1.00  0.00    -0.293 N  
HETATM    9  O   UNL     1     -13.443   8.521  71.303  1.00  0.00    -0.254 OA 
HETATM   10  H   UNL     1     -11.201  10.753  70.755  1.00  0.00     0.000 HD 
BRANCH   8  11
HETATM   11  C   UNL     1     -10.942   8.823  69.950  1.00  0.00    -0.179 A  
HETATM   12  C   UNL     1     -10.414   7.677  70.547  1.00  0.00    -0.220 A  
HETATM   13  N   UNL     1      -9.274   7.141  65.677  1.00  0.00     0.129 NA 
HETATM   14  C   UNL     1      -9.817   6.700  69.734  1.00  0.00    -0.174 A  
HETATM   15  C   UNL     1     -10.744   9.002  68.569  1.00  0.00    -0.140 A  
HETATM   16  C   UNL     1      -9.681   6.837  68.356  1.00  0.00    -0.128 A  
HETATM   17  C   UNL     1     -10.096   8.031  67.760  1.00  0.00    -0.250 A  
HETATM   18  N   UNL     1      -9.128   5.837  67.662  1.00  0.00    -0.107 NA 
HETATM   19  C   UNL     1      -8.978   6.026  66.347  1.00  0.00    -0.145 A  
HETATM   20  C   UNL     1      -9.817   8.152  66.377  1.00  0.00    -0.190 A  
BRANCH  12  21
HETATM   21  O   UNL     1     -10.263   7.448  71.884  1.00  0.00    -0.186 OA 
BRANCH  21  22
HETATM   22  C   UNL     1      -8.993   7.151  72.454  1.00  0.00    -0.127 C  
HETATM   23  C   UNL     1      -7.178   8.137  73.686  1.00  0.00    -0.141 C  
HETATM   24  C   UNL     1      -9.198   7.075  73.964  1.00  0.00    -0.226 C  
HETATM   25  O   UNL     1      -7.918   7.276  74.558  1.00  0.00    -0.140 OA 
HETATM   26  C   UNL     1      -7.919   8.217  72.356  1.00  0.00    -0.185 C  
ENDBRANCH  21  22
ENDBRANCH  12  21
BRANCH  20  27
HETATM   27  N   UNL     1     -10.114   9.374  65.708  1.00  0.00    -0.353 NA 
HETATM   28  H   UNL     1     -10.553   9.282  64.791  1.00  0.00     0.000 HD 
BRANCH  27  29
HETATM   29  C   UNL     1      -9.879  10.700  66.148  1.00  0.00    -0.217 A  
HETATM   30  C   UNL     1      -8.628  11.145  66.601  1.00  0.00    -0.165 A  
HETATM   31  C   UNL     1      -8.433  12.477  66.977  1.00  0.00    -0.161 A  
HETATM   32 CL   UNL     1      -6.890  12.968  67.574  1.00  0.00    -0.159 Cl 
HETATM   33  C   UNL     1      -9.477  13.388  66.879  1.00  0.00    -0.253 A  
HETATM   34  C   UNL     1     -10.709  12.987  66.386  1.00  0.00    -0.295 A  
HETATM   35  F   UNL     1      -9.306  14.668  67.235  1.00  0.00    -0.188 F  
HETATM   36  C   UNL     1     -10.907  11.654  66.014  1.00  0.00    -0.339 A  
ENDBRANCH  27  29
ENDBRANCH  20  27
ENDBRANCH   8  11
ENDBRANCH   6   7
ENDBRANCH   4   5
ENDBRANCH   2   4
TORSDOF 8
ENDMDL
MODEL       92
REMARK 921   NORMALIZED FREE ENERGY PREDICTED BY IDOCK:   -5.20 KCAL/MOL
REMARK 922        TOTAL FREE ENERGY PREDICTED BY IDOCK:   -9.18 KCAL/MOL
REMARK 923 INTER-LIGAND FREE ENERGY PREDICTED BY IDOCK:   -8.93 KCAL/MOL
REMARK 924 INTRA-LIGAND FREE ENERGY PREDICTED BY IDOCK:   -0.25 KCAL/MOL
REMARK 927      BINDING AFFINITY PREDICTED BY RF-SCORE:    0.00 PKD
ROOT
HETATM    1  C   UNL     1      -7.063  19.547  69.217  1.00  0.00    -0.337 C  
HETATM    2  N   UNL     1      -8.128  19.462  68.209  1.00  0.00    -0.325 NA 
HETATM    3  C   UNL     1      -7.689  18.557  67.137  1.00  0.00    -0.225 C  
ENDROOT
BRANCH   2   4
HETATM    4  C   UNL     1      -9.373  18.943  68.800  1.00  0.00    -0.336 C  
BRANCH   4   5
HETATM    5  C   UNL     1      -9.798  17.567  68.373  1.00  0.00    -0.325 C  
HETATM    6  C   UNL     1     -10.511  16.669  69.076  1.00  0.00    -0.328 C  
BRANCH   6   7
HETATM    7  C   UNL     1     -10.812  15.346  68.464  1.00  0.00    -0.264 C  
HETATM    8  N   UNL     1      -9.691  14.699  67.968  1.00  0.00    -0.212 N  
HETATM    9  O   UNL     1     -11.948  14.884  68.496  1.00  0.00    -0.309 OA 
HETATM   10  H   UNL     1      -8.799  15.193  67.958  1.00  0.00     0.000 HD 
BRANCH   8  11
HETATM   11  C   UNL     1      -9.745  13.374  67.476  1.00  0.00    -0.224 A  
HETATM   12  C   UNL     1      -9.982  13.084  66.131  1.00  0.00    -0.278 A  
HETATM   13  N   UNL     1      -9.493   8.560  68.277  1.00  0.00    -0.134 NA 
HETATM   14  C   UNL     1      -9.955  11.744  65.709  1.00  0.00    -0.269 A  
HETATM   15  C   UNL     1      -9.610  12.297  68.372  1.00  0.00    -0.183 A  
HETATM   16  C   UNL     1      -9.751  10.677  66.578  1.00  0.00    -0.194 A  
HETATM   17  C   UNL     1      -9.632  10.943  67.945  1.00  0.00    -0.175 A  
HETATM   18  N   UNL     1      -9.709   9.439  66.076  1.00  0.00    -0.258 NA 
HETATM   19  C   UNL     1      -9.552   8.439  66.950  1.00  0.00    -0.202 A  
HETATM   20  C   UNL     1      -9.548   9.805  68.783  1.00  0.00    -0.154 A  
BRANCH  12  21
HETATM   21  O   UNL     1     -10.402  13.956  65.170  1.00  0.00    -0.349 OA 
BRANCH  21  22
HETATM   22  C   UNL     1     -11.527  13.677  64.344  1.00  0.00    -0.386 C  
HETATM   23  C   UNL     1     -12.771  11.866  63.366  1.00  0.00    -0.366 C  
HETATM   24  C   UNL     1     -12.627  13.155  65.264  1.00  0.00    -0.472 C  
HETATM   25  O   UNL     1     -13.533  12.427  64.440  1.00  0.00    -0.626 OA 
HETATM   26  C   UNL     1     -11.400  12.531  63.359  1.00  0.00    -0.489 C  
ENDBRANCH  21  22
ENDBRANCH  12  21
BRANCH  20  27
HETATM   27  N   UNL     1      -9.526   9.977  70.197  1.00  0.00    -0.396 NA 
HETATM   28  H   UNL     1     -10.147  10.698  70.565  1.00  0.00     0.000 HD 
BRANCH  27  29
HETATM   29  C   UNL     1      -8.755   9.277  71.158  1.00  0.00    -0.044 A  
HETATM   30  C   UNL     1      -9.323   8.612  72.256  1.00  0.00    -0.322 A  
HETATM   31  C   UNL     1      -8.525   7.892  73.149  1.00  0.00    -0.186 A  
HETATM   32 CL   UNL     1      -9.260   7.130  74.512  1.00  0.00    -0.213 Cl 
HETATM   33  C   UNL     1      -7.154   7.803  72.942  1.00  0.00    -0.079 A  
HETATM   34  C   UNL     1      -6.574   8.407  71.838  1.00  0.00    -0.072 A  
HETATM   35  F   UNL     1      -6.376   7.116  73.789  1.00  0.00    -0.064 F  
HETATM   36  C   UNL     1      -7.371   9.132  70.946  1.00  0.00    -0.129 A  
ENDBRANCH  27  29
ENDBRANCH  20  27
ENDBRANCH   8  11
ENDBRANCH   6   7
ENDBRANCH   4   5
ENDBRANCH   2   4
TORSDOF 8
ENDMDL
MODEL       93
REMARK 921   NORMALIZED FREE ENERGY PREDICTED BY IDOCK:   -5.19 KCAL/MOL
REMARK 922        TOTAL FREE ENERGY PREDICTED BY IDOCK:   -9.16 KCAL/MOL
REMARK 923 INTER-LIGAND FREE ENERGY PREDICTED BY IDOCK:   -8.43 KCAL/MOL
REMARK 924 INTRA-LIGAND FREE ENERGY PREDICTED BY IDOCK:   -0.73 KCAL/MOL
REMARK 927      BINDING AFFINITY PREDICTED BY RF-SCORE:    0.00 PKD
ROOT
HETATM    1  C   UNL     1      -7.760   9.897  63.215  1.00  0.00    -0.143 C  
HETATM    2  N   UNL     1      -7.222   9.049  64.285  1.00  0.00    -0.090 NA 
HETATM    3  C   UNL     1      -6.249   8.114  63.700  1.00  0.00    -0.071 C  
ENDROOT
BRANCH   2   4
HETATM    4  C   UNL     1      -6.552   9.862  65.315  1.00  0.00    -0.105 C  
BRANCH   4   5
HETATM    5  C   UNL     1      -7.355  10.186  66.543  1.00  0.00    -0.108 C  
HETATM    6  C   UNL     1      -7.106   9.818  67.813  1.00  0.00    -0.087 C  
BRANCH   6   7
HETATM    7  C   UNL     1      -8.046  10.240  68.886  1.00  0.00    -0.123 C  
HETATM    8  N   UNL     1      -9.318  10.537  68.420  1.00  0.00    -0.152 N  
HETATM    9  O   UNL     1      -7.701  10.229  70.063  1.00  0.00    -0.164 OA 
HETATM   10  H   UNL     1      -9.485  10.551  67.414  1.00  0.00     0.000 HD 
BRANCH   8  11
HETATM   11  C   UNL     1     -10.391  10.821  69.297  1.00  0.00    -0.205 A  
HETATM   12  C   UNL     1     -11.154   9.817  69.896  1.00  0.00    -0.254 A  
HETATM   13  N   UNL     1     -13.198  14.081  71.614  1.00  0.00    -0.349 NA 
HETATM   14  C   UNL     1     -12.161  10.180  70.805  1.00  0.00    -0.434 A  
HETATM   15  C   UNL     1     -10.747  12.160  69.542  1.00  0.00     0.170 A  
HETATM   16  C   UNL     1     -12.473  11.502  71.108  1.00  0.00    -0.337 A  
HETATM   17  C   UNL     1     -11.799  12.519  70.427  1.00  0.00    -0.246 A  
HETATM   18  N   UNL     1     -13.426  11.747  72.013  1.00  0.00    -0.359 NA 
HETATM   19  C   UNL     1     -13.723  13.029  72.244  1.00  0.00    -0.512 A  
HETATM   20  C   UNL     1     -12.248  13.835  70.694  1.00  0.00    -0.363 A  
BRANCH  12  21
HETATM   21  O   UNL     1     -11.148   8.490  69.582  1.00  0.00    -0.154 OA 
BRANCH  21  22
HETATM   22  C   UNL     1     -10.447   7.536  70.371  1.00  0.00    -0.223 C  
HETATM   23  C   UNL     1     -10.308   5.181  70.839  1.00  0.00    -0.212 C  
HETATM   24  C   UNL     1      -9.493   6.805  69.431  1.00  0.00    -0.147 C  
HETATM   25  O   UNL     1      -9.170   5.568  70.062  1.00  0.00    -0.135 OA 
HETATM   26  C   UNL     1     -11.246   6.378  70.937  1.00  0.00    -0.384 C  
ENDBRANCH  21  22
ENDBRANCH  12  21
BRANCH  20  27
HETATM   27  N   UNL     1     -11.688  14.926  69.971  1.00  0.00    -0.276 NA 
HETATM   28  H   UNL     1     -11.422  15.738  70.529  1.00  0.00     0.000 HD 
BRANCH  27  29
HETATM   29  C   UNL     1     -11.453  15.033  68.578  1.00  0.00    -0.317 A  
HETATM   30  C   UNL     1     -12.022  14.161  67.637  1.00  0.00    -0.405 A  
HETATM   31  C   UNL     1     -11.800  14.338  66.269  1.00  0.00    -0.406 A  
HETATM   32 CL   UNL     1     -12.481  13.212  65.151  1.00  0.00    -0.522 Cl 
HETATM   33  C   UNL     1     -11.032  15.404  65.820  1.00  0.00    -0.309 A  
HETATM   34  C   UNL     1     -10.500  16.310  66.724  1.00  0.00    -0.287 A  
HETATM   35  F   UNL     1     -10.811  15.587  64.511  1.00  0.00    -0.400 F  
HETATM   36  C   UNL     1     -10.716  16.132  68.094  1.00  0.00    -0.315 A  
ENDBRANCH  27  29
ENDBRANCH  20  27
ENDBRANCH   8  11
ENDBRANCH   6   7
ENDBRANCH   4   5
ENDBRANCH   2   4
TORSDOF 8
ENDMDL
MODEL       94
REMARK 921   NORMALIZED FREE ENERGY PREDICTED BY IDOCK:   -5.19 KCAL/MOL
REMARK 922        TOTAL FREE ENERGY PREDICTED BY IDOCK:   -9.15 KCAL/MOL
REMARK 923 INTER-LIGAND FREE ENERGY PREDICTED BY IDOCK:   -7.51 KCAL/MOL
REMARK 924 INTRA-LIGAND FREE ENERGY PREDICTED BY IDOCK:   -1.64 KCAL/MOL
REMARK 927      BINDING AFFINITY PREDICTED BY RF-SCORE:    0.00 PKD
ROOT
HETATM    1  C   UNL     1     -12.654   7.371  71.725  1.00  0.00    -0.335 C  
HETATM    2  N   UNL     1     -11.561   6.920  72.597  1.00  0.00    -0.195 NA 
HETATM    3  C   UNL     1     -11.067   5.626  72.101  1.00  0.00    -0.241 C  
ENDROOT
BRANCH   2   4
HETATM    4  C   UNL     1     -10.453   7.892  72.598  1.00  0.00    -0.320 C  
BRANCH   4   5
HETATM    5  C   UNL     1      -9.959   8.351  71.255  1.00  0.00    -0.261 C  
HETATM    6  C   UNL     1      -8.758   8.877  70.954  1.00  0.00    -0.256 C  
BRANCH   6   7
HETATM    7  C   UNL     1      -8.478   9.281  69.550  1.00  0.00    -0.144 C  
HETATM    8  N   UNL     1      -9.337   8.705  68.628  1.00  0.00    -0.142 N  
HETATM    9  O   UNL     1      -7.612  10.113  69.297  1.00  0.00    -0.093 OA 
HETATM   10  H   UNL     1      -9.999   7.996  68.943  1.00  0.00     0.000 HD 
BRANCH   8  11
HETATM   11  C   UNL     1      -9.326   9.070  67.260  1.00  0.00    -0.139 A  
HETATM   12  C   UNL     1      -8.520   8.426  66.321  1.00  0.00    -0.127 A  
HETATM   13  N   UNL     1     -10.950  11.921  63.640  1.00  0.00    -0.408 NA 
HETATM   14  C   UNL     1      -8.615   8.804  64.971  1.00  0.00    -0.196 A  
HETATM   15  C   UNL     1     -10.112  10.154  66.828  1.00  0.00    -0.277 A  
HETATM   16  C   UNL     1      -9.443   9.828  64.524  1.00  0.00    -0.202 A  
HETATM   17  C   UNL     1     -10.166  10.562  65.468  1.00  0.00    -0.325 A  
HETATM   18  N   UNL     1      -9.490  10.091  63.214  1.00  0.00    -0.266 NA 
HETATM   19  C   UNL     1     -10.266  11.110  62.831  1.00  0.00    -0.115 A  
HETATM   20  C   UNL     1     -10.893  11.665  64.959  1.00  0.00    -0.288 A  
BRANCH  12  21
HETATM   21  O   UNL     1      -7.505   7.552  66.578  1.00  0.00    -0.081 OA 
BRANCH  21  22
HETATM   22  C   UNL     1      -7.735   6.153  66.706  1.00  0.00    -0.103 C  
HETATM   23  C   UNL     1      -6.696   4.011  66.363  1.00  0.00    -0.053 C  
HETATM   24  C   UNL     1      -6.935   5.687  67.919  1.00  0.00    -0.066 C  
HETATM   25  O   UNL     1      -6.751   4.281  67.767  1.00  0.00    -0.048 OA 
HETATM   26  C   UNL     1      -7.175   5.254  65.621  1.00  0.00    -0.068 C  
ENDBRANCH  21  22
ENDBRANCH  12  21
BRANCH  20  27
HETATM   27  N   UNL     1     -11.578  12.528  65.861  1.00  0.00    -0.384 NA 
HETATM   28  H   UNL     1     -12.551  12.288  66.052  1.00  0.00     0.000 HD 
BRANCH  27  29
HETATM   29  C   UNL     1     -11.085  13.678  66.527  1.00  0.00    -0.305 A  
HETATM   30  C   UNL     1      -9.819  14.226  66.269  1.00  0.00    -0.323 A  
HETATM   31  C   UNL     1      -9.398  15.391  66.915  1.00  0.00    -0.236 A  
HETATM   32 CL   UNL     1      -7.814  16.003  66.604  1.00  0.00    -0.284 Cl 
HETATM   33  C   UNL     1     -10.245  16.041  67.805  1.00  0.00    -0.260 A  
HETATM   34  C   UNL     1     -11.520  15.549  68.038  1.00  0.00    -0.313 A  
HETATM   35  F   UNL     1      -9.856  17.159  68.431  1.00  0.00    -0.248 F  
HETATM   36  C   UNL     1     -11.941  14.380  67.397  1.00  0.00    -0.407 A  
ENDBRANCH  27  29
ENDBRANCH  20  27
ENDBRANCH   8  11
ENDBRANCH   6   7
ENDBRANCH   4   5
ENDBRANCH   2   4
TORSDOF 8
ENDMDL
MODEL       95
REMARK 921   NORMALIZED FREE ENERGY PREDICTED BY IDOCK:   -5.13 KCAL/MOL
REMARK 922        TOTAL FREE ENERGY PREDICTED BY IDOCK:   -9.07 KCAL/MOL
REMARK 923 INTER-LIGAND FREE ENERGY PREDICTED BY IDOCK:   -7.52 KCAL/MOL
REMARK 924 INTRA-LIGAND FREE ENERGY PREDICTED BY IDOCK:   -1.55 KCAL/MOL
REMARK 927      BINDING AFFINITY PREDICTED BY RF-SCORE:    0.00 PKD
ROOT
HETATM    1  C   UNL     1      -7.090   7.279  72.989  1.00  0.00    -0.072 C  
HETATM    2  N   UNL     1      -7.596   7.717  71.681  1.00  0.00    -0.082 NA 
HETATM    3  C   UNL     1      -9.065   7.764  71.738  1.00  0.00    -0.137 C  
ENDROOT
BRANCH   2   4
HETATM    4  C   UNL     1      -7.082   9.054  71.338  1.00  0.00    -0.050 C  
BRANCH   4   5
HETATM    5  C   UNL     1      -7.435   9.582  69.976  1.00  0.00    -0.126 C  
HETATM    6  C   UNL     1      -6.733  10.442  69.218  1.00  0.00    -0.067 C  
BRANCH   6   7
HETATM    7  C   UNL     1      -7.278  10.848  67.894  1.00  0.00    -0.086 C  
HETATM    8  N   UNL     1      -8.596  10.468  67.698  1.00  0.00    -0.118 N  
HETATM    9  O   UNL     1      -6.609  11.527  67.121  1.00  0.00    -0.099 OA 
HETATM   10  H   UNL     1      -9.047   9.871  68.393  1.00  0.00     0.000 HD 
BRANCH   8  11
HETATM   11  C   UNL     1      -9.338  10.880  66.566  1.00  0.00    -0.173 A  
HETATM   12  C   UNL     1      -9.481  10.078  65.433  1.00  0.00    -0.250 A  
HETATM   13  N   UNL     1     -12.052  14.251  64.298  1.00  0.00    -0.504 NA 
HETATM   14  C   UNL     1     -10.287  10.533  64.376  1.00  0.00    -0.244 A  
HETATM   15  C   UNL     1      -9.913  12.164  66.547  1.00  0.00    -0.230 A  
HETATM   16  C   UNL     1     -10.919  11.773  64.380  1.00  0.00    -0.339 A  
HETATM   17  C   UNL     1     -10.687  12.636  65.454  1.00  0.00    -0.308 A  
HETATM   18  N   UNL     1     -11.694  12.102  63.342  1.00  0.00    -0.455 NA 
HETATM   19  C   UNL     1     -12.248  13.318  63.365  1.00  0.00    -0.403 A  
HETATM   20  C   UNL     1     -11.261  13.925  65.336  1.00  0.00    -0.306 A  
BRANCH  12  21
HETATM   21  O   UNL     1      -8.790   8.938  65.147  1.00  0.00    -0.195 OA 
BRANCH  21  22
HETATM   22  C   UNL     1      -7.665   8.942  64.275  1.00  0.00    -0.122 C  
HETATM   23  C   UNL     1      -5.708   7.674  63.682  1.00  0.00    -0.045 C  
HETATM   24  C   UNL     1      -7.944   7.900  63.195  1.00  0.00    -0.130 C  
HETATM   25  O   UNL     1      -6.680   7.544  62.640  1.00  0.00    -0.068 OA 
HETATM   26  C   UNL     1      -6.348   8.438  64.836  1.00  0.00    -0.060 C  
ENDBRANCH  21  22
ENDBRANCH  12  21
BRANCH  20  27
HETATM   27  N   UNL     1     -10.995  14.904  66.336  1.00  0.00    -0.332 NA 
HETATM   28  H   UNL     1     -11.499  14.787  67.216  1.00  0.00     0.000 HD 
BRANCH  27  29
HETATM   29  C   UNL     1     -10.123  16.018  66.268  1.00  0.00    -0.313 A  
HETATM   30  C   UNL     1     -10.576  17.346  66.295  1.00  0.00    -0.194 A  
HETATM   31  C   UNL     1      -9.673  18.412  66.277  1.00  0.00    -0.294 A  
HETATM   32 CL   UNL     1     -10.277  20.030  66.261  1.00  0.00    -0.589 Cl 
HETATM   33  C   UNL     1      -8.305  18.167  66.262  1.00  0.00    -0.198 A  
HETATM   34  C   UNL     1      -7.830  16.865  66.288  1.00  0.00    -0.346 A  
HETATM   35  F   UNL     1      -7.427  19.179  66.246  1.00  0.00    -0.228 F  
HETATM   36  C   UNL     1      -8.732  15.797  66.300  1.00  0.00    -0.358 A  
ENDBRANCH  27  29
ENDBRANCH  20  27
ENDBRANCH   8  11
ENDBRANCH   6   7
ENDBRANCH   4   5
ENDBRANCH   2   4
TORSDOF 8
ENDMDL
MODEL       96
REMARK 921   NORMALIZED FREE ENERGY PREDICTED BY IDOCK:   -5.11 KCAL/MOL
REMARK 922        TOTAL FREE ENERGY PREDICTED BY IDOCK:   -9.04 KCAL/MOL
REMARK 923 INTER-LIGAND FREE ENERGY PREDICTED BY IDOCK:   -7.87 KCAL/MOL
REMARK 924 INTRA-LIGAND FREE ENERGY PREDICTED BY IDOCK:   -1.17 KCAL/MOL
REMARK 927      BINDING AFFINITY PREDICTED BY RF-SCORE:    0.00 PKD
ROOT
HETATM    1  C   UNL     1     -14.308   8.665  72.107  1.00  0.00    -0.427 C  
HETATM    2  N   UNL     1     -12.999   9.253  72.423  1.00  0.00    -0.398 NA 
HETATM    3  C   UNL     1     -11.951   8.283  72.072  1.00  0.00    -0.348 C  
ENDROOT
BRANCH   2   4
HETATM    4  C   UNL     1     -12.783  10.496  71.663  1.00  0.00    -0.445 C  
BRANCH   4   5
HETATM    5  C   UNL     1     -11.707  10.465  70.615  1.00  0.00    -0.444 C  
HETATM    6  C   UNL     1     -11.675  11.129  69.445  1.00  0.00    -0.402 C  
BRANCH   6   7
HETATM    7  C   UNL     1     -10.510  10.941  68.540  1.00  0.00    -0.188 C  
HETATM    8  N   UNL     1     -10.777  10.118  67.458  1.00  0.00    -0.277 N  
HETATM    9  O   UNL     1      -9.460  11.548  68.733  1.00  0.00    -0.175 OA 
HETATM   10  H   UNL     1     -11.674   9.633  67.415  1.00  0.00     0.000 HD 
BRANCH   8  11
HETATM   11  C   UNL     1      -9.846   9.928  66.409  1.00  0.00    -0.227 A  
HETATM   12  C   UNL     1      -9.416  10.973  65.591  1.00  0.00    -0.217 A  
HETATM   13  N   UNL     1      -6.953   6.960  63.822  1.00  0.00    -0.054 NA 
HETATM   14  C   UNL     1      -8.440  10.715  64.615  1.00  0.00    -0.088 A  
HETATM   15  C   UNL     1      -9.367   8.633  66.137  1.00  0.00    -0.291 A  
HETATM   16  C   UNL     1      -7.909   9.450  64.386  1.00  0.00    -0.123 A  
HETATM   17  C   UNL     1      -8.416   8.372  65.115  1.00  0.00    -0.179 A  
HETATM   18  N   UNL     1      -6.958   9.311  63.456  1.00  0.00    -0.090 NA 
HETATM   19  C   UNL     1      -6.504   8.072  63.239  1.00  0.00    -0.076 A  
HETATM   20  C   UNL     1      -7.918   7.098  64.748  1.00  0.00    -0.122 A  
BRANCH  12  21
HETATM   21  O   UNL     1      -9.954  12.225  65.515  1.00  0.00    -0.252 OA 
BRANCH  21  22
HETATM   22  C   UNL     1     -10.543  12.716  64.316  1.00  0.00    -0.384 C  
HETATM   23  C   UNL     1     -12.659  12.993  63.207  1.00  0.00    -0.047 C  
HETATM   24  C   UNL     1     -11.225  14.034  64.671  1.00  0.00    -0.374 C  
HETATM   25  O   UNL     1     -12.200  14.271  63.659  1.00  0.00    -0.610 OA 
HETATM   26  C   UNL     1     -11.705  11.930  63.739  1.00  0.00    -0.554 C  
ENDBRANCH  21  22
ENDBRANCH  12  21
BRANCH  20  27
HETATM   27  N   UNL     1      -8.452   5.932  65.368  1.00  0.00    -0.153 NA 
HETATM   28  H   UNL     1      -9.008   5.325  64.766  1.00  0.00     0.000 HD 
BRANCH  27  29
HETATM   29  C   UNL     1      -8.312   5.506  66.712  1.00  0.00    -0.108 A  
HETATM   30  C   UNL     1      -9.365   5.547  67.640  1.00  0.00    -0.116 A  
HETATM   31  C   UNL     1      -9.192   5.067  68.941  1.00  0.00    -0.115 A  
HETATM   32 CL   UNL     1     -10.499   5.182  70.063  1.00  0.00    -0.353 Cl 
HETATM   33  C   UNL     1      -7.976   4.514  69.325  1.00  0.00    -0.069 A  
HETATM   34  C   UNL     1      -6.937   4.414  68.413  1.00  0.00    -0.052 A  
HETATM   35  F   UNL     1      -7.796   4.050  70.568  1.00  0.00    -0.049 F  
HETATM   36  C   UNL     1      -7.106   4.899  67.112  1.00  0.00    -0.066 A  
ENDBRANCH  27  29
ENDBRANCH  20  27
ENDBRANCH   8  11
ENDBRANCH   6   7
ENDBRANCH   4   5
ENDBRANCH   2   4
TORSDOF 8
ENDMDL
MODEL       97
REMARK 921   NORMALIZED FREE ENERGY PREDICTED BY IDOCK:   -5.10 KCAL/MOL
REMARK 922        TOTAL FREE ENERGY PREDICTED BY IDOCK:   -9.03 KCAL/MOL
REMARK 923 INTER-LIGAND FREE ENERGY PREDICTED BY IDOCK:   -8.92 KCAL/MOL
REMARK 924 INTRA-LIGAND FREE ENERGY PREDICTED BY IDOCK:   -0.11 KCAL/MOL
REMARK 927      BINDING AFFINITY PREDICTED BY RF-SCORE:    0.00 PKD
ROOT
HETATM    1  C   UNL     1     -10.485  18.727  68.070  1.00  0.00    -0.352 C  
HETATM    2  N   UNL     1     -10.430  19.036  66.636  1.00  0.00    -0.414 NA 
HETATM    3  C   UNL     1      -9.266  19.900  66.386  1.00  0.00    -0.380 C  
ENDROOT
BRANCH   2   4
HETATM    4  C   UNL     1     -10.299  17.806  65.836  1.00  0.00    -0.254 C  
BRANCH   4   5
HETATM    5  C   UNL     1     -10.776  16.533  66.477  1.00  0.00    -0.144 C  
HETATM    6  C   UNL     1     -11.087  15.372  65.873  1.00  0.00    -0.247 C  
BRANCH   6   7
HETATM    7  C   UNL     1     -11.557  14.230  66.702  1.00  0.00    -0.383 C  
HETATM    8  N   UNL     1     -11.192  14.327  68.035  1.00  0.00    -0.269 N  
HETATM    9  O   UNL     1     -12.269  13.354  66.219  1.00  0.00    -0.414 OA 
HETATM   10  H   UNL     1     -10.566  15.079  68.323  1.00  0.00     0.000 HD 
BRANCH   8  11
HETATM   11  C   UNL     1     -11.661  13.416  69.012  1.00  0.00    -0.312 A  
HETATM   12  C   UNL     1     -12.631  13.762  69.954  1.00  0.00    -0.092 A  
HETATM   13  N   UNL     1     -11.534   8.976  71.046  1.00  0.00    -0.280 NA 
HETATM   14  C   UNL     1     -13.091  12.781  70.848  1.00  0.00     0.038 A  
HETATM   15  C   UNL     1     -11.100  12.128  69.080  1.00  0.00    -0.263 A  
HETATM   16  C   UNL     1     -12.591  11.483  70.875  1.00  0.00    -0.341 A  
HETATM   17  C   UNL     1     -11.536  11.156  70.019  1.00  0.00    -0.421 A  
HETATM   18  N   UNL     1     -13.117  10.611  71.741  1.00  0.00    -0.468 NA 
HETATM   19  C   UNL     1     -12.580   9.386  71.764  1.00  0.00    -0.387 A  
HETATM   20  C   UNL     1     -10.996   9.857  70.184  1.00  0.00    -0.301 A  
BRANCH  12  21
HETATM   21  O   UNL     1     -13.094  15.016  70.226  1.00  0.00    -0.225 OA 
BRANCH  21  22
HETATM   22  C   UNL     1     -12.804  15.672  71.455  1.00  0.00    -0.471 C  
HETATM   23  C   UNL     1     -12.913  15.385  73.841  1.00  0.00    -0.287 C  
HETATM   24  C   UNL     1     -11.556  15.004  72.025  1.00  0.00    -0.335 C  
HETATM   25  O   UNL     1     -11.548  15.284  73.422  1.00  0.00    -0.340 OA 
HETATM   26  C   UNL     1     -13.786  15.480  72.595  1.00  0.00    -0.654 C  
ENDBRANCH  21  22
ENDBRANCH  12  21
BRANCH  20  27
HETATM   27  N   UNL     1      -9.855   9.472  69.424  1.00  0.00    -0.177 NA 
HETATM   28  H   UNL     1      -9.781   8.477  69.208  1.00  0.00     0.000 HD 
BRANCH  27  29
HETATM   29  C   UNL     1      -8.808  10.289  68.930  1.00  0.00    -0.157 A  
HETATM   30  C   UNL     1      -7.805  10.827  69.752  1.00  0.00     0.125 A  
HETATM   31  C   UNL     1      -6.765  11.585  69.210  1.00  0.00    -0.118 A  
HETATM   32 CL   UNL     1      -5.580  12.268  70.264  1.00  0.00    -0.141 Cl 
HETATM   33  C   UNL     1      -6.694  11.792  67.838  1.00  0.00    -0.072 A  
HETATM   34  C   UNL     1      -7.642  11.229  66.998  1.00  0.00    -0.143 A  
HETATM   35  F   UNL     1      -5.702  12.516  67.303  1.00  0.00    -0.119 F  
HETATM   36  C   UNL     1      -8.688  10.475  67.539  1.00  0.00    -0.125 A  
ENDBRANCH  27  29
ENDBRANCH  20  27
ENDBRANCH   8  11
ENDBRANCH   6   7
ENDBRANCH   4   5
ENDBRANCH   2   4
TORSDOF 8
ENDMDL
MODEL       98
REMARK 921   NORMALIZED FREE ENERGY PREDICTED BY IDOCK:   -5.08 KCAL/MOL
REMARK 922        TOTAL FREE ENERGY PREDICTED BY IDOCK:   -8.99 KCAL/MOL
REMARK 923 INTER-LIGAND FREE ENERGY PREDICTED BY IDOCK:   -7.62 KCAL/MOL
REMARK 924 INTRA-LIGAND FREE ENERGY PREDICTED BY IDOCK:   -1.37 KCAL/MOL
REMARK 927      BINDING AFFINITY PREDICTED BY RF-SCORE:    0.00 PKD
ROOT
HETATM    1  C   UNL     1      -6.402   6.711  74.304  1.00  0.00    -0.069 C  
HETATM    2  N   UNL     1      -7.297   7.098  73.206  1.00  0.00    -0.072 NA 
HETATM    3  C   UNL     1      -8.532   7.653  73.779  1.00  0.00    -0.212 C  
ENDROOT
BRANCH   2   4
HETATM    4  C   UNL     1      -6.665   8.113  72.345  1.00  0.00    -0.083 C  
BRANCH   4   5
HETATM    5  C   UNL     1      -7.522   8.704  71.261  1.00  0.00    -0.117 C  
HETATM    6  C   UNL     1      -7.155   9.572  70.301  1.00  0.00    -0.110 C  
BRANCH   6   7
HETATM    7  C   UNL     1      -8.176  10.046  69.328  1.00  0.00    -0.147 C  
HETATM    8  N   UNL     1      -7.702  10.131  68.028  1.00  0.00    -0.089 N  
HETATM    9  O   UNL     1      -9.334  10.248  69.681  1.00  0.00    -0.205 OA 
HETATM   10  H   UNL     1      -6.709   9.976  67.853  1.00  0.00     0.000 HD 
BRANCH   8  11
HETATM   11  C   UNL     1      -8.553  10.425  66.936  1.00  0.00    -0.127 A  
HETATM   12  C   UNL     1      -9.040   9.437  66.080  1.00  0.00    -0.183 A  
HETATM   13  N   UNL     1     -10.994  13.697  64.251  1.00  0.00    -0.358 NA 
HETATM   14  C   UNL     1      -9.932   9.803  65.058  1.00  0.00    -0.132 A  
HETATM   15  C   UNL     1      -8.885  11.765  66.661  1.00  0.00    -0.189 A  
HETATM   16  C   UNL     1     -10.322  11.118  64.823  1.00  0.00    -0.325 A  
HETATM   17  C   UNL     1      -9.750  12.131  65.595  1.00  0.00    -0.223 A  
HETATM   18  N   UNL     1     -11.203  11.362  63.847  1.00  0.00    -0.354 NA 
HETATM   19  C   UNL     1     -11.519  12.642  63.627  1.00  0.00    -0.495 A  
HETATM   20  C   UNL     1     -10.098  13.452  65.224  1.00  0.00    -0.249 A  
BRANCH  12  21
HETATM   21  O   UNL     1      -8.626   8.139  66.011  1.00  0.00    -0.131 OA 
BRANCH  21  22
HETATM   22  C   UNL     1      -9.052   7.165  66.957  1.00  0.00    -0.134 C  
HETATM   23  C   UNL     1     -11.019   6.116  67.859  1.00  0.00    -0.304 C  
HETATM   24  C   UNL     1      -9.481   5.937  66.159  1.00  0.00    -0.106 C  
HETATM   25  O   UNL     1     -10.344   5.184  67.008  1.00  0.00    -0.218 OA 
HETATM   26  C   UNL     1     -10.315   7.463  67.742  1.00  0.00    -0.273 C  
ENDBRANCH  21  22
ENDBRANCH  12  21
BRANCH  20  27
HETATM   27  N   UNL     1      -9.484  14.552  65.890  1.00  0.00    -0.509 NA 
HETATM   28  H   UNL     1      -8.652  14.933  65.440  1.00  0.00     0.000 HD 
BRANCH  27  29
HETATM   29  C   UNL     1      -9.879  15.184  67.095  1.00  0.00    -0.228 A  
HETATM   30  C   UNL     1      -9.508  16.497  67.426  1.00  0.00    -0.228 A  
HETATM   31  C   UNL     1      -9.965  17.096  68.603  1.00  0.00    -0.313 A  
HETATM   32 CL   UNL     1      -9.444  18.694  68.993  1.00  0.00    -0.275 Cl 
HETATM   33  C   UNL     1     -10.822  16.403  69.450  1.00  0.00    -0.327 A  
HETATM   34  C   UNL     1     -11.245  15.125  69.121  1.00  0.00    -0.288 A  
HETATM   35  F   UNL     1     -11.269  16.964  70.581  1.00  0.00    -0.301 F  
HETATM   36  C   UNL     1     -10.784  14.522  67.947  1.00  0.00    -0.245 A  
ENDBRANCH  27  29
ENDBRANCH  20  27
ENDBRANCH   8  11
ENDBRANCH   6   7
ENDBRANCH   4   5
ENDBRANCH   2   4
TORSDOF 8
ENDMDL
MODEL       99
REMARK 921   NORMALIZED FREE ENERGY PREDICTED BY IDOCK:   -5.07 KCAL/MOL
REMARK 922        TOTAL FREE ENERGY PREDICTED BY IDOCK:   -8.98 KCAL/MOL
REMARK 923 INTER-LIGAND FREE ENERGY PREDICTED BY IDOCK:   -7.77 KCAL/MOL
REMARK 924 INTRA-LIGAND FREE ENERGY PREDICTED BY IDOCK:   -1.21 KCAL/MOL
REMARK 927      BINDING AFFINITY PREDICTED BY RF-SCORE:    0.00 PKD
ROOT
HETATM    1  C   UNL     1      -6.255   4.126  64.955  1.00  0.00    -0.027 C  
HETATM    2  N   UNL     1      -7.687   4.210  64.641  1.00  0.00    -0.080 NA 
HETATM    3  C   UNL     1      -7.935   3.496  63.379  1.00  0.00    -0.080 C  
ENDROOT
BRANCH   2   4
HETATM    4  C   UNL     1      -8.497   3.599  65.709  1.00  0.00    -0.111 C  
BRANCH   4   5
HETATM    5  C   UNL     1      -9.406   4.520  66.474  1.00  0.00    -0.155 C  
HETATM    6  C   UNL     1      -9.059   5.514  67.310  1.00  0.00    -0.110 C  
BRANCH   6   7
HETATM    7  C   UNL     1     -10.129   6.300  67.981  1.00  0.00    -0.152 C  
HETATM    8  N   UNL     1      -9.683   7.014  69.082  1.00  0.00    -0.156 N  
HETATM    9  O   UNL     1     -11.264   6.343  67.514  1.00  0.00    -0.347 OA 
HETATM   10  H   UNL     1      -8.726   6.875  69.407  1.00  0.00     0.000 HD 
BRANCH   8  11
HETATM   11  C   UNL     1     -10.513   7.931  69.770  1.00  0.00    -0.233 A  
HETATM   12  C   UNL     1     -11.299   7.556  70.860  1.00  0.00    -0.277 A  
HETATM   13  N   UNL     1     -12.275  12.458  70.291  1.00  0.00    -0.308 NA 
HETATM   14  C   UNL     1     -12.046   8.539  71.530  1.00  0.00    -0.351 A  
HETATM   15  C   UNL     1     -10.598   9.260  69.317  1.00  0.00    -0.234 A  
HETATM   16  C   UNL     1     -12.079   9.872  71.131  1.00  0.00    -0.374 A  
HETATM   17  C   UNL     1     -11.393  10.239  69.971  1.00  0.00    -0.370 A  
HETATM   18  N   UNL     1     -12.793  10.741  71.854  1.00  0.00    -0.415 NA 
HETATM   19  C   UNL     1     -12.833  12.002  71.414  1.00  0.00    -0.288 A  
HETATM   20  C   UNL     1     -11.568  11.581  69.556  1.00  0.00    -0.333 A  
BRANCH  12  21
HETATM   21  O   UNL     1     -11.564   6.284  71.277  1.00  0.00    -0.308 OA 
BRANCH  21  22
HETATM   22  C   UNL     1     -10.682   5.580  72.143  1.00  0.00    -0.231 C  
HETATM   23  C   UNL     1     -10.499   3.575  73.458  1.00  0.00    -0.178 C  
HETATM   24  C   UNL     1     -10.131   4.402  71.345  1.00  0.00    -0.140 C  
HETATM   25  O   UNL     1      -9.671   3.447  72.298  1.00  0.00    -0.133 OA 
HETATM   26  C   UNL     1     -11.296   4.868  73.333  1.00  0.00    -0.379 C  
ENDBRANCH  21  22
ENDBRANCH  12  21
BRANCH  20  27
HETATM   27  N   UNL     1     -10.987  12.017  68.331  1.00  0.00    -0.222 NA 
HETATM   28  H   UNL     1     -10.994  11.337  67.571  1.00  0.00     0.000 HD 
BRANCH  27  29
HETATM   29  C   UNL     1     -10.401  13.272  68.030  1.00  0.00    -0.241 A  
HETATM   30  C   UNL     1      -9.023  13.517  68.137  1.00  0.00    -0.187 A  
HETATM   31  C   UNL     1      -8.486  14.756  67.780  1.00  0.00    -0.164 A  
HETATM   32 CL   UNL     1      -6.792  15.029  67.974  1.00  0.00    -0.133 Cl 
HETATM   33  C   UNL     1      -9.311  15.757  67.284  1.00  0.00    -0.211 A  
HETATM   34  C   UNL     1     -10.668  15.524  67.119  1.00  0.00    -0.315 A  
HETATM   35  F   UNL     1      -8.811  16.950  66.936  1.00  0.00    -0.205 F  
HETATM   36  C   UNL     1     -11.208  14.286  67.481  1.00  0.00    -0.322 A  
ENDBRANCH  27  29
ENDBRANCH  20  27
ENDBRANCH   8  11
ENDBRANCH   6   7
ENDBRANCH   4   5
ENDBRANCH   2   4
TORSDOF 8
ENDMDL
MODEL      100
REMARK 921   NORMALIZED FREE ENERGY PREDICTED BY IDOCK:   -5.06 KCAL/MOL
REMARK 922        TOTAL FREE ENERGY PREDICTED BY IDOCK:   -8.97 KCAL/MOL
REMARK 923 INTER-LIGAND FREE ENERGY PREDICTED BY IDOCK:   -7.53 KCAL/MOL
REMARK 924 INTRA-LIGAND FREE ENERGY PREDICTED BY IDOCK:   -1.43 KCAL/MOL
REMARK 927      BINDING AFFINITY PREDICTED BY RF-SCORE:    0.00 PKD
ROOT
HETATM    1  C   UNL     1      -9.204   1.657  64.210  1.00  0.00    -0.121 C  
HETATM    2  N   UNL     1     -10.014   2.548  63.369  1.00  0.00    -0.116 NA 
HETATM    3  C   UNL     1     -10.964   1.731  62.598  1.00  0.00    -0.186 C  
ENDROOT
BRANCH   2   4
HETATM    4  C   UNL     1     -10.764   3.512  64.192  1.00  0.00    -0.170 C  
BRANCH   4   5
HETATM    5  C   UNL     1      -9.951   4.517  64.959  1.00  0.00    -0.112 C  
HETATM    6  C   UNL     1     -10.215   5.040  66.170  1.00  0.00    -0.288 C  
BRANCH   6   7
HETATM    7  C   UNL     1      -9.276   6.041  66.744  1.00  0.00    -0.136 C  
HETATM    8  N   UNL     1      -9.913   7.086  67.393  1.00  0.00    -0.154 N  
HETATM    9  O   UNL     1      -8.062   5.865  66.693  1.00  0.00    -0.101 OA 
HETATM   10  H   UNL     1     -10.929   7.155  67.342  1.00  0.00     0.000 HD 
BRANCH   8  11
HETATM   11  C   UNL     1      -9.197   8.064  68.125  1.00  0.00    -0.133 A  
HETATM   12  C   UNL     1      -8.825   7.877  69.458  1.00  0.00    -0.142 A  
HETATM   13  N   UNL     1      -7.067  12.456  68.338  1.00  0.00    -0.098 NA 
HETATM   14  C   UNL     1      -8.060   8.868  70.095  1.00  0.00    -0.122 A  
HETATM   15  C   UNL     1      -8.889   9.294  67.516  1.00  0.00    -0.123 A  
HETATM   16  C   UNL     1      -7.689  10.058  69.476  1.00  0.00    -0.146 A  
HETATM   17  C   UNL     1      -8.155  10.311  68.183  1.00  0.00    -0.110 A  
HETATM   18  N   UNL     1      -6.930  10.925  70.154  1.00  0.00    -0.183 NA 
HETATM   19  C   UNL     1      -6.631  12.073  69.539  1.00  0.00    -0.079 A  
HETATM   20  C   UNL     1      -7.842  11.589  67.661  1.00  0.00    -0.125 A  
BRANCH  12  21
HETATM   21  O   UNL     1      -9.257   6.891  70.295  1.00  0.00    -0.155 OA 
BRANCH  21  22
HETATM   22  C   UNL     1     -10.320   7.102  71.218  1.00  0.00    -0.198 C  
HETATM   23  C   UNL     1     -12.715   7.269  71.360  1.00  0.00    -0.389 C  
HETATM   24  C   UNL     1     -10.992   5.749  71.430  1.00  0.00    -0.237 C  
HETATM   25  O   UNL     1     -12.302   6.019  71.922  1.00  0.00    -0.159 OA 
HETATM   26  C   UNL     1     -11.492   7.942  70.748  1.00  0.00    -0.273 C  
ENDBRANCH  21  22
ENDBRANCH  12  21
BRANCH  20  27
HETATM   27  N   UNL     1      -8.360  11.973  66.391  1.00  0.00    -0.391 NA 
HETATM   28  H   UNL     1      -7.728  11.853  65.600  1.00  0.00     0.000 HD 
BRANCH  27  29
HETATM   29  C   UNL     1      -9.640  12.499  66.084  1.00  0.00    -0.228 A  
HETATM   30  C   UNL     1     -10.422  12.031  65.016  1.00  0.00    -0.327 A  
HETATM   31  C   UNL     1     -11.699  12.547  64.784  1.00  0.00    -0.358 A  
HETATM   32 CL   UNL     1     -12.606  11.977  63.430  1.00  0.00    -0.681 Cl 
HETATM   33  C   UNL     1     -12.225  13.515  65.630  1.00  0.00    -0.458 A  
HETATM   34  C   UNL     1     -11.495  13.958  66.723  1.00  0.00    -0.369 A  
HETATM   35  F   UNL     1     -13.448  14.019  65.421  1.00  0.00    -0.416 F  
HETATM   36  C   UNL     1     -10.213  13.446  66.953  1.00  0.00    -0.252 A  
ENDBRANCH  27  29
ENDBRANCH  20  27
ENDBRANCH   8  11
ENDBRANCH   6   7
ENDBRANCH   4   5
ENDBRANCH   2   4
TORSDOF 8
ENDMDL
MODEL      101
REMARK 921   NORMALIZED FREE ENERGY PREDICTED BY IDOCK:   -5.05 KCAL/MOL
REMARK 922        TOTAL FREE ENERGY PREDICTED BY IDOCK:   -8.95 KCAL/MOL
REMARK 923 INTER-LIGAND FREE ENERGY PREDICTED BY IDOCK:   -7.66 KCAL/MOL
REMARK 924 INTRA-LIGAND FREE ENERGY PREDICTED BY IDOCK:   -1.29 KCAL/MOL
REMARK 927      BINDING AFFINITY PREDICTED BY RF-SCORE:    0.00 PKD
ROOT
HETATM    1  C   UNL     1      -5.538   2.618  66.226  1.00  0.00    -0.017 C  
HETATM    2  N   UNL     1      -6.685   3.241  66.900  1.00  0.00    -0.044 NA 
HETATM    3  C   UNL     1      -6.187   4.049  68.024  1.00  0.00    -0.036 C  
ENDROOT
BRANCH   2   4
HETATM    4  C   UNL     1      -7.433   4.108  65.975  1.00  0.00    -0.084 C  
BRANCH   4   5
HETATM    5  C   UNL     1      -8.403   5.075  66.593  1.00  0.00    -0.107 C  
HETATM    6  C   UNL     1      -8.619   6.358  66.252  1.00  0.00    -0.140 C  
BRANCH   6   7
HETATM    7  C   UNL     1      -9.625   7.148  67.013  1.00  0.00    -0.159 C  
HETATM    8  N   UNL     1      -9.068   7.958  67.989  1.00  0.00    -0.133 N  
HETATM    9  O   UNL     1     -10.813   7.111  66.708  1.00  0.00    -0.320 OA 
HETATM   10  H   UNL     1      -8.069   7.882  68.184  1.00  0.00     0.000 HD 
BRANCH   8  11
HETATM   11  C   UNL     1      -9.840   8.889  68.724  1.00  0.00    -0.173 A  
HETATM   12  C   UNL     1      -9.750  10.266  68.515  1.00  0.00    -0.161 A  
HETATM   13  N   UNL     1     -13.168   9.817  72.178  1.00  0.00    -0.448 NA 
HETATM   14  C   UNL     1     -10.598  11.120  69.239  1.00  0.00    -0.212 A  
HETATM   15  C   UNL     1     -10.694   8.427  69.741  1.00  0.00    -0.211 A  
HETATM   16  C   UNL     1     -11.498  10.665  70.198  1.00  0.00    -0.329 A  
HETATM   17  C   UNL     1     -11.514   9.302  70.503  1.00  0.00    -0.296 A  
HETATM   18  N   UNL     1     -12.287  11.553  70.810  1.00  0.00    -0.391 NA 
HETATM   19  C   UNL     1     -13.108  11.080  71.754  1.00  0.00    -0.449 A  
HETATM   20  C   UNL     1     -12.365   8.925  71.571  1.00  0.00    -0.324 A  
BRANCH  12  21
HETATM   21  O   UNL     1      -8.804  10.921  67.782  1.00  0.00    -0.132 OA 
BRANCH  21  22
HETATM   22  C   UNL     1      -9.027  11.288  66.425  1.00  0.00    -0.188 C  
HETATM   23  C   UNL     1     -10.762  11.541  64.779  1.00  0.00    -0.306 C  
HETATM   24  C   UNL     1      -9.657  12.677  66.445  1.00  0.00    -0.248 C  
HETATM   25  O   UNL     1     -10.322  12.838  65.194  1.00  0.00    -0.287 OA 
HETATM   26  C   UNL     1     -10.070  10.502  65.654  1.00  0.00    -0.333 C  
ENDBRANCH  21  22
ENDBRANCH  12  21
BRANCH  20  27
HETATM   27  N   UNL     1     -12.371   7.573  72.018  1.00  0.00    -0.386 NA 
HETATM   28  H   UNL     1     -13.260   7.080  71.927  1.00  0.00     0.000 HD 
BRANCH  27  29
HETATM   29  C   UNL     1     -11.304   6.823  72.572  1.00  0.00    -0.254 A  
HETATM   30  C   UNL     1     -11.055   5.484  72.235  1.00  0.00    -0.297 A  
HETATM   31  C   UNL     1      -9.959   4.802  72.771  1.00  0.00    -0.163 A  
HETATM   32 CL   UNL     1      -9.720   3.141  72.365  1.00  0.00    -0.202 Cl 
HETATM   33  C   UNL     1      -9.082   5.455  73.627  1.00  0.00    -0.124 A  
HETATM   34  C   UNL     1      -9.275   6.793  73.936  1.00  0.00    -0.205 A  
HETATM   35  F   UNL     1      -8.027   4.815  74.147  1.00  0.00    -0.096 F  
HETATM   36  C   UNL     1     -10.374   7.476  73.405  1.00  0.00    -0.405 A  
ENDBRANCH  27  29
ENDBRANCH  20  27
ENDBRANCH   8  11
ENDBRANCH   6   7
ENDBRANCH   4   5
ENDBRANCH   2   4
TORSDOF 8
ENDMDL
MODEL      102
REMARK 921   NORMALIZED FREE ENERGY PREDICTED BY IDOCK:   -5.01 KCAL/MOL
REMARK 922        TOTAL FREE ENERGY PREDICTED BY IDOCK:   -8.89 KCAL/MOL
REMARK 923 INTER-LIGAND FREE ENERGY PREDICTED BY IDOCK:   -7.89 KCAL/MOL
REMARK 924 INTRA-LIGAND FREE ENERGY PREDICTED BY IDOCK:   -1.01 KCAL/MOL
REMARK 927      BINDING AFFINITY PREDICTED BY RF-SCORE:    0.00 PKD
ROOT
HETATM    1  C   UNL     1     -12.313   6.146  72.392  1.00  0.00    -0.007 C  
HETATM    2  N   UNL     1     -11.063   6.172  73.161  1.00  0.00    -0.225 NA 
HETATM    3  C   UNL     1     -10.424   4.850  73.064  1.00  0.00    -0.199 C  
ENDROOT
BRANCH   2   4
HETATM    4  C   UNL     1     -10.141   7.193  72.634  1.00  0.00    -0.186 C  
BRANCH   4   5
HETATM    5  C   UNL     1     -10.274   7.532  71.176  1.00  0.00    -0.199 C  
HETATM    6  C   UNL     1     -10.250   6.689  70.128  1.00  0.00    -0.215 C  
BRANCH   6   7
HETATM    7  C   UNL     1     -10.385   7.242  68.753  1.00  0.00    -0.200 C  
HETATM    8  N   UNL     1      -9.696   8.429  68.565  1.00  0.00    -0.156 N  
HETATM    9  O   UNL     1     -10.992   6.622  67.885  1.00  0.00    -0.264 OA 
HETATM   10  H   UNL     1      -9.255   8.878  69.368  1.00  0.00     0.000 HD 
BRANCH   8  11
HETATM   11  C   UNL     1      -9.583   9.039  67.293  1.00  0.00    -0.159 A  
HETATM   12  C   UNL     1      -8.624   8.648  66.358  1.00  0.00    -0.119 A  
HETATM   13  N   UNL     1     -11.118  12.361  64.056  1.00  0.00    -0.361 NA 
HETATM   14  C   UNL     1      -8.619   9.259  65.092  1.00  0.00    -0.194 A  
HETATM   15  C   UNL     1     -10.429  10.114  66.965  1.00  0.00    -0.302 A  
HETATM   16  C   UNL     1      -9.500  10.275  64.735  1.00  0.00    -0.283 A  
HETATM   17  C   UNL     1     -10.387  10.759  65.700  1.00  0.00    -0.297 A  
HETATM   18  N   UNL     1      -9.441  10.770  63.495  1.00  0.00    -0.269 NA 
HETATM   19  C   UNL     1     -10.275  11.773  63.205  1.00  0.00    -0.416 A  
HETATM   20  C   UNL     1     -11.169  11.872  65.307  1.00  0.00    -0.295 A  
BRANCH  12  21
HETATM   21  O   UNL     1      -7.555   7.830  66.578  1.00  0.00    -0.092 OA 
BRANCH  21  22
HETATM   22  C   UNL     1      -7.655   6.416  66.451  1.00  0.00    -0.090 C  
HETATM   23  C   UNL     1      -8.048   4.669  64.845  1.00  0.00    -0.102 C  
HETATM   24  C   UNL     1      -6.374   5.945  65.768  1.00  0.00    -0.042 C  
HETATM   25  O   UNL     1      -6.662   4.670  65.200  1.00  0.00    -0.046 OA 
HETATM   26  C   UNL     1      -8.709   5.875  65.504  1.00  0.00    -0.133 C  
ENDBRANCH  21  22
ENDBRANCH  12  21
BRANCH  20  27
HETATM   27  N   UNL     1     -12.028  12.495  66.258  1.00  0.00    -0.577 NA 
HETATM   28  H   UNL     1     -12.989  12.154  66.276  1.00  0.00     0.000 HD 
BRANCH  27  29
HETATM   29  C   UNL     1     -11.722  13.525  67.180  1.00  0.00    -0.379 A  
HETATM   30  C   UNL     1     -11.864  13.375  68.569  1.00  0.00    -0.401 A  
HETATM   31  C   UNL     1     -11.500  14.404  69.442  1.00  0.00    -0.288 A  
HETATM   32 CL   UNL     1     -11.738  14.194  71.139  1.00  0.00    -0.202 Cl 
HETATM   33  C   UNL     1     -10.963  15.584  68.943  1.00  0.00    -0.266 A  
HETATM   34  C   UNL     1     -10.764  15.739  67.580  1.00  0.00    -0.310 A  
HETATM   35  F   UNL     1     -10.609  16.579  69.768  1.00  0.00    -0.282 F  
HETATM   36  C   UNL     1     -11.132  14.712  66.704  1.00  0.00    -0.334 A  
ENDBRANCH  27  29
ENDBRANCH  20  27
ENDBRANCH   8  11
ENDBRANCH   6   7
ENDBRANCH   4   5
ENDBRANCH   2   4
TORSDOF 8
ENDMDL
MODEL      103
REMARK 921   NORMALIZED FREE ENERGY PREDICTED BY IDOCK:   -5.01 KCAL/MOL
REMARK 922        TOTAL FREE ENERGY PREDICTED BY IDOCK:   -8.89 KCAL/MOL
REMARK 923 INTER-LIGAND FREE ENERGY PREDICTED BY IDOCK:   -8.54 KCAL/MOL
REMARK 924 INTRA-LIGAND FREE ENERGY PREDICTED BY IDOCK:   -0.35 KCAL/MOL
REMARK 927      BINDING AFFINITY PREDICTED BY RF-SCORE:    0.00 PKD
ROOT
HETATM    1  C   UNL     1      -9.711  20.319  67.949  1.00  0.00    -0.334 C  
HETATM    2  N   UNL     1      -9.648  20.071  66.503  1.00  0.00    -0.404 NA 
HETATM    3  C   UNL     1      -8.250  19.806  66.131  1.00  0.00    -0.344 C  
ENDROOT
BRANCH   2   4
HETATM    4  C   UNL     1     -10.475  18.911  66.132  1.00  0.00    -0.457 C  
BRANCH   4   5
HETATM    5  C   UNL     1     -10.126  17.600  66.779  1.00  0.00    -0.334 C  
HETATM    6  C   UNL     1     -10.475  17.166  68.003  1.00  0.00    -0.369 C  
BRANCH   6   7
HETATM    7  C   UNL     1     -10.006  15.829  68.456  1.00  0.00    -0.208 C  
HETATM    8  N   UNL     1      -8.916  15.355  67.743  1.00  0.00    -0.172 N  
HETATM    9  O   UNL     1     -10.517  15.280  69.427  1.00  0.00    -0.226 OA 
HETATM   10  H   UNL     1      -8.593  15.877  66.928  1.00  0.00     0.000 HD 
BRANCH   8  11
HETATM   11  C   UNL     1      -8.235  14.170  68.111  1.00  0.00    -0.149 A  
HETATM   12  C   UNL     1      -6.902  14.171  68.524  1.00  0.00    -0.102 A  
HETATM   13  N   UNL     1      -8.232   9.324  68.730  1.00  0.00    -0.111 NA 
HETATM   14  C   UNL     1      -6.317  12.961  68.935  1.00  0.00    -0.090 A  
HETATM   15  C   UNL     1      -8.898  12.933  68.011  1.00  0.00    -0.195 A  
HETATM   16  C   UNL     1      -6.989  11.743  68.907  1.00  0.00    -0.109 A  
HETATM   17  C   UNL     1      -8.283  11.708  68.383  1.00  0.00    -0.155 A  
HETATM   18  N   UNL     1      -6.358  10.652  69.351  1.00  0.00    -0.053 NA 
HETATM   19  C   UNL     1      -7.024   9.495  69.267  1.00  0.00    -0.050 A  
HETATM   20  C   UNL     1      -8.862  10.420  68.272  1.00  0.00    -0.135 A  
BRANCH  12  21
HETATM   21  O   UNL     1      -6.018  15.206  68.431  1.00  0.00    -0.092 OA 
BRANCH  21  22
HETATM   22  C   UNL     1      -6.294  16.481  69.000  1.00  0.00    -0.169 C  
HETATM   23  C   UNL     1      -5.232  18.382  70.021  1.00  0.00    -0.220 C  
HETATM   24  C   UNL     1      -5.847  17.523  67.979  1.00  0.00    -0.148 C  
HETATM   25  O   UNL     1      -5.650  18.737  68.699  1.00  0.00    -0.193 OA 
HETATM   26  C   UNL     1      -5.482  16.891  70.214  1.00  0.00    -0.221 C  
ENDBRANCH  21  22
ENDBRANCH  12  21
BRANCH  20  27
HETATM   27  N   UNL     1     -10.138  10.277  67.657  1.00  0.00    -0.182 NA 
HETATM   28  H   UNL     1     -10.779   9.625  68.111  1.00  0.00     0.000 HD 
BRANCH  27  29
HETATM   29  C   UNL     1     -10.635  10.921  66.496  1.00  0.00    -0.237 A  
HETATM   30  C   UNL     1     -11.500  12.025  66.547  1.00  0.00    -0.413 A  
HETATM   31  C   UNL     1     -11.923  12.659  65.375  1.00  0.00    -0.446 A  
HETATM   32 CL   UNL     1     -13.025  13.983  65.482  1.00  0.00    -0.478 Cl 
HETATM   33  C   UNL     1     -11.465  12.216  64.139  1.00  0.00    -0.387 A  
HETATM   34  C   UNL     1     -10.570  11.161  64.064  1.00  0.00    -0.436 A  
HETATM   35  F   UNL     1     -11.861  12.814  63.008  1.00  0.00    -0.552 F  
HETATM   36  C   UNL     1     -10.151  10.522  65.236  1.00  0.00    -0.369 A  
ENDBRANCH  27  29
ENDBRANCH  20  27
ENDBRANCH   8  11
ENDBRANCH   6   7
ENDBRANCH   4   5
ENDBRANCH   2   4
TORSDOF 8
ENDMDL
MODEL      104
REMARK 921   NORMALIZED FREE ENERGY PREDICTED BY IDOCK:   -5.00 KCAL/MOL
REMARK 922        TOTAL FREE ENERGY PREDICTED BY IDOCK:   -8.88 KCAL/MOL
REMARK 923 INTER-LIGAND FREE ENERGY PREDICTED BY IDOCK:   -7.28 KCAL/MOL
REMARK 924 INTRA-LIGAND FREE ENERGY PREDICTED BY IDOCK:   -1.60 KCAL/MOL
REMARK 927      BINDING AFFINITY PREDICTED BY RF-SCORE:    0.00 PKD
ROOT
HETATM    1  C   UNL     1      -5.935   5.322  63.921  1.00  0.00    -0.021 C  
HETATM    2  N   UNL     1      -6.601   5.690  62.665  1.00  0.00    -0.028 NA 
HETATM    3  C   UNL     1      -7.787   4.838  62.494  1.00  0.00    -0.064 C  
ENDROOT
BRANCH   2   4
HETATM    4  C   UNL     1      -7.019   7.102  62.685  1.00  0.00    -0.061 C  
BRANCH   4   5
HETATM    5  C   UNL     1      -7.474   7.651  64.008  1.00  0.00    -0.107 C  
HETATM    6  C   UNL     1      -7.081   8.788  64.609  1.00  0.00    -0.088 C  
BRANCH   6   7
HETATM    7  C   UNL     1      -7.652   9.139  65.937  1.00  0.00    -0.095 C  
HETATM    8  N   UNL     1      -8.869   8.528  66.193  1.00  0.00    -0.156 N  
HETATM    9  O   UNL     1      -7.025   9.841  66.725  1.00  0.00    -0.083 OA 
HETATM   10  H   UNL     1      -9.321   7.994  65.451  1.00  0.00     0.000 HD 
BRANCH   8  11
HETATM   11  C   UNL     1      -9.506   8.622  67.453  1.00  0.00    -0.150 A  
HETATM   12  C   UNL     1      -9.352   7.651  68.444  1.00  0.00    -0.146 A  
HETATM   13  N   UNL     1     -12.450  11.023  70.526  1.00  0.00    -0.342 NA 
HETATM   14  C   UNL     1      -9.965   7.849  69.692  1.00  0.00    -0.191 A  
HETATM   15  C   UNL     1     -10.372   9.701  67.711  1.00  0.00    -0.286 A  
HETATM   16  C   UNL     1     -10.766   8.951  69.980  1.00  0.00    -0.228 A  
HETATM   17  C   UNL     1     -11.027   9.870  68.960  1.00  0.00    -0.223 A  
HETATM   18  N   UNL     1     -11.278   9.069  71.208  1.00  0.00    -0.287 NA 
HETATM   19  C   UNL     1     -12.075  10.119  71.431  1.00  0.00    -0.382 A  
HETATM   20  C   UNL     1     -11.944  10.898  69.286  1.00  0.00    -0.310 A  
BRANCH  12  21
HETATM   21  O   UNL     1      -8.787   6.418  68.298  1.00  0.00    -0.117 OA 
BRANCH  21  22
HETATM   22  C   UNL     1      -9.481   5.345  67.670  1.00  0.00    -0.122 C  
HETATM   23  C   UNL     1      -9.135   3.358  66.361  1.00  0.00    -0.158 C  
HETATM   24  C   UNL     1      -9.247   4.108  68.531  1.00  0.00    -0.145 C  
HETATM   25  O   UNL     1      -9.491   2.980  67.695  1.00  0.00    -0.210 OA 
HETATM   26  C   UNL     1      -8.961   4.871  66.327  1.00  0.00    -0.121 C  
ENDBRANCH  21  22
ENDBRANCH  12  21
BRANCH  20  27
HETATM   27  N   UNL     1     -12.348  11.821  68.279  1.00  0.00    -0.241 NA 
HETATM   28  H   UNL     1     -13.058  11.484  67.628  1.00  0.00     0.000 HD 
BRANCH  27  29
HETATM   29  C   UNL     1     -11.893  13.145  68.063  1.00  0.00    -0.358 A  
HETATM   30  C   UNL     1     -11.511  13.626  66.801  1.00  0.00    -0.370 A  
HETATM   31  C   UNL     1     -11.118  14.956  66.630  1.00  0.00    -0.329 A  
HETATM   32 CL   UNL     1     -10.610  15.491  65.069  1.00  0.00    -0.449 Cl 
HETATM   33  C   UNL     1     -11.127  15.831  67.710  1.00  0.00    -0.313 A  
HETATM   34  C   UNL     1     -11.549  15.395  68.956  1.00  0.00    -0.361 A  
HETATM   35  F   UNL     1     -10.754  17.108  67.561  1.00  0.00    -0.337 F  
HETATM   36  C   UNL     1     -11.938  14.063  69.130  1.00  0.00    -0.400 A  
ENDBRANCH  27  29
ENDBRANCH  20  27
ENDBRANCH   8  11
ENDBRANCH   6   7
ENDBRANCH   4   5
ENDBRANCH   2   4
TORSDOF 8
ENDMDL
MODEL      105
REMARK 921   NORMALIZED FREE ENERGY PREDICTED BY IDOCK:   -4.96 KCAL/MOL
REMARK 922        TOTAL FREE ENERGY PREDICTED BY IDOCK:   -8.81 KCAL/MOL
REMARK 923 INTER-LIGAND FREE ENERGY PREDICTED BY IDOCK:   -7.56 KCAL/MOL
REMARK 924 INTRA-LIGAND FREE ENERGY PREDICTED BY IDOCK:   -1.25 KCAL/MOL
REMARK 927      BINDING AFFINITY PREDICTED BY RF-SCORE:    0.00 PKD
ROOT
HETATM    1  C   UNL     1      -5.907   4.526  64.313  1.00  0.00    -0.017 C  
HETATM    2  N   UNL     1      -6.439   5.883  64.492  1.00  0.00    -0.033 NA 
HETATM    3  C   UNL     1      -7.852   5.786  64.889  1.00  0.00    -0.113 C  
ENDROOT
BRANCH   2   4
HETATM    4  C   UNL     1      -5.693   6.608  65.534  1.00  0.00    -0.030 C  
BRANCH   4   5
HETATM    5  C   UNL     1      -6.498   7.166  66.674  1.00  0.00    -0.054 C  
HETATM    6  C   UNL     1      -6.047   7.628  67.853  1.00  0.00    -0.044 C  
BRANCH   6   7
HETATM    7  C   UNL     1      -7.027   8.126  68.856  1.00  0.00    -0.062 C  
HETATM    8  N   UNL     1      -8.317   7.668  68.643  1.00  0.00    -0.128 N  
HETATM    9  O   UNL     1      -6.659   8.807  69.809  1.00  0.00    -0.040 OA 
HETATM   10  H   UNL     1      -8.520   7.137  67.795  1.00  0.00     0.000 HD 
BRANCH   8  11
HETATM   11  C   UNL     1      -9.364   7.914  69.563  1.00  0.00    -0.156 A  
HETATM   12  C   UNL     1      -9.605   7.086  70.660  1.00  0.00    -0.165 A  
HETATM   13  N   UNL     1     -13.150  10.637  71.020  1.00  0.00    -0.341 NA 
HETATM   14  C   UNL     1     -10.622   7.434  71.565  1.00  0.00    -0.226 A  
HETATM   15  C   UNL     1     -10.233   8.999  69.347  1.00  0.00    -0.206 A  
HETATM   16  C   UNL     1     -11.441   8.547  71.396  1.00  0.00    -0.287 A  
HETATM   17  C   UNL     1     -11.291   9.317  70.241  1.00  0.00    -0.238 A  
HETATM   18  N   UNL     1     -12.359   8.815  72.330  1.00  0.00    -0.384 NA 
HETATM   19  C   UNL     1     -13.153   9.868  72.110  1.00  0.00    -0.403 A  
HETATM   20  C   UNL     1     -12.234  10.360  70.075  1.00  0.00    -0.189 A  
BRANCH  12  21
HETATM   21  O   UNL     1      -9.061   5.856  70.891  1.00  0.00    -0.147 OA 
BRANCH  21  22
HETATM   22  C   UNL     1      -9.746   4.657  70.549  1.00  0.00    -0.214 C  
HETATM   23  C   UNL     1      -9.380   2.364  69.924  1.00  0.00    -0.104 C  
HETATM   24  C   UNL     1      -9.635   3.730  71.755  1.00  0.00    -0.156 C  
HETATM   25  O   UNL     1      -9.858   2.407  71.272  1.00  0.00    -0.150 OA 
HETATM   26  C   UNL     1      -9.140   3.795  69.458  1.00  0.00    -0.200 C  
ENDBRANCH  21  22
ENDBRANCH  12  21
BRANCH  20  27
HETATM   27  N   UNL     1     -12.220  11.133  68.879  1.00  0.00    -0.638 NA 
HETATM   28  H   UNL     1     -12.431  10.624  68.020  1.00  0.00     0.000 HD 
BRANCH  27  29
HETATM   29  C   UNL     1     -11.952  12.516  68.726  1.00  0.00    -0.238 A  
HETATM   30  C   UNL     1     -11.763  13.124  67.475  1.00  0.00    -0.414 A  
HETATM   31  C   UNL     1     -11.552  14.502  67.373  1.00  0.00    -0.385 A  
HETATM   32 CL   UNL     1     -11.276  15.199  65.818  1.00  0.00    -0.321 Cl 
HETATM   33  C   UNL     1     -11.556  15.295  68.514  1.00  0.00    -0.352 A  
HETATM   34  C   UNL     1     -11.792  14.727  69.756  1.00  0.00    -0.362 A  
HETATM   35  F   UNL     1     -11.356  16.616  68.431  1.00  0.00    -0.360 F  
HETATM   36  C   UNL     1     -11.998  13.348  69.861  1.00  0.00    -0.408 A  
ENDBRANCH  27  29
ENDBRANCH  20  27
ENDBRANCH   8  11
ENDBRANCH   6   7
ENDBRANCH   4   5
ENDBRANCH   2   4
TORSDOF 8
ENDMDL
MODEL      106
REMARK 921   NORMALIZED FREE ENERGY PREDICTED BY IDOCK:   -4.90 KCAL/MOL
REMARK 922        TOTAL FREE ENERGY PREDICTED BY IDOCK:   -8.72 KCAL/MOL
REMARK 923 INTER-LIGAND FREE ENERGY PREDICTED BY IDOCK:   -8.10 KCAL/MOL
REMARK 924 INTRA-LIGAND FREE ENERGY PREDICTED BY IDOCK:   -0.62 KCAL/MOL
REMARK 927      BINDING AFFINITY PREDICTED BY RF-SCORE:    0.00 PKD
ROOT
HETATM    1  C   UNL     1     -10.422  16.932  69.307  1.00  0.00    -0.319 C  
HETATM    2  N   UNL     1     -11.618  16.161  68.942  1.00  0.00    -0.341 NA 
HETATM    3  C   UNL     1     -11.380  15.511  67.644  1.00  0.00    -0.260 C  
ENDROOT
BRANCH   2   4
HETATM    4  C   UNL     1     -11.909  15.130  69.953  1.00  0.00    -0.330 C  
BRANCH   4   5
HETATM    5  C   UNL     1     -11.803  13.699  69.504  1.00  0.00    -0.394 C  
HETATM    6  C   UNL     1     -12.067  12.590  70.218  1.00  0.00    -0.373 C  
BRANCH   6   7
HETATM    7  C   UNL     1     -11.881  11.259  69.579  1.00  0.00    -0.357 C  
HETATM    8  N   UNL     1     -10.886  10.497  70.171  1.00  0.00    -0.422 N  
HETATM    9  O   UNL     1     -12.620  10.889  68.672  1.00  0.00    -0.255 OA 
HETATM   10  H   UNL     1     -10.305  10.918  70.896  1.00  0.00     0.000 HD 
BRANCH   8  11
HETATM   11  C   UNL     1     -10.651   9.151  69.801  1.00  0.00    -0.229 A  
HETATM   12  C   UNL     1     -11.218   8.076  70.488  1.00  0.00    -0.250 A  
HETATM   13  N   UNL     1      -8.488   5.897  66.868  1.00  0.00    -0.108 NA 
HETATM   14  C   UNL     1     -10.988   6.772  70.019  1.00  0.00    -0.344 A  
HETATM   15  C   UNL     1      -9.774   8.870  68.737  1.00  0.00    -0.170 A  
HETATM   16  C   UNL     1     -10.178   6.490  68.923  1.00  0.00    -0.181 A  
HETATM   17  C   UNL     1      -9.509   7.545  68.299  1.00  0.00    -0.146 A  
HETATM   18  N   UNL     1     -10.048   5.219  68.531  1.00  0.00    -0.174 NA 
HETATM   19  C   UNL     1      -9.229   4.986  67.501  1.00  0.00    -0.120 A  
HETATM   20  C   UNL     1      -8.609   7.174  67.270  1.00  0.00    -0.121 A  
BRANCH  12  21
HETATM   21  O   UNL     1     -11.863   8.124  71.689  1.00  0.00    -0.269 OA 
BRANCH  21  22
HETATM   22  C   UNL     1     -11.210   7.777  72.905  1.00  0.00    -0.376 C  
HETATM   23  C   UNL     1      -9.661   6.201  73.854  1.00  0.00    -0.169 C  
HETATM   24  C   UNL     1      -9.757   8.223  72.766  1.00  0.00    -0.266 C  
HETATM   25  O   UNL     1      -9.008   7.467  73.713  1.00  0.00    -0.187 OA 
HETATM   26  C   UNL     1     -11.036   6.300  73.205  1.00  0.00    -0.251 C  
ENDBRANCH  21  22
ENDBRANCH  12  21
BRANCH  20  27
HETATM   27  N   UNL     1      -7.809   8.173  66.646  1.00  0.00    -0.093 NA 
HETATM   28  H   UNL     1      -6.866   8.284  67.021  1.00  0.00     0.000 HD 
BRANCH  27  29
HETATM   29  C   UNL     1      -8.150   9.034  65.573  1.00  0.00    -0.110 A  
HETATM   30  C   UNL     1      -7.214   9.490  64.631  1.00  0.00    -0.113 A  
HETATM   31  C   UNL     1      -7.609  10.296  63.561  1.00  0.00    -0.104 A  
HETATM   32 CL   UNL     1      -6.416  10.874  62.455  1.00  0.00    -0.103 Cl 
HETATM   33  C   UNL     1      -8.947  10.634  63.399  1.00  0.00    -0.219 A  
HETATM   34  C   UNL     1      -9.900  10.155  64.284  1.00  0.00    -0.270 A  
HETATM   35  F   UNL     1      -9.341  11.406  62.377  1.00  0.00    -0.358 F  
HETATM   36  C   UNL     1      -9.505   9.352  65.360  1.00  0.00    -0.322 A  
ENDBRANCH  27  29
ENDBRANCH  20  27
ENDBRANCH   8  11
ENDBRANCH   6   7
ENDBRANCH   4   5
ENDBRANCH   2   4
TORSDOF 8
ENDMDL
MODEL      107
REMARK 921   NORMALIZED FREE ENERGY PREDICTED BY IDOCK:   -4.86 KCAL/MOL
REMARK 922        TOTAL FREE ENERGY PREDICTED BY IDOCK:   -8.68 KCAL/MOL
REMARK 923 INTER-LIGAND FREE ENERGY PREDICTED BY IDOCK:   -8.36 KCAL/MOL
REMARK 924 INTRA-LIGAND FREE ENERGY PREDICTED BY IDOCK:   -0.31 KCAL/MOL
REMARK 927      BINDING AFFINITY PREDICTED BY RF-SCORE:    0.00 PKD
ROOT
HETATM    1  C   UNL     1     -10.283  19.350  68.577  1.00  0.00    -0.398 C  
HETATM    2  N   UNL     1      -9.929  17.940  68.368  1.00  0.00    -0.346 NA 
HETATM    3  C   UNL     1      -8.507  17.758  68.697  1.00  0.00    -0.269 C  
ENDROOT
BRANCH   2   4
HETATM    4  C   UNL     1     -10.741  17.060  69.226  1.00  0.00    -0.226 C  
BRANCH   4   5
HETATM    5  C   UNL     1     -10.847  15.621  68.807  1.00  0.00    -0.262 C  
HETATM    6  C   UNL     1     -11.496  14.625  69.435  1.00  0.00    -0.330 C  
BRANCH   6   7
HETATM    7  C   UNL     1     -11.461  13.257  68.849  1.00  0.00    -0.298 C  
HETATM    8  N   UNL     1     -10.469  13.090  67.896  1.00  0.00    -0.224 N  
HETATM    9  O   UNL     1     -12.207  12.376  69.266  1.00  0.00    -0.195 OA 
HETATM   10  H   UNL     1      -9.928  13.902  67.597  1.00  0.00     0.000 HD 
BRANCH   8  11
HETATM   11  C   UNL     1     -10.181  11.828  67.325  1.00  0.00    -0.203 A  
HETATM   12  C   UNL     1     -10.644  11.454  66.063  1.00  0.00    -0.266 A  
HETATM   13  N   UNL     1      -8.052   7.441  67.637  1.00  0.00    -0.113 NA 
HETATM   14  C   UNL     1     -10.261  10.209  65.538  1.00  0.00    -0.288 A  
HETATM   15  C   UNL     1      -9.445  10.885  68.067  1.00  0.00    -0.167 A  
HETATM   16  C   UNL     1      -9.473   9.299  66.238  1.00  0.00    -0.224 A  
HETATM   17  C   UNL     1      -9.102   9.608  67.548  1.00  0.00    -0.142 A  
HETATM   18  N   UNL     1      -9.132   8.153  65.641  1.00  0.00    -0.097 NA 
HETATM   19  C   UNL     1      -8.411   7.289  66.361  1.00  0.00    -0.124 A  
HETATM   20  C   UNL     1      -8.406   8.589  68.242  1.00  0.00    -0.124 A  
BRANCH  12  21
HETATM   21  O   UNL     1     -11.581  12.103  65.312  1.00  0.00    -0.344 OA 
BRANCH  21  22
HETATM   22  C   UNL     1     -11.258  13.255  64.542  1.00  0.00    -0.362 C  
HETATM   23  C   UNL     1     -11.404  15.656  64.550  1.00  0.00    -0.320 C  
HETATM   24  C   UNL     1     -10.061  13.915  65.222  1.00  0.00    -0.303 C  
HETATM   25  O   UNL     1     -10.046  15.272  64.787  1.00  0.00    -0.224 OA 
HETATM   26  C   UNL     1     -12.259  14.394  64.540  1.00  0.00    -0.483 C  
ENDBRANCH  21  22
ENDBRANCH  12  21
BRANCH  20  27
HETATM   27  N   UNL     1      -8.075   8.776  69.615  1.00  0.00    -0.098 NA 
HETATM   28  H   UNL     1      -7.241   9.335  69.797  1.00  0.00     0.000 HD 
BRANCH  27  29
HETATM   29  C   UNL     1      -8.752   8.288  70.760  1.00  0.00    -0.140 A  
HETATM   30  C   UNL     1      -8.291   7.196  71.513  1.00  0.00    -0.111 A  
HETATM   31  C   UNL     1      -8.967   6.784  72.664  1.00  0.00    -0.129 A  
HETATM   32 CL   UNL     1      -8.392   5.406  73.532  1.00  0.00    -0.113 Cl 
HETATM   33  C   UNL     1     -10.094   7.472  73.096  1.00  0.00    -0.308 A  
HETATM   34  C   UNL     1     -10.540   8.585  72.400  1.00  0.00    -0.368 A  
HETATM   35  F   UNL     1     -10.752   7.089  74.198  1.00  0.00    -0.390 F  
HETATM   36  C   UNL     1      -9.869   8.996  71.244  1.00  0.00    -0.376 A  
ENDBRANCH  27  29
ENDBRANCH  20  27
ENDBRANCH   8  11
ENDBRANCH   6   7
ENDBRANCH   4   5
ENDBRANCH   2   4
TORSDOF 8
ENDMDL
MODEL      108
REMARK 921   NORMALIZED FREE ENERGY PREDICTED BY IDOCK:   -4.86 KCAL/MOL
REMARK 922        TOTAL FREE ENERGY PREDICTED BY IDOCK:   -8.67 KCAL/MOL
REMARK 923 INTER-LIGAND FREE ENERGY PREDICTED BY IDOCK:   -7.44 KCAL/MOL
REMARK 924 INTRA-LIGAND FREE ENERGY PREDICTED BY IDOCK:   -1.23 KCAL/MOL
REMARK 927      BINDING AFFINITY PREDICTED BY RF-SCORE:    0.00 PKD
ROOT
HETATM    1  C   UNL     1      -6.359  14.940  71.479  1.00  0.00     0.665 C  
HETATM    2  N   UNL     1      -5.181  14.165  71.892  1.00  0.00    -0.175 NA 
HETATM    3  C   UNL     1      -5.235  13.968  73.349  1.00  0.00    -0.298 C  
ENDROOT
BRANCH   2   4
HETATM    4  C   UNL     1      -5.156  12.851  71.228  1.00  0.00    -0.171 C  
BRANCH   4   5
HETATM    5  C   UNL     1      -5.834  12.759  69.890  1.00  0.00    -0.134 C  
HETATM    6  C   UNL     1      -6.140  11.650  69.194  1.00  0.00    -0.067 C  
BRANCH   6   7
HETATM    7  C   UNL     1      -6.805  11.787  67.870  1.00  0.00    -0.077 C  
HETATM    8  N   UNL     1      -8.152  11.464  67.892  1.00  0.00    -0.121 N  
HETATM    9  O   UNL     1      -6.192  12.229  66.903  1.00  0.00    -0.184 OA 
HETATM   10  H   UNL     1      -8.552  11.069  68.744  1.00  0.00     0.000 HD 
BRANCH   8  11
HETATM   11  C   UNL     1      -8.991  11.663  66.771  1.00  0.00    -0.189 A  
HETATM   12  C   UNL     1      -9.073  10.744  65.724  1.00  0.00    -0.188 A  
HETATM   13  N   UNL     1     -12.238  14.411  64.365  1.00  0.00    -0.574 NA 
HETATM   14  C   UNL     1      -9.979  10.984  64.677  1.00  0.00    -0.357 A  
HETATM   15  C   UNL     1      -9.737  12.852  66.669  1.00  0.00    -0.254 A  
HETATM   16  C   UNL     1     -10.773  12.124  64.605  1.00  0.00    -0.304 A  
HETATM   17  C   UNL     1     -10.616  13.109  65.583  1.00  0.00    -0.289 A  
HETATM   18  N   UNL     1     -11.630  12.246  63.587  1.00  0.00    -0.460 NA 
HETATM   19  C   UNL     1     -12.345  13.375  63.532  1.00  0.00    -0.326 A  
HETATM   20  C   UNL     1     -11.366  14.294  65.383  1.00  0.00    -0.329 A  
BRANCH  12  21
HETATM   21  O   UNL     1      -8.244   9.683  65.503  1.00  0.00    -0.119 OA 
BRANCH  21  22
HETATM   22  C   UNL     1      -8.747   8.364  65.323  1.00  0.00    -0.113 C  
HETATM   23  C   UNL     1      -8.075   6.055  65.292  1.00  0.00    -0.134 C  
HETATM   24  C   UNL     1      -8.791   7.720  66.706  1.00  0.00    -0.139 C  
HETATM   25  O   UNL     1      -8.805   6.310  66.497  1.00  0.00    -0.128 OA 
HETATM   26  C   UNL     1      -7.872   7.382  64.570  1.00  0.00    -0.129 C  
ENDBRANCH  21  22
ENDBRANCH  12  21
BRANCH  20  27
HETATM   27  N   UNL     1     -11.194  15.391  66.274  1.00  0.00    -0.230 NA 
HETATM   28  H   UNL     1     -11.875  15.459  67.030  1.00  0.00     0.000 HD 
BRANCH  27  29
HETATM   29  C   UNL     1     -10.199  16.400  66.248  1.00  0.00    -0.330 A  
HETATM   30  C   UNL     1     -10.494  17.766  66.377  1.00  0.00    -0.297 A  
HETATM   31  C   UNL     1      -9.473  18.721  66.396  1.00  0.00    -0.322 A  
HETATM   32 CL   UNL     1      -9.885  20.394  66.507  1.00  0.00    -0.513 Cl 
HETATM   33  C   UNL     1      -8.145  18.323  66.317  1.00  0.00    -0.223 A  
HETATM   34  C   UNL     1      -7.823  16.976  66.241  1.00  0.00    -0.346 A  
HETATM   35  F   UNL     1      -7.156  19.226  66.335  1.00  0.00    -0.200 F  
HETATM   36  C   UNL     1      -8.844  16.020  66.216  1.00  0.00    -0.379 A  
ENDBRANCH  27  29
ENDBRANCH  20  27
ENDBRANCH   8  11
ENDBRANCH   6   7
ENDBRANCH   4   5
ENDBRANCH   2   4
TORSDOF 8
ENDMDL
MODEL      109
REMARK 921   NORMALIZED FREE ENERGY PREDICTED BY IDOCK:   -4.86 KCAL/MOL
REMARK 922        TOTAL FREE ENERGY PREDICTED BY IDOCK:   -8.67 KCAL/MOL
REMARK 923 INTER-LIGAND FREE ENERGY PREDICTED BY IDOCK:   -7.26 KCAL/MOL
REMARK 924 INTRA-LIGAND FREE ENERGY PREDICTED BY IDOCK:   -1.40 KCAL/MOL
REMARK 927      BINDING AFFINITY PREDICTED BY RF-SCORE:    0.00 PKD
ROOT
HETATM    1  C   UNL     1      -7.481  15.519  67.295  1.00  0.00    -0.223 C  
HETATM    2  N   UNL     1      -6.454  16.281  68.017  1.00  0.00    -0.124 NA 
HETATM    3  C   UNL     1      -7.120  17.261  68.888  1.00  0.00    -0.242 C  
ENDROOT
BRANCH   2   4
HETATM    4  C   UNL     1      -5.619  15.391  68.842  1.00  0.00    -0.098 C  
BRANCH   4   5
HETATM    5  C   UNL     1      -6.006  13.939  68.867  1.00  0.00    -0.084 C  
HETATM    6  C   UNL     1      -5.446  12.949  69.586  1.00  0.00    -0.088 C  
BRANCH   6   7
HETATM    7  C   UNL     1      -5.980  11.567  69.449  1.00  0.00    -0.076 C  
HETATM    8  N   UNL     1      -7.332  11.465  69.736  1.00  0.00    -0.340 N  
HETATM    9  O   UNL     1      -5.267  10.656  69.038  1.00  0.00    -0.042 OA 
HETATM   10  H   UNL     1      -7.821  12.280  70.107  1.00  0.00     0.000 HD 
BRANCH   8  11
HETATM   11  C   UNL     1      -8.056  10.267  69.530  1.00  0.00    -0.162 A  
HETATM   12  C   UNL     1      -8.188   9.293  70.520  1.00  0.00    -0.191 A  
HETATM   13  N   UNL     1     -10.725   7.399  66.610  1.00  0.00    -0.127 NA 
HETATM   14  C   UNL     1      -8.978   8.161  70.259  1.00  0.00    -0.146 A  
HETATM   15  C   UNL     1      -8.625  10.012  68.268  1.00  0.00    -0.115 A  
HETATM   16  C   UNL     1      -9.604   7.935  69.037  1.00  0.00    -0.155 A  
HETATM   17  C   UNL     1      -9.383   8.842  67.997  1.00  0.00    -0.153 A  
HETATM   18  N   UNL     1     -10.363   6.845  68.896  1.00  0.00    -0.181 NA 
HETATM   19  C   UNL     1     -10.913   6.644  67.694  1.00  0.00    -0.309 A  
HETATM   20  C   UNL     1      -9.950   8.489  66.748  1.00  0.00    -0.281 A  
BRANCH  12  21
HETATM   21  O   UNL     1      -7.498   9.224  71.695  1.00  0.00    -0.339 OA 
BRANCH  21  22
HETATM   22  C   UNL     1      -6.967   7.996  72.181  1.00  0.00    -0.077 C  
HETATM   23  C   UNL     1      -5.205   7.089  73.543  1.00  0.00    -0.042 C  
HETATM   24  C   UNL     1      -7.350   7.907  73.655  1.00  0.00    -0.136 C  
HETATM   25  O   UNL     1      -6.442   6.986  74.255  1.00  0.00    -0.078 OA 
HETATM   26  C   UNL     1      -5.457   7.875  72.262  1.00  0.00    -0.036 C  
ENDBRANCH  21  22
ENDBRANCH  12  21
BRANCH  20  27
HETATM   27  N   UNL     1      -9.693   9.302  65.608  1.00  0.00    -0.413 NA 
HETATM   28  H   UNL     1      -8.947   8.978  64.991  1.00  0.00     0.000 HD 
BRANCH  27  29
HETATM   29  C   UNL     1     -10.336  10.503  65.218  1.00  0.00    -0.229 A  
HETATM   30  C   UNL     1     -10.977  11.358  66.128  1.00  0.00    -0.294 A  
HETATM   31  C   UNL     1     -11.554  12.557  65.702  1.00  0.00    -0.389 A  
HETATM   32 CL   UNL     1     -12.373  13.553  66.849  1.00  0.00    -0.351 Cl 
HETATM   33  C   UNL     1     -11.474  12.933  64.367  1.00  0.00    -0.357 A  
HETATM   34  C   UNL     1     -10.802  12.133  63.456  1.00  0.00    -0.518 A  
HETATM   35  F   UNL     1     -12.021  14.080  63.943  1.00  0.00    -0.446 F  
HETATM   36  C   UNL     1     -10.229  10.929  63.880  1.00  0.00    -0.418 A  
ENDBRANCH  27  29
ENDBRANCH  20  27
ENDBRANCH   8  11
ENDBRANCH   6   7
ENDBRANCH   4   5
ENDBRANCH   2   4
TORSDOF 8
ENDMDL
MODEL      110
REMARK 921   NORMALIZED FREE ENERGY PREDICTED BY IDOCK:   -4.83 KCAL/MOL
REMARK 922        TOTAL FREE ENERGY PREDICTED BY IDOCK:   -8.63 KCAL/MOL
REMARK 923 INTER-LIGAND FREE ENERGY PREDICTED BY IDOCK:   -8.15 KCAL/MOL
REMARK 924 INTRA-LIGAND FREE ENERGY PREDICTED BY IDOCK:   -0.49 KCAL/MOL
REMARK 927      BINDING AFFINITY PREDICTED BY RF-SCORE:    0.00 PKD
ROOT
HETATM    1  C   UNL     1     -12.125   5.692  72.657  1.00  0.00     0.024 C  
HETATM    2  N   UNL     1     -11.086   6.662  72.288  1.00  0.00    -0.248 NA 
HETATM    3  C   UNL     1      -9.769   6.028  72.461  1.00  0.00    -0.157 C  
ENDROOT
BRANCH   2   4
HETATM    4  C   UNL     1     -11.236   7.088  70.886  1.00  0.00    -0.282 C  
BRANCH   4   5
HETATM    5  C   UNL     1     -10.899   8.519  70.578  1.00  0.00    -0.252 C  
HETATM    6  C   UNL     1     -10.760   9.092  69.368  1.00  0.00    -0.202 C  
BRANCH   6   7
HETATM    7  C   UNL     1     -10.406  10.535  69.289  1.00  0.00    -0.227 C  
HETATM    8  N   UNL     1      -9.436  10.814  68.339  1.00  0.00    -0.166 N  
HETATM    9  O   UNL     1     -11.005  11.366  69.964  1.00  0.00    -0.091 OA 
HETATM   10  H   UNL     1      -8.975  10.040  67.860  1.00  0.00     0.000 HD 
BRANCH   8  11
HETATM   11  C   UNL     1      -9.064  12.140  68.012  1.00  0.00    -0.190 A  
HETATM   12  C   UNL     1      -7.776  12.474  67.593  1.00  0.00    -0.151 A  
HETATM   13  N   UNL     1     -10.233  16.864  67.573  1.00  0.00    -0.287 NA 
HETATM   14  C   UNL     1      -7.504  13.802  67.224  1.00  0.00    -0.048 A  
HETATM   15  C   UNL     1     -10.003  13.177  68.161  1.00  0.00    -0.234 A  
HETATM   16  C   UNL     1      -8.448  14.821  67.301  1.00  0.00    -0.214 A  
HETATM   17  C   UNL     1      -9.706  14.527  67.832  1.00  0.00    -0.218 A  
HETATM   18  N   UNL     1      -8.103  16.047  66.895  1.00  0.00    -0.221 NA 
HETATM   19  C   UNL     1      -9.025  17.006  67.024  1.00  0.00    -0.221 A  
HETATM   20  C   UNL     1     -10.575  15.633  67.994  1.00  0.00    -0.271 A  
BRANCH  12  21
HETATM   21  O   UNL     1      -6.669  11.679  67.644  1.00  0.00    -0.073 OA 
BRANCH  21  22
HETATM   22  C   UNL     1      -6.513  10.554  66.785  1.00  0.00    -0.081 C  
HETATM   23  C   UNL     1      -6.618   9.890  64.476  1.00  0.00    -0.124 C  
HETATM   24  C   UNL     1      -5.183  10.737  66.060  1.00  0.00    -0.107 C  
HETATM   25  O   UNL     1      -5.248   9.931  64.886  1.00  0.00    -0.049 OA 
HETATM   26  C   UNL     1      -7.472  10.433  65.616  1.00  0.00    -0.149 C  
ENDBRANCH  21  22
ENDBRANCH  12  21
BRANCH  20  27
HETATM   27  N   UNL     1     -11.840  15.444  68.620  1.00  0.00    -0.499 NA 
HETATM   28  H   UNL     1     -12.644  15.409  67.993  1.00  0.00     0.000 HD 
BRANCH  27  29
HETATM   29  C   UNL     1     -12.127  15.298  70.000  1.00  0.00    -0.352 A  
HETATM   30  C   UNL     1     -12.696  14.136  70.543  1.00  0.00    -0.374 A  
HETATM   31  C   UNL     1     -12.914  14.021  71.919  1.00  0.00    -0.360 A  
HETATM   32 CL   UNL     1     -13.661  12.592  72.537  1.00  0.00    -0.442 Cl 
HETATM   33  C   UNL     1     -12.541  15.051  72.773  1.00  0.00    -0.390 A  
HETATM   34  C   UNL     1     -11.930  16.188  72.268  1.00  0.00    -0.637 A  
HETATM   35  F   UNL     1     -12.743  14.954  74.093  1.00  0.00    -0.583 F  
HETATM   36  C   UNL     1     -11.716  16.308  70.891  1.00  0.00    -0.270 A  
ENDBRANCH  27  29
ENDBRANCH  20  27
ENDBRANCH   8  11
ENDBRANCH   6   7
ENDBRANCH   4   5
ENDBRANCH   2   4
TORSDOF 8
ENDMDL
MODEL      111
REMARK 921   NORMALIZED FREE ENERGY PREDICTED BY IDOCK:   -4.83 KCAL/MOL
REMARK 922        TOTAL FREE ENERGY PREDICTED BY IDOCK:   -8.63 KCAL/MOL
REMARK 923 INTER-LIGAND FREE ENERGY PREDICTED BY IDOCK:   -7.61 KCAL/MOL
REMARK 924 INTRA-LIGAND FREE ENERGY PREDICTED BY IDOCK:   -1.02 KCAL/MOL
REMARK 927      BINDING AFFINITY PREDICTED BY RF-SCORE:    0.00 PKD
ROOT
HETATM    1  C   UNL     1      -6.159  14.659  71.076  1.00  0.00    -0.019 C  
HETATM    2  N   UNL     1      -5.154  13.802  71.720  1.00  0.00    -0.161 NA 
HETATM    3  C   UNL     1      -5.486  13.679  73.147  1.00  0.00     0.060 C  
ENDROOT
BRANCH   2   4
HETATM    4  C   UNL     1      -5.137  12.461  71.110  1.00  0.00    -0.148 C  
BRANCH   4   5
HETATM    5  C   UNL     1      -5.835  12.314  69.787  1.00  0.00    -0.123 C  
HETATM    6  C   UNL     1      -5.944  11.207  69.031  1.00  0.00    -0.042 C  
BRANCH   6   7
HETATM    7  C   UNL     1      -6.672  11.286  67.736  1.00  0.00    -0.069 C  
HETATM    8  N   UNL     1      -8.023  10.992  67.843  1.00  0.00    -0.110 N  
HETATM    9  O   UNL     1      -6.102  11.661  66.716  1.00  0.00    -0.144 OA 
HETATM   10  H   UNL     1      -8.386  10.653  68.734  1.00  0.00     0.000 HD 
BRANCH   8  11
HETATM   11  C   UNL     1      -8.914  11.148  66.754  1.00  0.00    -0.165 A  
HETATM   12  C   UNL     1      -9.078  10.167  65.775  1.00  0.00    -0.171 A  
HETATM   13  N   UNL     1     -12.199  13.843  64.342  1.00  0.00    -0.555 NA 
HETATM   14  C   UNL     1     -10.030  10.369  64.763  1.00  0.00    -0.409 A  
HETATM   15  C   UNL     1      -9.628  12.352  66.613  1.00  0.00    -0.230 A  
HETATM   16  C   UNL     1     -10.793  11.528  64.657  1.00  0.00    -0.310 A  
HETATM   17  C   UNL     1     -10.555  12.568  65.559  1.00  0.00    -0.304 A  
HETATM   18  N   UNL     1     -11.699  11.614  63.678  1.00  0.00    -0.386 NA 
HETATM   19  C   UNL     1     -12.381  12.759  63.586  1.00  0.00    -0.463 A  
HETATM   20  C   UNL     1     -11.279  13.762  65.320  1.00  0.00    -0.307 A  
BRANCH  12  21
HETATM   21  O   UNL     1      -8.294   9.067  65.583  1.00  0.00    -0.119 OA 
BRANCH  21  22
HETATM   22  C   UNL     1      -8.299   8.349  64.354  1.00  0.00    -0.097 C  
HETATM   23  C   UNL     1      -6.856   7.191  62.817  1.00  0.00    -0.053 C  
HETATM   24  C   UNL     1      -8.126   6.874  64.707  1.00  0.00    -0.095 C  
HETATM   25  O   UNL     1      -7.640   6.231  63.532  1.00  0.00    -0.073 OA 
HETATM   26  C   UNL     1      -7.127   8.566  63.416  1.00  0.00    -0.090 C  
ENDBRANCH  21  22
ENDBRANCH  12  21
BRANCH  20  27
HETATM   27  N   UNL     1     -11.026  14.907  66.127  1.00  0.00    -0.330 NA 
HETATM   28  H   UNL     1     -10.639  15.716  65.640  1.00  0.00     0.000 HD 
BRANCH  27  29
HETATM   29  C   UNL     1     -11.243  15.071  67.518  1.00  0.00    -0.330 A  
HETATM   30  C   UNL     1     -11.771  14.058  68.334  1.00  0.00    -0.389 A  
HETATM   31  C   UNL     1     -11.918  14.249  69.710  1.00  0.00    -0.339 A  
HETATM   32 CL   UNL     1     -12.617  12.994  70.667  1.00  0.00    -0.317 Cl 
HETATM   33  C   UNL     1     -11.513  15.443  70.295  1.00  0.00    -0.316 A  
HETATM   34  C   UNL     1     -10.941  16.440  69.521  1.00  0.00    -0.317 A  
HETATM   35  F   UNL     1     -11.647  15.641  71.613  1.00  0.00    -0.346 F  
HETATM   36  C   UNL     1     -10.798  16.252  68.142  1.00  0.00    -0.342 A  
ENDBRANCH  27  29
ENDBRANCH  20  27
ENDBRANCH   8  11
ENDBRANCH   6   7
ENDBRANCH   4   5
ENDBRANCH   2   4
TORSDOF 8
ENDMDL
MODEL      112
REMARK 921   NORMALIZED FREE ENERGY PREDICTED BY IDOCK:   -4.82 KCAL/MOL
REMARK 922        TOTAL FREE ENERGY PREDICTED BY IDOCK:   -8.61 KCAL/MOL
REMARK 923 INTER-LIGAND FREE ENERGY PREDICTED BY IDOCK:   -6.88 KCAL/MOL
REMARK 924 INTRA-LIGAND FREE ENERGY PREDICTED BY IDOCK:   -1.74 KCAL/MOL
REMARK 927      BINDING AFFINITY PREDICTED BY RF-SCORE:    0.00 PKD
ROOT
HETATM    1  C   UNL     1      -7.732   2.039  65.927  1.00  0.00    -0.071 C  
HETATM    2  N   UNL     1      -9.151   2.263  66.229  1.00  0.00    -0.100 NA 
HETATM    3  C   UNL     1      -9.279   2.618  67.651  1.00  0.00    -0.190 C  
ENDROOT
BRANCH   2   4
HETATM    4  C   UNL     1      -9.699   3.356  65.407  1.00  0.00    -0.053 C  
BRANCH   4   5
HETATM    5  C   UNL     1      -9.569   4.746  65.962  1.00  0.00    -0.187 C  
HETATM    6  C   UNL     1      -8.568   5.622  65.766  1.00  0.00    -0.148 C  
BRANCH   6   7
HETATM    7  C   UNL     1      -8.632   6.953  66.428  1.00  0.00    -0.134 C  
HETATM    8  N   UNL     1      -9.696   7.732  66.001  1.00  0.00    -0.446 N  
HETATM    9  O   UNL     1      -7.843   7.249  67.321  1.00  0.00    -0.107 OA 
HETATM   10  H   UNL     1     -10.269   7.403  65.224  1.00  0.00     0.000 HD 
BRANCH   8  11
HETATM   11  C   UNL     1     -10.012   8.970  66.608  1.00  0.00    -0.278 A  
HETATM   12  C   UNL     1      -9.602  10.192  66.074  1.00  0.00    -0.210 A  
HETATM   13  N   UNL     1     -12.146  11.475  70.220  1.00  0.00    -0.352 NA 
HETATM   14  C   UNL     1     -10.013  11.380  66.701  1.00  0.00    -0.239 A  
HETATM   15  C   UNL     1     -10.721   8.982  67.824  1.00  0.00    -0.217 A  
HETATM   16  C   UNL     1     -10.775  11.402  67.865  1.00  0.00    -0.200 A  
HETATM   17  C   UNL     1     -11.091  10.187  68.478  1.00  0.00    -0.266 A  
HETATM   18  N   UNL     1     -11.145  12.584  68.368  1.00  0.00    -0.241 NA 
HETATM   19  C   UNL     1     -11.840  12.562  69.509  1.00  0.00    -0.310 A  
HETATM   20  C   UNL     1     -11.762  10.287  69.721  1.00  0.00    -0.191 A  
BRANCH  12  21
HETATM   21  O   UNL     1      -8.695  10.383  65.073  1.00  0.00    -0.169 OA 
BRANCH  21  22
HETATM   22  C   UNL     1      -7.312  10.586  65.344  1.00  0.00    -0.084 C  
HETATM   23  C   UNL     1      -5.514   9.830  66.749  1.00  0.00    -0.045 C  
HETATM   24  C   UNL     1      -6.570   9.390  64.756  1.00  0.00    -0.079 C  
HETATM   25  O   UNL     1      -5.314   9.323  65.426  1.00  0.00    -0.036 OA 
HETATM   26  C   UNL     1      -6.870  10.523  66.793  1.00  0.00    -0.103 C  
ENDBRANCH  21  22
ENDBRANCH  12  21
BRANCH  20  27
HETATM   27  N   UNL     1     -12.036   9.104  70.465  1.00  0.00    -0.472 NA 
HETATM   28  H   UNL     1     -12.997   8.764  70.420  1.00  0.00     0.000 HD 
BRANCH  27  29
HETATM   29  C   UNL     1     -11.148   8.339  71.262  1.00  0.00    -0.251 A  
HETATM   30  C   UNL     1     -11.283   6.953  71.440  1.00  0.00    -0.296 A  
HETATM   31  C   UNL     1     -10.352   6.233  72.194  1.00  0.00    -0.191 A  
HETATM   32 CL   UNL     1     -10.585   4.539  72.427  1.00  0.00    -0.240 Cl 
HETATM   33  C   UNL     1      -9.259   6.881  72.755  1.00  0.00    -0.134 A  
HETATM   34  C   UNL     1      -9.073   8.240  72.551  1.00  0.00    -0.323 A  
HETATM   35  F   UNL     1      -8.358   6.205  73.479  1.00  0.00    -0.117 F  
HETATM   36  C   UNL     1     -10.007   8.963  71.802  1.00  0.00    -0.397 A  
ENDBRANCH  27  29
ENDBRANCH  20  27
ENDBRANCH   8  11
ENDBRANCH   6   7
ENDBRANCH   4   5
ENDBRANCH   2   4
TORSDOF 8
ENDMDL
MODEL      113
REMARK 921   NORMALIZED FREE ENERGY PREDICTED BY IDOCK:   -4.81 KCAL/MOL
REMARK 922        TOTAL FREE ENERGY PREDICTED BY IDOCK:   -8.60 KCAL/MOL
REMARK 923 INTER-LIGAND FREE ENERGY PREDICTED BY IDOCK:   -7.24 KCAL/MOL
REMARK 924 INTRA-LIGAND FREE ENERGY PREDICTED BY IDOCK:   -1.36 KCAL/MOL
REMARK 927      BINDING AFFINITY PREDICTED BY RF-SCORE:    0.00 PKD
ROOT
HETATM    1  C   UNL     1      -6.533   4.889  64.317  1.00  0.00    -0.038 C  
HETATM    2  N   UNL     1      -7.206   5.174  63.043  1.00  0.00    -0.042 NA 
HETATM    3  C   UNL     1      -8.619   4.781  63.161  1.00  0.00    -0.117 C  
ENDROOT
BRANCH   2   4
HETATM    4  C   UNL     1      -7.130   6.608  62.716  1.00  0.00    -0.053 C  
BRANCH   4   5
HETATM    5  C   UNL     1      -7.599   7.566  63.774  1.00  0.00    -0.118 C  
HETATM    6  C   UNL     1      -6.897   8.548  64.367  1.00  0.00    -0.070 C  
BRANCH   6   7
HETATM    7  C   UNL     1      -7.556   9.379  65.411  1.00  0.00    -0.100 C  
HETATM    8  N   UNL     1      -8.927   9.494  65.240  1.00  0.00    -0.186 N  
HETATM    9  O   UNL     1      -6.914   9.826  66.356  1.00  0.00    -0.089 OA 
HETATM   10  H   UNL     1      -9.354   9.113  64.396  1.00  0.00     0.000 HD 
BRANCH   8  11
HETATM   11  C   UNL     1      -9.753  10.124  66.201  1.00  0.00    -0.218 A  
HETATM   12  C   UNL     1     -10.482   9.403  67.149  1.00  0.00    -0.244 A  
HETATM   13  N   UNL     1     -11.622  14.202  68.136  1.00  0.00    -0.311 NA 
HETATM   14  C   UNL     1     -11.228  10.105  68.110  1.00  0.00    -0.245 A  
HETATM   15  C   UNL     1      -9.895  11.523  66.179  1.00  0.00    -0.250 A  
HETATM   16  C   UNL     1     -11.317  11.493  68.139  1.00  0.00    -0.298 A  
HETATM   17  C   UNL     1     -10.690  12.223  67.126  1.00  0.00    -0.265 A  
HETATM   18  N   UNL     1     -12.024  12.071  69.115  1.00  0.00    -0.296 NA 
HETATM   19  C   UNL     1     -12.119  13.404  69.083  1.00  0.00    -0.261 A  
HETATM   20  C   UNL     1     -10.921  13.620  67.147  1.00  0.00    -0.288 A  
BRANCH  12  21
HETATM   21  O   UNL     1     -10.692   8.055  67.164  1.00  0.00    -0.322 OA 
BRANCH  21  22
HETATM   22  C   UNL     1      -9.797   7.164  67.820  1.00  0.00    -0.145 C  
HETATM   23  C   UNL     1      -7.563   6.281  67.706  1.00  0.00    -0.101 C  
HETATM   24  C   UNL     1      -8.784   8.030  68.564  1.00  0.00    -0.131 C  
HETATM   25  O   UNL     1      -7.640   7.210  68.792  1.00  0.00    -0.102 OA 
HETATM   26  C   UNL     1      -8.883   6.328  66.945  1.00  0.00    -0.115 C  
ENDBRANCH  21  22
ENDBRANCH  12  21
BRANCH  20  27
HETATM   27  N   UNL     1     -10.405  14.431  66.097  1.00  0.00    -0.288 NA 
HETATM   28  H   UNL     1     -10.502  14.050  65.155  1.00  0.00     0.000 HD 
BRANCH  27  29
HETATM   29  C   UNL     1      -9.776  15.697  66.188  1.00  0.00    -0.318 A  
HETATM   30  C   UNL     1     -10.468  16.908  66.032  1.00  0.00    -0.297 A  
HETATM   31  C   UNL     1      -9.812  18.133  66.182  1.00  0.00    -0.251 A  
HETATM   32 CL   UNL     1     -10.692  19.597  65.934  1.00  0.00    -0.576 Cl 
HETATM   33  C   UNL     1      -8.464  18.165  66.518  1.00  0.00    -0.262 A  
HETATM   34  C   UNL     1      -7.769  16.985  66.728  1.00  0.00    -0.274 A  
HETATM   35  F   UNL     1      -7.822  19.332  66.666  1.00  0.00    -0.236 F  
HETATM   36  C   UNL     1      -8.422  15.758  66.573  1.00  0.00    -0.335 A  
ENDBRANCH  27  29
ENDBRANCH  20  27
ENDBRANCH   8  11
ENDBRANCH   6   7
ENDBRANCH   4   5
ENDBRANCH   2   4
TORSDOF 8
ENDMDL
MODEL      114
REMARK 921   NORMALIZED FREE ENERGY PREDICTED BY IDOCK:   -4.77 KCAL/MOL
REMARK 922        TOTAL FREE ENERGY PREDICTED BY IDOCK:   -8.53 KCAL/MOL
REMARK 923 INTER-LIGAND FREE ENERGY PREDICTED BY IDOCK:   -7.21 KCAL/MOL
REMARK 924 INTRA-LIGAND FREE ENERGY PREDICTED BY IDOCK:   -1.32 KCAL/MOL
REMARK 927      BINDING AFFINITY PREDICTED BY RF-SCORE:    0.00 PKD
ROOT
HETATM    1  C   UNL     1     -11.177  16.447  69.020  1.00  0.00    -0.291 C  
HETATM    2  N   UNL     1     -11.638  15.201  69.647  1.00  0.00    -0.290 NA 
HETATM    3  C   UNL     1     -12.715  15.522  70.595  1.00  0.00    -0.436 C  
ENDROOT
BRANCH   2   4
HETATM    4  C   UNL     1     -12.148  14.259  68.635  1.00  0.00    -0.260 C  
BRANCH   4   5
HETATM    5  C   UNL     1     -11.387  12.974  68.468  1.00  0.00    -0.323 C  
HETATM    6  C   UNL     1     -10.414  12.701  67.581  1.00  0.00    -0.226 C  
BRANCH   6   7
HETATM    7  C   UNL     1      -9.799  11.346  67.577  1.00  0.00    -0.178 C  
HETATM    8  N   UNL     1     -10.374  10.481  66.660  1.00  0.00    -0.236 N  
HETATM    9  O   UNL     1      -8.824  11.098  68.279  1.00  0.00    -0.142 OA 
HETATM   10  H   UNL     1     -11.208  10.780  66.153  1.00  0.00     0.000 HD 
BRANCH   8  11
HETATM   11  C   UNL     1      -9.842   9.195  66.405  1.00  0.00    -0.280 A  
HETATM   12  C   UNL     1      -8.984   8.939  65.334  1.00  0.00    -0.182 A  
HETATM   13  N   UNL     1      -9.478   4.467  67.586  1.00  0.00    -0.150 NA 
HETATM   14  C   UNL     1      -8.447   7.650  65.187  1.00  0.00    -0.057 A  
HETATM   15  C   UNL     1     -10.226   8.114  67.220  1.00  0.00    -0.348 A  
HETATM   16  C   UNL     1      -8.765   6.591  66.032  1.00  0.00    -0.148 A  
HETATM   17  C   UNL     1      -9.715   6.801  67.035  1.00  0.00    -0.200 A  
HETATM   18  N   UNL     1      -8.176   5.409  65.831  1.00  0.00    -0.115 NA 
HETATM   19  C   UNL     1      -8.540   4.408  66.639  1.00  0.00    -0.111 A  
HETATM   20  C   UNL     1     -10.081   5.654  67.780  1.00  0.00    -0.171 A  
BRANCH  12  21
HETATM   21  O   UNL     1      -8.713   9.772  64.288  1.00  0.00    -0.174 OA 
BRANCH  21  22
HETATM   22  C   UNL     1      -7.463   9.739  63.608  1.00  0.00    -0.130 C  
HETATM   23  C   UNL     1      -5.893  11.134  62.437  1.00  0.00     0.004 C  
HETATM   24  C   UNL     1      -6.440  10.383  64.540  1.00  0.00    -0.039 C  
HETATM   25  O   UNL     1      -5.352  10.801  63.719  1.00  0.00    -0.158 OA 
HETATM   26  C   UNL     1      -7.321  10.605  62.371  1.00  0.00    -0.150 C  
ENDBRANCH  21  22
ENDBRANCH  12  21
BRANCH  20  27
HETATM   27  N   UNL     1     -11.114   5.752  68.755  1.00  0.00    -0.162 NA 
HETATM   28  H   UNL     1     -12.058   5.557  68.421  1.00  0.00     0.000 HD 
BRANCH  27  29
HETATM   29  C   UNL     1     -11.002   6.086  70.128  1.00  0.00    -0.359 A  
HETATM   30  C   UNL     1      -9.897   5.725  70.914  1.00  0.00    -0.229 A  
HETATM   31  C   UNL     1      -9.809   6.121  72.251  1.00  0.00    -0.159 A  
HETATM   32 CL   UNL     1      -8.455   5.613  73.195  1.00  0.00    -0.118 Cl 
HETATM   33  C   UNL     1     -10.807   6.908  72.812  1.00  0.00    -0.272 A  
HETATM   34  C   UNL     1     -11.884   7.322  72.044  1.00  0.00    -0.332 A  
HETATM   35  F   UNL     1     -10.736   7.297  74.092  1.00  0.00    -0.369 F  
HETATM   36  C   UNL     1     -11.976   6.921  70.707  1.00  0.00    -0.424 A  
ENDBRANCH  27  29
ENDBRANCH  20  27
ENDBRANCH   8  11
ENDBRANCH   6   7
ENDBRANCH   4   5
ENDBRANCH   2   4
TORSDOF 8
ENDMDL
MODEL      115
REMARK 921   NORMALIZED FREE ENERGY PREDICTED BY IDOCK:   -4.75 KCAL/MOL
REMARK 922        TOTAL FREE ENERGY PREDICTED BY IDOCK:   -8.51 KCAL/MOL
REMARK 923 INTER-LIGAND FREE ENERGY PREDICTED BY IDOCK:   -7.50 KCAL/MOL
REMARK 924 INTRA-LIGAND FREE ENERGY PREDICTED BY IDOCK:   -1.01 KCAL/MOL
REMARK 927      BINDING AFFINITY PREDICTED BY RF-SCORE:    0.00 PKD
ROOT
HETATM    1  C   UNL     1      -6.190  18.549  68.119  1.00  0.00    -0.195 C  
HETATM    2  N   UNL     1      -6.739  17.468  67.290  1.00  0.00    -0.160 NA 
HETATM    3  C   UNL     1      -6.261  17.644  65.910  1.00  0.00    -0.168 C  
ENDROOT
BRANCH   2   4
HETATM    4  C   UNL     1      -6.306  16.151  67.788  1.00  0.00    -0.150 C  
BRANCH   4   5
HETATM    5  C   UNL     1      -7.294  15.025  67.663  1.00  0.00    -0.209 C  
HETATM    6  C   UNL     1      -7.799  14.258  68.645  1.00  0.00    -0.140 C  
BRANCH   6   7
HETATM    7  C   UNL     1      -8.763  13.180  68.297  1.00  0.00    -0.165 C  
HETATM    8  N   UNL     1      -8.159  12.047  67.773  1.00  0.00    -0.139 N  
HETATM    9  O   UNL     1      -9.958  13.300  68.547  1.00  0.00    -0.234 OA 
HETATM   10  H   UNL     1      -7.159  12.069  67.570  1.00  0.00     0.000 HD 
BRANCH   8  11
HETATM   11  C   UNL     1      -8.885  10.862  67.510  1.00  0.00    -0.133 A  
HETATM   12  C   UNL     1      -9.611  10.674  66.333  1.00  0.00    -0.190 A  
HETATM   13  N   UNL     1     -10.353   6.416  68.907  1.00  0.00    -0.183 NA 
HETATM   14  C   UNL     1     -10.252   9.442  66.119  1.00  0.00    -0.264 A  
HETATM   15  C   UNL     1      -8.929   9.848  68.485  1.00  0.00    -0.122 A  
HETATM   16  C   UNL     1     -10.240   8.407  67.049  1.00  0.00    -0.307 A  
HETATM   17  C   UNL     1      -9.620   8.624  68.281  1.00  0.00    -0.160 A  
HETATM   18  N   UNL     1     -10.851   7.259  66.739  1.00  0.00    -0.225 NA 
HETATM   19  C   UNL     1     -10.853   6.305  67.675  1.00  0.00    -0.346 A  
HETATM   20  C   UNL     1      -9.750   7.575  69.224  1.00  0.00    -0.163 A  
BRANCH  12  21
HETATM   21  O   UNL     1      -9.915  11.622  65.401  1.00  0.00    -0.234 OA 
BRANCH  21  22
HETATM   22  C   UNL     1     -11.261  11.961  65.087  1.00  0.00    -0.289 C  
HETATM   23  C   UNL     1     -12.756  13.832  64.876  1.00  0.00    -0.271 C  
HETATM   24  C   UNL     1     -11.244  12.572  63.689  1.00  0.00    -0.483 C  
HETATM   25  O   UNL     1     -12.437  13.343  63.569  1.00  0.00    -0.738 OA 
HETATM   26  C   UNL     1     -11.903  13.077  65.888  1.00  0.00    -0.468 C  
ENDBRANCH  21  22
ENDBRANCH  12  21
BRANCH  20  27
HETATM   27  N   UNL     1      -9.236   7.749  70.540  1.00  0.00    -0.161 NA 
HETATM   28  H   UNL     1      -8.906   8.688  70.767  1.00  0.00     0.000 HD 
BRANCH  27  29
HETATM   29  C   UNL     1      -9.123   6.790  71.577  1.00  0.00    -0.145 A  
HETATM   30  C   UNL     1     -10.213   6.044  72.050  1.00  0.00    -0.228 A  
HETATM   31  C   UNL     1     -10.041   5.072  73.040  1.00  0.00    -0.169 A  
HETATM   32 CL   UNL     1     -11.419   4.213  73.627  1.00  0.00    -0.274 Cl 
HETATM   33  C   UNL     1      -8.775   4.811  73.548  1.00  0.00    -0.104 A  
HETATM   34  C   UNL     1      -7.673   5.497  73.061  1.00  0.00    -0.097 A  
HETATM   35  F   UNL     1      -8.595   3.882  74.496  1.00  0.00    -0.089 F  
HETATM   36  C   UNL     1      -7.844   6.474  72.075  1.00  0.00    -0.099 A  
ENDBRANCH  27  29
ENDBRANCH  20  27
ENDBRANCH   8  11
ENDBRANCH   6   7
ENDBRANCH   4   5
ENDBRANCH   2   4
TORSDOF 8
ENDMDL
MODEL      116
REMARK 921   NORMALIZED FREE ENERGY PREDICTED BY IDOCK:   -4.72 KCAL/MOL
REMARK 922        TOTAL FREE ENERGY PREDICTED BY IDOCK:   -8.47 KCAL/MOL
REMARK 923 INTER-LIGAND FREE ENERGY PREDICTED BY IDOCK:   -8.04 KCAL/MOL
REMARK 924 INTRA-LIGAND FREE ENERGY PREDICTED BY IDOCK:   -0.42 KCAL/MOL
REMARK 927      BINDING AFFINITY PREDICTED BY RF-SCORE:    0.00 PKD
ROOT
HETATM    1  C   UNL     1      -8.073   3.708  66.140  1.00  0.00    -0.093 C  
HETATM    2  N   UNL     1      -9.372   4.378  66.283  1.00  0.00    -0.147 NA 
HETATM    3  C   UNL     1      -9.630   4.603  67.713  1.00  0.00    -0.159 C  
ENDROOT
BRANCH   2   4
HETATM    4  C   UNL     1      -9.376   5.673  65.581  1.00  0.00    -0.008 C  
BRANCH   4   5
HETATM    5  C   UNL     1      -9.521   6.901  66.435  1.00  0.00    -0.170 C  
HETATM    6  C   UNL     1      -9.324   8.183  66.077  1.00  0.00    -0.184 C  
BRANCH   6   7
HETATM    7  C   UNL     1      -9.511   9.253  67.094  1.00  0.00    -0.149 C  
HETATM    8  N   UNL     1     -10.678   9.981  66.922  1.00  0.00    -0.183 N  
HETATM    9  O   UNL     1      -8.719   9.382  68.022  1.00  0.00    -0.124 OA 
HETATM   10  H   UNL     1     -11.246   9.815  66.092  1.00  0.00     0.000 HD 
BRANCH   8  11
HETATM   11  C   UNL     1     -11.106  10.947  67.863  1.00  0.00    -0.302 A  
HETATM   12  C   UNL     1     -10.930  12.316  67.663  1.00  0.00    -0.244 A  
HETATM   13  N   UNL     1     -13.208  12.030  72.139  1.00  0.00    -0.436 NA 
HETATM   14  C   UNL     1     -11.442  13.214  68.614  1.00  0.00    -0.342 A  
HETATM   15  C   UNL     1     -11.685  10.522  69.074  1.00  0.00    -0.242 A  
HETATM   16  C   UNL     1     -12.080  12.804  69.781  1.00  0.00    -0.237 A  
HETATM   17  C   UNL     1     -12.158  11.436  70.053  1.00  0.00    -0.417 A  
HETATM   18  N   UNL     1     -12.564  13.735  70.609  1.00  0.00    -0.331 NA 
HETATM   19  C   UNL     1     -13.133  13.300  71.738  1.00  0.00    -0.379 A  
HETATM   20  C   UNL     1     -12.710  11.094  71.312  1.00  0.00    -0.426 A  
BRANCH  12  21
HETATM   21  O   UNL     1     -10.162  12.909  66.703  1.00  0.00    -0.240 OA 
BRANCH  21  22
HETATM   22  C   UNL     1      -8.887  13.465  67.002  1.00  0.00    -0.211 C  
HETATM   23  C   UNL     1      -7.812  15.184  68.296  1.00  0.00    -0.124 C  
HETATM   24  C   UNL     1      -8.525  13.001  68.409  1.00  0.00    -0.118 C  
HETATM   25  O   UNL     1      -7.544  13.913  68.897  1.00  0.00    -0.120 OA 
HETATM   26  C   UNL     1      -8.804  14.971  67.158  1.00  0.00    -0.233 C  
ENDBRANCH  21  22
ENDBRANCH  12  21
BRANCH  20  27
HETATM   27  N   UNL     1     -12.737   9.730  71.717  1.00  0.00    -0.400 NA 
HETATM   28  H   UNL     1     -13.661   9.301  71.771  1.00  0.00     0.000 HD 
BRANCH  27  29
HETATM   29  C   UNL     1     -11.647   8.889  72.055  1.00  0.00    -0.364 A  
HETATM   30  C   UNL     1     -11.813   7.582  72.541  1.00  0.00    -0.266 A  
HETATM   31  C   UNL     1     -10.706   6.773  72.812  1.00  0.00    -0.246 A  
HETATM   32 CL   UNL     1     -10.955   5.190  73.454  1.00  0.00    -0.354 Cl 
HETATM   33  C   UNL     1      -9.421   7.247  72.576  1.00  0.00    -0.147 A  
HETATM   34  C   UNL     1      -9.231   8.515  72.048  1.00  0.00    -0.326 A  
HETATM   35  F   UNL     1      -8.351   6.483  72.830  1.00  0.00    -0.114 F  
HETATM   36  C   UNL     1     -10.338   9.328  71.781  1.00  0.00    -0.204 A  
ENDBRANCH  27  29
ENDBRANCH  20  27
ENDBRANCH   8  11
ENDBRANCH   6   7
ENDBRANCH   4   5
ENDBRANCH   2   4
TORSDOF 8
ENDMDL
MODEL      117
REMARK 921   NORMALIZED FREE ENERGY PREDICTED BY IDOCK:   -4.72 KCAL/MOL
REMARK 922        TOTAL FREE ENERGY PREDICTED BY IDOCK:   -8.47 KCAL/MOL
REMARK 923 INTER-LIGAND FREE ENERGY PREDICTED BY IDOCK:   -7.60 KCAL/MOL
REMARK 924 INTRA-LIGAND FREE ENERGY PREDICTED BY IDOCK:   -0.86 KCAL/MOL
REMARK 927      BINDING AFFINITY PREDICTED BY RF-SCORE:    0.00 PKD
ROOT
HETATM    1  C   UNL     1     -10.117  19.896  66.314  1.00  0.00    -0.502 C  
HETATM    2  N   UNL     1      -8.992  19.263  67.015  1.00  0.00    -0.284 NA 
HETATM    3  C   UNL     1      -8.019  20.303  67.379  1.00  0.00    -0.329 C  
ENDROOT
BRANCH   2   4
HETATM    4  C   UNL     1      -9.450  18.580  68.237  1.00  0.00    -0.335 C  
BRANCH   4   5
HETATM    5  C   UNL     1      -9.527  17.080  68.182  1.00  0.00    -0.262 C  
HETATM    6  C   UNL     1     -10.621  16.316  68.010  1.00  0.00    -0.308 C  
BRANCH   6   7
HETATM    7  C   UNL     1     -10.474  14.836  68.002  1.00  0.00    -0.246 C  
HETATM    8  N   UNL     1      -9.980  14.337  66.807  1.00  0.00    -0.258 N  
HETATM    9  O   UNL     1     -10.703  14.176  69.011  1.00  0.00    -0.245 OA 
HETATM   10  H   UNL     1      -9.859  14.971  66.018  1.00  0.00     0.000 HD 
BRANCH   8  11
HETATM   11  C   UNL     1      -9.636  12.973  66.647  1.00  0.00    -0.259 A  
HETATM   12  C   UNL     1     -10.584  11.992  66.354  1.00  0.00    -0.243 A  
HETATM   13  N   UNL     1      -6.253   9.448  66.627  1.00  0.00    -0.064 NA 
HETATM   14  C   UNL     1     -10.154  10.671  66.146  1.00  0.00    -0.306 A  
HETATM   15  C   UNL     1      -8.302  12.570  66.840  1.00  0.00    -0.097 A  
HETATM   16  C   UNL     1      -8.824  10.277  66.265  1.00  0.00    -0.146 A  
HETATM   17  C   UNL     1      -7.882  11.223  66.675  1.00  0.00    -0.152 A  
HETATM   18  N   UNL     1      -8.508   9.003  66.013  1.00  0.00    -0.124 NA 
HETATM   19  C   UNL     1      -7.228   8.656  66.179  1.00  0.00    -0.085 A  
HETATM   20  C   UNL     1      -6.574  10.727  66.892  1.00  0.00    -0.091 A  
BRANCH  12  21
HETATM   21  O   UNL     1     -11.941  12.129  66.396  1.00  0.00    -0.611 OA 
BRANCH  21  22
HETATM   22  C   UNL     1     -12.657  12.821  65.380  1.00  0.00    -0.320 C  
HETATM   23  C   UNL     1     -12.567  14.772  63.977  1.00  0.00     0.199 C  
HETATM   24  C   UNL     1     -11.912  12.571  64.071  1.00  0.00    -0.454 C  
HETATM   25  O   UNL     1     -12.297  13.614  63.180  1.00  0.00    -0.729 OA 
HETATM   26  C   UNL     1     -12.654  14.336  65.435  1.00  0.00    -0.422 C  
ENDBRANCH  21  22
ENDBRANCH  12  21
BRANCH  20  27
HETATM   27  N   UNL     1      -5.572  11.598  67.407  1.00  0.00    -0.073 NA 
HETATM   28  H   UNL     1      -4.832  11.858  66.754  1.00  0.00     0.000 HD 
BRANCH  27  29
HETATM   29  C   UNL     1      -5.467  12.150  68.708  1.00  0.00    -0.050 A  
HETATM   30  C   UNL     1      -5.532  13.529  68.961  1.00  0.00    -0.073 A  
HETATM   31  C   UNL     1      -5.475  14.022  70.267  1.00  0.00    -0.115 A  
HETATM   32 CL   UNL     1      -5.508  15.729  70.527  1.00  0.00    -0.156 Cl 
HETATM   33  C   UNL     1      -5.383  13.145  71.340  1.00  0.00    -0.167 A  
HETATM   34  C   UNL     1      -5.370  11.776  71.122  1.00  0.00    -0.063 A  
HETATM   35  F   UNL     1      -5.329  13.602  72.598  1.00  0.00    -0.177 F  
HETATM   36  C   UNL     1      -5.421  11.281  69.815  1.00  0.00    -0.058 A  
ENDBRANCH  27  29
ENDBRANCH  20  27
ENDBRANCH   8  11
ENDBRANCH   6   7
ENDBRANCH   4   5
ENDBRANCH   2   4
TORSDOF 8
ENDMDL
MODEL      118
REMARK 921   NORMALIZED FREE ENERGY PREDICTED BY IDOCK:   -4.65 KCAL/MOL
REMARK 922        TOTAL FREE ENERGY PREDICTED BY IDOCK:   -8.36 KCAL/MOL
REMARK 923 INTER-LIGAND FREE ENERGY PREDICTED BY IDOCK:   -7.72 KCAL/MOL
REMARK 924 INTRA-LIGAND FREE ENERGY PREDICTED BY IDOCK:   -0.64 KCAL/MOL
REMARK 927      BINDING AFFINITY PREDICTED BY RF-SCORE:    0.00 PKD
ROOT
HETATM    1  C   UNL     1      -7.088   6.443  72.088  1.00  0.00    -0.078 C  
HETATM    2  N   UNL     1      -7.331   7.130  70.813  1.00  0.00    -0.071 NA 
HETATM    3  C   UNL     1      -8.492   6.508  70.158  1.00  0.00    -0.135 C  
ENDROOT
BRANCH   2   4
HETATM    4  C   UNL     1      -7.608   8.560  71.031  1.00  0.00    -0.090 C  
BRANCH   4   5
HETATM    5  C   UNL     1      -7.923   9.378  69.810  1.00  0.00    -0.119 C  
HETATM    6  C   UNL     1      -7.395  10.563  69.452  1.00  0.00    -0.133 C  
BRANCH   6   7
HETATM    7  C   UNL     1      -7.863  11.213  68.199  1.00  0.00    -0.118 C  
HETATM    8  N   UNL     1      -9.206  10.997  67.932  1.00  0.00    -0.151 N  
HETATM    9  O   UNL     1      -7.112  11.930  67.545  1.00  0.00    -0.102 OA 
HETATM   10  H   UNL     1      -9.730  10.351  68.523  1.00  0.00     0.000 HD 
BRANCH   8  11
HETATM   11  C   UNL     1      -9.874  11.644  66.866  1.00  0.00    -0.198 A  
HETATM   12  C   UNL     1     -10.231  10.979  65.692  1.00  0.00    -0.260 A  
HETATM   13  N   UNL     1     -11.841  15.687  64.953  1.00  0.00    -0.042 NA 
HETATM   14  C   UNL     1     -10.951  11.676  64.708  1.00  0.00    -0.351 A  
HETATM   15  C   UNL     1     -10.148  13.022  66.957  1.00  0.00    -0.243 A  
HETATM   16  C   UNL     1     -11.288  13.021  64.821  1.00  0.00    -0.317 A  
HETATM   17  C   UNL     1     -10.834  13.731  65.935  1.00  0.00    -0.283 A  
HETATM   18  N   UNL     1     -12.005  13.588  63.846  1.00  0.00    -0.457 NA 
HETATM   19  C   UNL     1     -12.272  14.891  63.974  1.00  0.00    -0.123 A  
HETATM   20  C   UNL     1     -11.109  15.120  65.929  1.00  0.00    -0.319 A  
BRANCH  12  21
HETATM   21  O   UNL     1      -9.822   9.738  65.301  1.00  0.00    -0.313 OA 
BRANCH  21  22
HETATM   22  C   UNL     1      -8.993   9.547  64.160  1.00  0.00    -0.198 C  
HETATM   23  C   UNL     1      -7.968  10.723  62.330  1.00  0.00    -0.171 C  
HETATM   24  C   UNL     1      -7.620  10.109  64.518  1.00  0.00    -0.130 C  
HETATM   25  O   UNL     1      -6.959  10.379  63.285  1.00  0.00    -0.126 OA 
HETATM   26  C   UNL     1      -9.324  10.348  62.917  1.00  0.00    -0.342 C  
ENDBRANCH  21  22
ENDBRANCH  12  21
BRANCH  20  27
HETATM   27  N   UNL     1     -10.597  15.940  66.974  1.00  0.00    -0.308 NA 
HETATM   28  H   UNL     1     -10.809  15.632  67.923  1.00  0.00     0.000 HD 
BRANCH  27  29
HETATM   29  C   UNL     1      -9.833  17.129  66.868  1.00  0.00    -0.285 A  
HETATM   30  C   UNL     1      -8.511  17.147  66.397  1.00  0.00    -0.307 A  
HETATM   31  C   UNL     1      -7.815  18.352  66.263  1.00  0.00    -0.242 A  
HETATM   32 CL   UNL     1      -6.174  18.323  65.727  1.00  0.00    -0.264 Cl 
HETATM   33  C   UNL     1      -8.438  19.555  66.568  1.00  0.00    -0.342 A  
HETATM   34  C   UNL     1      -9.760  19.570  66.986  1.00  0.00    -0.450 A  
HETATM   35  F   UNL     1      -7.785  20.718  66.444  1.00  0.00    -0.221 F  
HETATM   36  C   UNL     1     -10.456  18.365  67.126  1.00  0.00    -0.434 A  
ENDBRANCH  27  29
ENDBRANCH  20  27
ENDBRANCH   8  11
ENDBRANCH   6   7
ENDBRANCH   4   5
ENDBRANCH   2   4
TORSDOF 8
ENDMDL
MODEL      119
REMARK 921   NORMALIZED FREE ENERGY PREDICTED BY IDOCK:   -4.61 KCAL/MOL
REMARK 922        TOTAL FREE ENERGY PREDICTED BY IDOCK:   -8.31 KCAL/MOL
REMARK 923 INTER-LIGAND FREE ENERGY PREDICTED BY IDOCK:   -7.05 KCAL/MOL
REMARK 924 INTRA-LIGAND FREE ENERGY PREDICTED BY IDOCK:   -1.26 KCAL/MOL
REMARK 927      BINDING AFFINITY PREDICTED BY RF-SCORE:    0.00 PKD
ROOT
HETATM    1  C   UNL     1     -12.885  13.530  65.269  1.00  0.00    -0.353 C  
HETATM    2  N   UNL     1     -11.836  13.539  64.241  1.00  0.00    -0.410 NA 
HETATM    3  C   UNL     1     -10.694  14.319  64.742  1.00  0.00    -0.416 C  
ENDROOT
BRANCH   2   4
HETATM    4  C   UNL     1     -11.389  12.170  63.933  1.00  0.00    -0.426 C  
BRANCH   4   5
HETATM    5  C   UNL     1     -10.732  11.409  65.049  1.00  0.00    -0.340 C  
HETATM    6  C   UNL     1      -9.556  10.757  65.023  1.00  0.00    -0.305 C  
BRANCH   6   7
HETATM    7  C   UNL     1      -9.095  10.049  66.248  1.00  0.00    -0.151 C  
HETATM    8  N   UNL     1     -10.050   9.204  66.791  1.00  0.00    -0.254 N  
HETATM    9  O   UNL     1      -7.941  10.174  66.649  1.00  0.00    -0.113 OA 
HETATM   10  H   UNL     1     -10.992   9.206  66.399  1.00  0.00     0.000 HD 
BRANCH   8  11
HETATM   11  C   UNL     1      -9.760   8.338  67.872  1.00  0.00    -0.161 A  
HETATM   12  C   UNL     1     -10.055   8.669  69.195  1.00  0.00    -0.199 A  
HETATM   13  N   UNL     1      -7.941   4.116  69.525  1.00  0.00    -0.056 NA 
HETATM   14  C   UNL     1      -9.796   7.727  70.205  1.00  0.00    -0.184 A  
HETATM   15  C   UNL     1      -9.104   7.119  67.623  1.00  0.00    -0.127 A  
HETATM   16  C   UNL     1      -9.211   6.489  69.958  1.00  0.00    -0.157 A  
HETATM   17  C   UNL     1      -8.801   6.192  68.656  1.00  0.00    -0.114 A  
HETATM   18  N   UNL     1      -9.036   5.646  70.981  1.00  0.00    -0.140 NA 
HETATM   19  C   UNL     1      -8.433   4.484  70.709  1.00  0.00    -0.091 A  
HETATM   20  C   UNL     1      -8.106   4.969  68.498  1.00  0.00    -0.085 A  
BRANCH  12  21
HETATM   21  O   UNL     1     -10.433   9.892  69.667  1.00  0.00    -0.214 OA 
BRANCH  21  22
HETATM   22  C   UNL     1     -11.779  10.168  70.040  1.00  0.00    -0.223 C  
HETATM   23  C   UNL     1     -13.155  10.729  71.930  1.00  0.00    -0.451 C  
HETATM   24  C   UNL     1     -11.868  11.673  70.276  1.00  0.00    -0.326 C  
HETATM   25  O   UNL     1     -13.010  11.887  71.101  1.00  0.00    -0.299 OA 
HETATM   26  C   UNL     1     -12.254   9.632  71.377  1.00  0.00    -0.471 C  
ENDBRANCH  21  22
ENDBRANCH  12  21
BRANCH  20  27
HETATM   27  N   UNL     1      -7.563   4.631  67.226  1.00  0.00    -0.085 NA 
HETATM   28  H   UNL     1      -6.617   4.968  67.044  1.00  0.00     0.000 HD 
BRANCH  27  29
HETATM   29  C   UNL     1      -8.164   3.888  66.180  1.00  0.00    -0.101 A  
HETATM   30  C   UNL     1      -8.558   4.463  64.962  1.00  0.00    -0.128 A  
HETATM   31  C   UNL     1      -9.100   3.679  63.940  1.00  0.00    -0.114 A  
HETATM   32 CL   UNL     1      -9.616   4.437  62.478  1.00  0.00    -0.136 Cl 
HETATM   33  C   UNL     1      -9.229   2.306  64.109  1.00  0.00    -0.117 A  
HETATM   34  C   UNL     1      -8.800   1.704  65.282  1.00  0.00    -0.119 A  
HETATM   35  F   UNL     1      -9.746   1.541  63.139  1.00  0.00    -0.091 F  
HETATM   36  C   UNL     1      -8.263   2.489  66.308  1.00  0.00    -0.088 A  
ENDBRANCH  27  29
ENDBRANCH  20  27
ENDBRANCH   8  11
ENDBRANCH   6   7
ENDBRANCH   4   5
ENDBRANCH   2   4
TORSDOF 8
ENDMDL
MODEL      120
REMARK 921   NORMALIZED FREE ENERGY PREDICTED BY IDOCK:   -4.59 KCAL/MOL
REMARK 922        TOTAL FREE ENERGY PREDICTED BY IDOCK:   -8.27 KCAL/MOL
REMARK 923 INTER-LIGAND FREE ENERGY PREDICTED BY IDOCK:   -8.56 KCAL/MOL
REMARK 924 INTRA-LIGAND FREE ENERGY PREDICTED BY IDOCK:    0.28 KCAL/MOL
REMARK 927      BINDING AFFINITY PREDICTED BY RF-SCORE:    0.00 PKD
ROOT
HETATM    1  C   UNL     1     -13.372   9.356  72.337  1.00  0.00    -0.424 C  
HETATM    2  N   UNL     1     -13.153   7.918  72.133  1.00  0.00    -0.217 NA 
HETATM    3  C   UNL     1     -14.323   7.357  71.442  1.00  0.00    -0.367 C  
ENDROOT
BRANCH   2   4
HETATM    4  C   UNL     1     -11.950   7.679  71.318  1.00  0.00    -0.306 C  
BRANCH   4   5
HETATM    5  C   UNL     1     -11.393   8.862  70.577  1.00  0.00    -0.268 C  
HETATM    6  C   UNL     1     -11.903   9.470  69.492  1.00  0.00     0.396 C  
BRANCH   6   7
HETATM    7  C   UNL     1     -11.176  10.627  68.903  1.00  0.00    -0.275 C  
HETATM    8  N   UNL     1     -11.700  11.050  67.691  1.00  0.00    -0.147 N  
HETATM    9  O   UNL     1     -10.260  11.170  69.513  1.00  0.00    -0.091 OA 
HETATM   10  H   UNL     1     -12.440  10.501  67.254  1.00  0.00     0.000 HD 
BRANCH   8  11
HETATM   11  C   UNL     1     -11.240  12.219  67.041  1.00  0.00    -0.310 A  
HETATM   12  C   UNL     1     -11.032  12.277  65.662  1.00  0.00    -0.299 A  
HETATM   13  N   UNL     1      -9.775  16.875  67.269  1.00  0.00    -0.246 NA 
HETATM   14  C   UNL     1     -10.636  13.494  65.084  1.00  0.00    -0.364 A  
HETATM   15  C   UNL     1     -10.927  13.358  67.807  1.00  0.00    -0.281 A  
HETATM   16  C   UNL     1     -10.393  14.646  65.827  1.00  0.00    -0.332 A  
HETATM   17  C   UNL     1     -10.481  14.572  67.219  1.00  0.00    -0.266 A  
HETATM   18  N   UNL     1     -10.054  15.766  65.182  1.00  0.00    -0.434 NA 
HETATM   19  C   UNL     1      -9.788  16.838  65.935  1.00  0.00    -0.249 A  
HETATM   20  C   UNL     1     -10.104  15.744  67.918  1.00  0.00    -0.230 A  
BRANCH  12  21
HETATM   21  O   UNL     1     -11.014  11.224  64.795  1.00  0.00    -0.279 OA 
BRANCH  21  22
HETATM   22  C   UNL     1      -9.881  10.370  64.675  1.00  0.00    -0.338 C  
HETATM   23  C   UNL     1      -7.641  10.287  63.804  1.00  0.00    -0.092 C  
HETATM   24  C   UNL     1      -8.844  10.876  65.673  1.00  0.00    -0.190 C  
HETATM   25  O   UNL     1      -7.582  10.382  65.231  1.00  0.00    -0.145 OA 
HETATM   26  C   UNL     1      -9.097  10.433  63.378  1.00  0.00    -0.278 C  
ENDBRANCH  21  22
ENDBRANCH  12  21
BRANCH  20  27
HETATM   27  N   UNL     1     -10.066  15.729  69.341  1.00  0.00    -0.250 NA 
HETATM   28  H   UNL     1      -9.149  15.887  69.762  1.00  0.00     0.000 HD 
BRANCH  27  29
HETATM   29  C   UNL     1     -11.134  15.525  70.250  1.00  0.00    -0.328 A  
HETATM   30  C   UNL     1     -10.944  15.384  71.634  1.00  0.00    -0.122 A  
HETATM   31  C   UNL     1     -12.034  15.235  72.495  1.00  0.00    -0.424 A  
HETATM   32 CL   UNL     1     -11.750  15.016  74.184  1.00  0.00    -0.176 Cl 
HETATM   33  C   UNL     1     -13.328  15.253  71.991  1.00  0.00    -0.426 A  
HETATM   34  C   UNL     1     -13.546  15.443  70.636  1.00  0.00    -0.130 A  
HETATM   35  F   UNL     1     -14.383  15.113  72.805  1.00  0.00    -0.478 F  
HETATM   36  C   UNL     1     -12.456  15.587  69.771  1.00  0.00    -0.188 A  
ENDBRANCH  27  29
ENDBRANCH  20  27
ENDBRANCH   8  11
ENDBRANCH   6   7
ENDBRANCH   4   5
ENDBRANCH   2   4
TORSDOF 8
ENDMDL
MODEL      121
REMARK 921   NORMALIZED FREE ENERGY PREDICTED BY IDOCK:   -4.58 KCAL/MOL
REMARK 922        TOTAL FREE ENERGY PREDICTED BY IDOCK:   -8.26 KCAL/MOL
REMARK 923 INTER-LIGAND FREE ENERGY PREDICTED BY IDOCK:   -6.67 KCAL/MOL
REMARK 924 INTRA-LIGAND FREE ENERGY PREDICTED BY IDOCK:   -1.58 KCAL/MOL
REMARK 927      BINDING AFFINITY PREDICTED BY RF-SCORE:    0.00 PKD
ROOT
HETATM    1  C   UNL     1     -10.201   3.861  63.393  1.00  0.00    -0.177 C  
HETATM    2  N   UNL     1      -9.621   4.047  64.729  1.00  0.00    -0.168 NA 
HETATM    3  C   UNL     1      -8.582   5.085  64.651  1.00  0.00    -0.150 C  
ENDROOT
BRANCH   2   4
HETATM    4  C   UNL     1     -10.650   4.464  65.697  1.00  0.00    -0.144 C  
BRANCH   4   5
HETATM    5  C   UNL     1     -10.289   5.598  66.615  1.00  0.00    -0.311 C  
HETATM    6  C   UNL     1     -10.862   5.924  67.788  1.00  0.00    -0.326 C  
BRANCH   6   7
HETATM    7  C   UNL     1     -10.354   7.106  68.536  1.00  0.00    -0.183 C  
HETATM    8  N   UNL     1      -9.023   7.392  68.280  1.00  0.00    -0.130 N  
HETATM    9  O   UNL     1     -11.108   7.777  69.235  1.00  0.00    -0.064 OA 
HETATM   10  H   UNL     1      -8.478   6.743  67.711  1.00  0.00     0.000 HD 
BRANCH   8  11
HETATM   11  C   UNL     1      -8.394   8.555  68.783  1.00  0.00    -0.122 A  
HETATM   12  C   UNL     1      -7.900   8.636  70.086  1.00  0.00    -0.098 A  
HETATM   13  N   UNL     1      -6.875  13.152  68.121  1.00  0.00    -0.096 NA 
HETATM   14  C   UNL     1      -7.231   9.803  70.488  1.00  0.00    -0.130 A  
HETATM   15  C   UNL     1      -8.304   9.699  67.968  1.00  0.00    -0.117 A  
HETATM   16  C   UNL     1      -7.074  10.913  69.664  1.00  0.00    -0.116 A  
HETATM   17  C   UNL     1      -7.667  10.893  68.399  1.00  0.00    -0.116 A  
HETATM   18  N   UNL     1      -6.392  11.965  70.126  1.00  0.00    -0.120 NA 
HETATM   19  C   UNL     1      -6.300  13.026  69.318  1.00  0.00    -0.107 A  
HETATM   20  C   UNL     1      -7.573  12.098  67.661  1.00  0.00    -0.140 A  
BRANCH  12  21
HETATM   21  O   UNL     1      -8.128   7.753  71.101  1.00  0.00    -0.092 OA 
BRANCH  21  22
HETATM   22  C   UNL     1      -7.105   6.893  71.591  1.00  0.00    -0.074 C  
HETATM   23  C   UNL     1      -6.748   4.913  72.908  1.00  0.00    -0.069 C  
HETATM   24  C   UNL     1      -7.173   5.615  70.760  1.00  0.00    -0.079 C  
HETATM   25  O   UNL     1      -6.533   4.599  71.528  1.00  0.00    -0.021 OA 
HETATM   26  C   UNL     1      -7.271   6.342  72.994  1.00  0.00    -0.082 C  
ENDBRANCH  21  22
ENDBRANCH  12  21
BRANCH  20  27
HETATM   27  N   UNL     1      -8.233  12.203  66.404  1.00  0.00    -0.395 NA 
HETATM   28  H   UNL     1      -7.694  11.900  65.593  1.00  0.00     0.000 HD 
BRANCH  27  29
HETATM   29  C   UNL     1      -9.543  12.673  66.133  1.00  0.00    -0.222 A  
HETATM   30  C   UNL     1     -10.340  12.159  65.099  1.00  0.00    -0.311 A  
HETATM   31  C   UNL     1     -11.645  12.620  64.903  1.00  0.00    -0.334 A  
HETATM   32 CL   UNL     1     -12.572  11.994  63.588  1.00  0.00    -0.640 Cl 
HETATM   33  C   UNL     1     -12.180  13.579  65.754  1.00  0.00    -0.461 A  
HETATM   34  C   UNL     1     -11.433  14.065  66.815  1.00  0.00    -0.379 A  
HETATM   35  F   UNL     1     -13.430  14.029  65.579  1.00  0.00    -0.451 F  
HETATM   36  C   UNL     1     -10.125  13.609  67.009  1.00  0.00    -0.248 A  
ENDBRANCH  27  29
ENDBRANCH  20  27
ENDBRANCH   8  11
ENDBRANCH   6   7
ENDBRANCH   4   5
ENDBRANCH   2   4
TORSDOF 8
ENDMDL
MODEL      122
REMARK 921   NORMALIZED FREE ENERGY PREDICTED BY IDOCK:   -4.56 KCAL/MOL
REMARK 922        TOTAL FREE ENERGY PREDICTED BY IDOCK:   -8.23 KCAL/MOL
REMARK 923 INTER-LIGAND FREE ENERGY PREDICTED BY IDOCK:   -6.74 KCAL/MOL
REMARK 924 INTRA-LIGAND FREE ENERGY PREDICTED BY IDOCK:   -1.49 KCAL/MOL
REMARK 927      BINDING AFFINITY PREDICTED BY RF-SCORE:    0.00 PKD
ROOT
HETATM    1  C   UNL     1      -7.770  18.315  67.878  1.00  0.00    -0.243 C  
HETATM    2  N   UNL     1      -8.561  17.086  67.729  1.00  0.00    -0.211 NA 
HETATM    3  C   UNL     1      -8.906  16.918  66.309  1.00  0.00    -0.279 C  
ENDROOT
BRANCH   2   4
HETATM    4  C   UNL     1      -7.799  15.910  68.183  1.00  0.00    -0.133 C  
BRANCH   4   5
HETATM    5  C   UNL     1      -8.194  14.584  67.597  1.00  0.00    -0.187 C  
HETATM    6  C   UNL     1      -8.687  13.512  68.242  1.00  0.00    -0.172 C  
BRANCH   6   7
HETATM    7  C   UNL     1      -9.001  12.283  67.464  1.00  0.00    -0.180 C  
HETATM    8  N   UNL     1      -8.046  11.975  66.508  1.00  0.00    -0.388 N  
HETATM    9  O   UNL     1      -9.982  11.599  67.740  1.00  0.00    -0.175 OA 
HETATM   10  H   UNL     1      -7.288  12.635  66.336  1.00  0.00     0.000 HD 
BRANCH   8  11
HETATM   11  C   UNL     1      -8.089  10.773  65.763  1.00  0.00    -0.135 A  
HETATM   12  C   UNL     1      -8.594  10.715  64.463  1.00  0.00    -0.110 A  
HETATM   13  N   UNL     1      -7.228   5.974  65.442  1.00  0.00    -0.072 NA 
HETATM   14  C   UNL     1      -8.542   9.497  63.766  1.00  0.00    -0.222 A  
HETATM   15  C   UNL     1      -7.659   9.574  66.361  1.00  0.00    -0.097 A  
HETATM   16  C   UNL     1      -8.051   8.321  64.326  1.00  0.00    -0.147 A  
HETATM   17  C   UNL     1      -7.654   8.335  65.665  1.00  0.00    -0.083 A  
HETATM   18  N   UNL     1      -8.011   7.219  63.572  1.00  0.00    -0.103 NA 
HETATM   19  C   UNL     1      -7.572   6.101  64.160  1.00  0.00    -0.096 A  
HETATM   20  C   UNL     1      -7.280   7.080  66.205  1.00  0.00    -0.075 A  
BRANCH  12  21
HETATM   21  O   UNL     1      -9.297  11.690  63.817  1.00  0.00    -0.125 OA 
BRANCH  21  22
HETATM   22  C   UNL     1     -10.521  12.199  64.333  1.00  0.00    -0.317 C  
HETATM   23  C   UNL     1     -12.130  13.961  64.032  1.00  0.00    -0.396 C  
HETATM   24  C   UNL     1     -11.606  11.838  63.323  1.00  0.00    -0.228 C  
HETATM   25  O   UNL     1     -12.691  12.733  63.556  1.00  0.00    -0.713 OA 
HETATM   26  C   UNL     1     -10.673  13.707  64.402  1.00  0.00    -0.369 C  
ENDBRANCH  21  22
ENDBRANCH  12  21
BRANCH  20  27
HETATM   27  N   UNL     1      -6.957   6.981  67.588  1.00  0.00    -0.080 NA 
HETATM   28  H   UNL     1      -5.976   6.797  67.802  1.00  0.00     0.000 HD 
BRANCH  27  29
HETATM   29  C   UNL     1      -7.819   7.104  68.706  1.00  0.00    -0.122 A  
HETATM   30  C   UNL     1      -9.153   6.668  68.695  1.00  0.00    -0.126 A  
HETATM   31  C   UNL     1      -9.948   6.765  69.840  1.00  0.00    -0.172 A  
HETATM   32 CL   UNL     1     -11.598   6.261  69.766  1.00  0.00    -0.459 Cl 
HETATM   33  C   UNL     1      -9.415   7.271  71.019  1.00  0.00    -0.158 A  
HETATM   34  C   UNL     1      -8.086   7.661  71.072  1.00  0.00    -0.095 A  
HETATM   35  F   UNL     1     -10.165   7.370  72.124  1.00  0.00    -0.195 F  
HETATM   36  C   UNL     1      -7.289   7.570  69.925  1.00  0.00    -0.082 A  
ENDBRANCH  27  29
ENDBRANCH  20  27
ENDBRANCH   8  11
ENDBRANCH   6   7
ENDBRANCH   4   5
ENDBRANCH   2   4
TORSDOF 8
ENDMDL
MODEL      123
REMARK 921   NORMALIZED FREE ENERGY PREDICTED BY IDOCK:   -4.55 KCAL/MOL
REMARK 922        TOTAL FREE ENERGY PREDICTED BY IDOCK:   -8.21 KCAL/MOL
REMARK 923 INTER-LIGAND FREE ENERGY PREDICTED BY IDOCK:   -6.91 KCAL/MOL
REMARK 924 INTRA-LIGAND FREE ENERGY PREDICTED BY IDOCK:   -1.30 KCAL/MOL
REMARK 927      BINDING AFFINITY PREDICTED BY RF-SCORE:    0.00 PKD
ROOT
HETATM    1  C   UNL     1      -7.791   4.541  64.687  1.00  0.00    -0.086 C  
HETATM    2  N   UNL     1      -6.676   5.382  65.142  1.00  0.00    -0.044 NA 
HETATM    3  C   UNL     1      -6.955   6.776  64.767  1.00  0.00    -0.055 C  
ENDROOT
BRANCH   2   4
HETATM    4  C   UNL     1      -6.515   5.298  66.604  1.00  0.00    -0.041 C  
BRANCH   4   5
HETATM    5  C   UNL     1      -7.151   6.391  67.416  1.00  0.00    -0.077 C  
HETATM    6  C   UNL     1      -6.603   7.097  68.421  1.00  0.00    -0.048 C  
BRANCH   6   7
HETATM    7  C   UNL     1      -7.421   8.134  69.105  1.00  0.00    -0.087 C  
HETATM    8  N   UNL     1      -8.693   8.276  68.572  1.00  0.00    -0.133 N  
HETATM    9  O   UNL     1      -6.993   8.720  70.094  1.00  0.00    -0.041 OA 
HETATM   10  H   UNL     1      -8.932   7.764  67.722  1.00  0.00     0.000 HD 
BRANCH   8  11
HETATM   11  C   UNL     1      -9.670   9.107  69.168  1.00  0.00    -0.163 A  
HETATM   12  C   UNL     1     -10.510   8.661  70.190  1.00  0.00    -0.217 A  
HETATM   13  N   UNL     1     -11.922  13.434  69.459  1.00  0.00    -0.323 NA 
HETATM   14  C   UNL     1     -11.409   9.567  70.775  1.00  0.00    -0.387 A  
HETATM   15  C   UNL     1      -9.848  10.418  68.689  1.00  0.00    -0.183 A  
HETATM   16  C   UNL     1     -11.542  10.887  70.354  1.00  0.00    -0.323 A  
HETATM   17  C   UNL     1     -10.794  11.314  69.254  1.00  0.00    -0.259 A  
HETATM   18  N   UNL     1     -12.402  11.682  70.997  1.00  0.00    -0.342 NA 
HETATM   19  C   UNL     1     -12.529  12.930  70.535  1.00  0.00    -0.217 A  
HETATM   20  C   UNL     1     -11.065  12.629  68.805  1.00  0.00    -0.263 A  
BRANCH  12  21
HETATM   21  O   UNL     1     -10.681   7.371  70.601  1.00  0.00    -0.221 OA 
BRANCH  21  22
HETATM   22  C   UNL     1      -9.995   6.848  71.733  1.00  0.00    -0.173 C  
HETATM   23  C   UNL     1      -9.513   7.298  74.045  1.00  0.00    -0.251 C  
HETATM   24  C   UNL     1     -11.061   6.295  72.674  1.00  0.00    -0.263 C  
HETATM   25  O   UNL     1     -10.467   6.234  73.968  1.00  0.00    -0.293 OA 
HETATM   26  C   UNL     1      -9.289   7.838  72.638  1.00  0.00    -0.246 C  
ENDBRANCH  21  22
ENDBRANCH  12  21
BRANCH  20  27
HETATM   27  N   UNL     1     -10.424  13.114  67.630  1.00  0.00    -0.220 NA 
HETATM   28  H   UNL     1      -9.862  12.432  67.118  1.00  0.00     0.000 HD 
BRANCH  27  29
HETATM   29  C   UNL     1     -10.463  14.418  67.078  1.00  0.00    -0.268 A  
HETATM   30  C   UNL     1      -9.653  15.468  67.539  1.00  0.00    -0.212 A  
HETATM   31  C   UNL     1      -9.691  16.724  66.928  1.00  0.00    -0.257 A  
HETATM   32 CL   UNL     1      -8.714  17.999  67.560  1.00  0.00    -0.246 Cl 
HETATM   33  C   UNL     1     -10.516  16.942  65.832  1.00  0.00    -0.285 A  
HETATM   34  C   UNL     1     -11.288  15.908  65.324  1.00  0.00    -0.049 A  
HETATM   35  F   UNL     1     -10.563  18.140  65.236  1.00  0.00    -0.306 F  
HETATM   36  C   UNL     1     -11.255  14.652  65.937  1.00  0.00    -0.336 A  
ENDBRANCH  27  29
ENDBRANCH  20  27
ENDBRANCH   8  11
ENDBRANCH   6   7
ENDBRANCH   4   5
ENDBRANCH   2   4
TORSDOF 8
ENDMDL
MODEL      124
REMARK 921   NORMALIZED FREE ENERGY PREDICTED BY IDOCK:   -4.54 KCAL/MOL
REMARK 922        TOTAL FREE ENERGY PREDICTED BY IDOCK:   -8.21 KCAL/MOL
REMARK 923 INTER-LIGAND FREE ENERGY PREDICTED BY IDOCK:   -7.43 KCAL/MOL
REMARK 924 INTRA-LIGAND FREE ENERGY PREDICTED BY IDOCK:   -0.78 KCAL/MOL
REMARK 927      BINDING AFFINITY PREDICTED BY RF-SCORE:    0.00 PKD
ROOT
HETATM    1  C   UNL     1      -5.140   8.446  66.123  1.00  0.00    -0.027 C  
HETATM    2  N   UNL     1      -5.516   8.868  64.767  1.00  0.00    -0.046 NA 
HETATM    3  C   UNL     1      -6.321   7.804  64.149  1.00  0.00    -0.057 C  
ENDROOT
BRANCH   2   4
HETATM    4  C   UNL     1      -6.304  10.112  64.802  1.00  0.00    -0.131 C  
BRANCH   4   5
HETATM    5  C   UNL     1      -7.140  10.345  66.029  1.00  0.00    -0.133 C  
HETATM    6  C   UNL     1      -7.457  11.521  66.600  1.00  0.00    -0.078 C  
BRANCH   6   7
HETATM    7  C   UNL     1      -8.292  11.524  67.831  1.00  0.00    -0.136 C  
HETATM    8  N   UNL     1      -9.601  11.123  67.612  1.00  0.00    -0.168 N  
HETATM    9  O   UNL     1      -7.799  11.785  68.924  1.00  0.00    -0.105 OA 
HETATM   10  H   UNL     1      -9.916  10.966  66.654  1.00  0.00     0.000 HD 
BRANCH   8  11
HETATM   11  C   UNL     1     -10.514  10.925  68.674  1.00  0.00    -0.194 A  
HETATM   12  C   UNL     1     -11.538  11.829  68.960  1.00  0.00    -0.311 A  
HETATM   13  N   UNL     1     -12.095   8.232  72.432  1.00  0.00    -0.377 NA 
HETATM   14  C   UNL     1     -12.443  11.528  69.991  1.00  0.00    -0.192 A  
HETATM   15  C   UNL     1     -10.364   9.805  69.514  1.00  0.00    -0.247 A  
HETATM   16  C   UNL     1     -12.344  10.386  70.780  1.00  0.00    -0.367 A  
HETATM   17  C   UNL     1     -11.256   9.532  70.585  1.00  0.00    -0.364 A  
HETATM   18  N   UNL     1     -13.275  10.169  71.715  1.00  0.00    -0.432 NA 
HETATM   19  C   UNL     1     -13.121   9.083  72.479  1.00  0.00    -0.385 A  
HETATM   20  C   UNL     1     -11.152   8.457  71.500  1.00  0.00    -0.266 A  
BRANCH  12  21
HETATM   21  O   UNL     1     -11.683  13.086  68.450  1.00  0.00    -0.311 OA 
BRANCH  21  22
HETATM   22  C   UNL     1     -11.130  13.452  67.190  1.00  0.00    -0.286 C  
HETATM   23  C   UNL     1     -11.639  14.628  65.155  1.00  0.00    -0.371 C  
HETATM   24  C   UNL     1     -10.800  14.940  67.272  1.00  0.00    -0.306 C  
HETATM   25  O   UNL     1     -10.727  15.413  65.930  1.00  0.00    -0.315 OA 
HETATM   26  C   UNL     1     -12.056  13.422  65.989  1.00  0.00    -0.487 C  
ENDBRANCH  21  22
ENDBRANCH  12  21
BRANCH  20  27
HETATM   27  N   UNL     1     -10.021   7.594  71.440  1.00  0.00    -0.181 NA 
HETATM   28  H   UNL     1      -9.390   7.633  72.241  1.00  0.00     0.000 HD 
BRANCH  27  29
HETATM   29  C   UNL     1      -9.657   6.687  70.414  1.00  0.00    -0.165 A  
HETATM   30  C   UNL     1      -8.343   6.229  70.229  1.00  0.00    -0.126 A  
HETATM   31  C   UNL     1      -8.043   5.296  69.233  1.00  0.00    -0.092 A  
HETATM   32 CL   UNL     1      -6.405   4.798  69.010  1.00  0.00    -0.031 Cl 
HETATM   33  C   UNL     1      -9.054   4.785  68.429  1.00  0.00    -0.117 A  
HETATM   34  C   UNL     1     -10.367   5.181  68.624  1.00  0.00    -0.148 A  
HETATM   35  F   UNL     1      -8.781   3.889  67.471  1.00  0.00    -0.096 F  
HETATM   36  C   UNL     1     -10.669   6.120  69.616  1.00  0.00    -0.385 A  
ENDBRANCH  27  29
ENDBRANCH  20  27
ENDBRANCH   8  11
ENDBRANCH   6   7
ENDBRANCH   4   5
ENDBRANCH   2   4
TORSDOF 8
ENDMDL
MODEL      125
REMARK 921   NORMALIZED FREE ENERGY PREDICTED BY IDOCK:   -4.52 KCAL/MOL
REMARK 922        TOTAL FREE ENERGY PREDICTED BY IDOCK:   -8.18 KCAL/MOL
REMARK 923 INTER-LIGAND FREE ENERGY PREDICTED BY IDOCK:   -6.91 KCAL/MOL
REMARK 924 INTRA-LIGAND FREE ENERGY PREDICTED BY IDOCK:   -1.27 KCAL/MOL
REMARK 927      BINDING AFFINITY PREDICTED BY RF-SCORE:    0.00 PKD
ROOT
HETATM    1  C   UNL     1      -5.879   5.406  73.615  1.00  0.00    -0.032 C  
HETATM    2  N   UNL     1      -6.107   6.022  72.301  1.00  0.00    -0.040 NA 
HETATM    3  C   UNL     1      -7.544   5.959  71.996  1.00  0.00    -0.097 C  
ENDROOT
BRANCH   2   4
HETATM    4  C   UNL     1      -5.673   7.429  72.297  1.00  0.00    -0.037 C  
BRANCH   4   5
HETATM    5  C   UNL     1      -6.398   8.354  71.361  1.00  0.00    -0.045 C  
HETATM    6  C   UNL     1      -6.100   9.633  71.070  1.00  0.00    -0.077 C  
BRANCH   6   7
HETATM    7  C   UNL     1      -6.966  10.378  70.117  1.00  0.00    -0.141 C  
HETATM    8  N   UNL     1      -8.087   9.668  69.718  1.00  0.00    -0.136 N  
HETATM    9  O   UNL     1      -6.710  11.539  69.812  1.00  0.00    -0.122 OA 
HETATM   10  H   UNL     1      -8.182   8.693  70.003  1.00  0.00     0.000 HD 
BRANCH   8  11
HETATM   11  C   UNL     1      -9.105  10.252  68.927  1.00  0.00    -0.168 A  
HETATM   12  C   UNL     1     -10.368  10.555  69.437  1.00  0.00    -0.234 A  
HETATM   13  N   UNL     1     -10.631  11.987  64.622  1.00  0.00    -0.291 NA 
HETATM   14  C   UNL     1     -11.302  11.194  68.605  1.00  0.00    -0.342 A  
HETATM   15  C   UNL     1      -8.866  10.493  67.562  1.00  0.00    -0.131 A  
HETATM   16  C   UNL     1     -11.048  11.501  67.272  1.00  0.00    -0.293 A  
HETATM   17  C   UNL     1      -9.833  11.096  66.714  1.00  0.00    -0.230 A  
HETATM   18  N   UNL     1     -11.988  12.141  66.570  1.00  0.00    -0.631 NA 
HETATM   19  C   UNL     1     -11.721  12.380  65.282  1.00  0.00    -0.390 A  
HETATM   20  C   UNL     1      -9.690  11.332  65.325  1.00  0.00    -0.239 A  
BRANCH  12  21
HETATM   21  O   UNL     1     -10.881  10.158  70.637  1.00  0.00    -0.308 OA 
BRANCH  21  22
HETATM   22  C   UNL     1     -12.142   9.506  70.735  1.00  0.00    -0.232 C  
HETATM   23  C   UNL     1     -13.433   8.053  72.151  1.00  0.00    -0.165 C  
HETATM   24  C   UNL     1     -12.950  10.270  71.780  1.00  0.00    -0.469 C  
HETATM   25  O   UNL     1     -13.964   9.379  72.238  1.00  0.00    -0.412 OA 
HETATM   26  C   UNL     1     -12.159   8.105  71.316  1.00  0.00    -0.313 C  
ENDBRANCH  21  22
ENDBRANCH  12  21
BRANCH  20  27
HETATM   27  N   UNL     1      -8.527  10.862  64.651  1.00  0.00    -0.372 NA 
HETATM   28  H   UNL     1      -7.801  11.559  64.482  1.00  0.00     0.000 HD 
BRANCH  27  29
HETATM   29  C   UNL     1      -8.245   9.554  64.185  1.00  0.00    -0.159 A  
HETATM   30  C   UNL     1      -7.860   8.506  65.036  1.00  0.00    -0.112 A  
HETATM   31  C   UNL     1      -7.643   7.220  64.536  1.00  0.00    -0.107 A  
HETATM   32 CL   UNL     1      -7.122   5.973  65.611  1.00  0.00    -0.071 Cl 
HETATM   33  C   UNL     1      -7.835   6.955  63.186  1.00  0.00    -0.104 A  
HETATM   34  C   UNL     1      -8.266   7.959  62.333  1.00  0.00    -0.141 A  
HETATM   35  F   UNL     1      -7.632   5.727  62.692  1.00  0.00    -0.055 F  
HETATM   36  C   UNL     1      -8.478   9.249  62.831  1.00  0.00    -0.212 A  
ENDBRANCH  27  29
ENDBRANCH  20  27
ENDBRANCH   8  11
ENDBRANCH   6   7
ENDBRANCH   4   5
ENDBRANCH   2   4
TORSDOF 8
ENDMDL
MODEL      126
REMARK 921   NORMALIZED FREE ENERGY PREDICTED BY IDOCK:   -4.51 KCAL/MOL
REMARK 922        TOTAL FREE ENERGY PREDICTED BY IDOCK:   -8.16 KCAL/MOL
REMARK 923 INTER-LIGAND FREE ENERGY PREDICTED BY IDOCK:   -6.64 KCAL/MOL
REMARK 924 INTRA-LIGAND FREE ENERGY PREDICTED BY IDOCK:   -1.52 KCAL/MOL
REMARK 927      BINDING AFFINITY PREDICTED BY RF-SCORE:    0.00 PKD
ROOT
HETATM    1  C   UNL     1      -6.648   3.675  62.941  1.00  0.00    -0.030 C  
HETATM    2  N   UNL     1      -7.943   4.341  62.756  1.00  0.00    -0.066 NA 
HETATM    3  C   UNL     1      -8.898   3.793  63.731  1.00  0.00    -0.100 C  
ENDROOT
BRANCH   2   4
HETATM    4  C   UNL     1      -7.822   5.795  62.962  1.00  0.00    -0.097 C  
BRANCH   4   5
HETATM    5  C   UNL     1      -7.892   6.281  64.382  1.00  0.00    -0.115 C  
HETATM    6  C   UNL     1      -7.492   7.470  64.868  1.00  0.00    -0.089 C  
BRANCH   6   7
HETATM    7  C   UNL     1      -7.640   7.743  66.323  1.00  0.00    -0.087 C  
HETATM    8  N   UNL     1      -8.574   6.930  66.945  1.00  0.00    -0.114 N  
HETATM    9  O   UNL     1      -6.921   8.564  66.884  1.00  0.00    -0.072 OA 
HETATM   10  H   UNL     1      -9.145   6.306  66.375  1.00  0.00     0.000 HD 
BRANCH   8  11
HETATM   11  C   UNL     1      -8.760   6.937  68.348  1.00  0.00    -0.124 A  
HETATM   12  C   UNL     1      -8.025   6.115  69.205  1.00  0.00    -0.108 A  
HETATM   13  N   UNL     1     -11.069   8.669  72.290  1.00  0.00    -0.357 NA 
HETATM   14  C   UNL     1      -8.223   6.229  70.591  1.00  0.00    -0.125 A  
HETATM   15  C   UNL     1      -9.754   7.759  68.909  1.00  0.00    -0.160 A  
HETATM   16  C   UNL     1      -9.156   7.092  71.158  1.00  0.00    -0.153 A  
HETATM   17  C   UNL     1      -9.981   7.833  70.309  1.00  0.00    -0.189 A  
HETATM   18  N   UNL     1      -9.246   7.153  72.490  1.00  0.00    -0.137 NA 
HETATM   19  C   UNL     1     -10.183   7.964  72.994  1.00  0.00    -0.327 A  
HETATM   20  C   UNL     1     -10.987   8.597  70.949  1.00  0.00    -0.253 A  
BRANCH  12  21
HETATM   21  O   UNL     1      -7.223   5.072  68.846  1.00  0.00    -0.056 OA 
BRANCH  21  22
HETATM   22  C   UNL     1      -7.688   3.727  68.869  1.00  0.00    -0.053 C  
HETATM   23  C   UNL     1      -9.225   2.223  67.792  1.00  0.00    -0.184 C  
HETATM   24  C   UNL     1      -7.078   3.032  67.655  1.00  0.00    -0.050 C  
HETATM   25  O   UNL     1      -7.893   1.893  67.388  1.00  0.00    -0.060 OA 
HETATM   26  C   UNL     1      -9.167   3.497  68.626  1.00  0.00    -0.225 C  
ENDBRANCH  21  22
ENDBRANCH  12  21
BRANCH  20  27
HETATM   27  N   UNL     1     -11.937   9.305  70.160  1.00  0.00    -0.454 NA 
HETATM   28  H   UNL     1     -12.707   8.748  69.788  1.00  0.00     0.000 HD 
BRANCH  27  29
HETATM   29  C   UNL     1     -11.954  10.682  69.824  1.00  0.00    -0.291 A  
HETATM   30  C   UNL     1     -12.226  11.694  70.757  1.00  0.00    -0.443 A  
HETATM   31  C   UNL     1     -12.181  13.041  70.388  1.00  0.00    -0.310 A  
HETATM   32 CL   UNL     1     -12.570  14.249  71.558  1.00  0.00    -0.412 Cl 
HETATM   33  C   UNL     1     -11.835  13.396  69.090  1.00  0.00    -0.336 A  
HETATM   34  C   UNL     1     -11.511  12.419  68.162  1.00  0.00    -0.370 A  
HETATM   35  F   UNL     1     -11.786  14.683  68.722  1.00  0.00    -0.309 F  
HETATM   36  C   UNL     1     -11.562  11.070  68.528  1.00  0.00    -0.380 A  
ENDBRANCH  27  29
ENDBRANCH  20  27
ENDBRANCH   8  11
ENDBRANCH   6   7
ENDBRANCH   4   5
ENDBRANCH   2   4
TORSDOF 8
ENDMDL
MODEL      127
REMARK 921   NORMALIZED FREE ENERGY PREDICTED BY IDOCK:   -4.51 KCAL/MOL
REMARK 922        TOTAL FREE ENERGY PREDICTED BY IDOCK:   -8.16 KCAL/MOL
REMARK 923 INTER-LIGAND FREE ENERGY PREDICTED BY IDOCK:   -6.70 KCAL/MOL
REMARK 924 INTRA-LIGAND FREE ENERGY PREDICTED BY IDOCK:   -1.46 KCAL/MOL
REMARK 927      BINDING AFFINITY PREDICTED BY RF-SCORE:    0.00 PKD
ROOT
HETATM    1  C   UNL     1     -11.139  15.068  65.044  1.00  0.00    -0.413 C  
HETATM    2  N   UNL     1     -10.784  14.093  66.084  1.00  0.00    -0.293 NA 
HETATM    3  C   UNL     1     -11.114  14.666  67.398  1.00  0.00    -0.326 C  
ENDROOT
BRANCH   2   4
HETATM    4  C   UNL     1     -11.530  12.836  65.904  1.00  0.00    -0.356 C  
BRANCH   4   5
HETATM    5  C   UNL     1     -10.890  11.590  66.449  1.00  0.00    -0.334 C  
HETATM    6  C   UNL     1     -11.260  10.878  67.529  1.00  0.00    -0.364 C  
BRANCH   6   7
HETATM    7  C   UNL     1     -10.471   9.674  67.905  1.00  0.00    -0.246 C  
HETATM    8  N   UNL     1     -11.147   8.483  67.692  1.00  0.00    -0.394 N  
HETATM    9  O   UNL     1      -9.308   9.778  68.283  1.00  0.00    -0.129 OA 
HETATM   10  H   UNL     1     -12.127   8.513  67.411  1.00  0.00     0.000 HD 
BRANCH   8  11
HETATM   11  C   UNL     1     -10.521   7.224  67.854  1.00  0.00    -0.209 A  
HETATM   12  C   UNL     1     -10.574   6.510  69.051  1.00  0.00    -0.245 A  
HETATM   13  N   UNL     1      -7.831   3.583  66.015  1.00  0.00    -0.088 NA 
HETATM   14  C   UNL     1      -9.982   5.237  69.111  1.00  0.00    -0.275 A  
HETATM   15  C   UNL     1      -9.769   6.686  66.793  1.00  0.00    -0.217 A  
HETATM   16  C   UNL     1      -9.297   4.666  68.042  1.00  0.00    -0.135 A  
HETATM   17  C   UNL     1      -9.132   5.419  66.877  1.00  0.00    -0.114 A  
HETATM   18  N   UNL     1      -8.797   3.435  68.184  1.00  0.00    -0.109 NA 
HETATM   19  C   UNL     1      -8.110   2.940  67.150  1.00  0.00    -0.079 A  
HETATM   20  C   UNL     1      -8.324   4.827  65.876  1.00  0.00    -0.116 A  
BRANCH  12  21
HETATM   21  O   UNL     1     -11.010   6.971  70.259  1.00  0.00    -0.250 OA 
BRANCH  21  22
HETATM   22  C   UNL     1     -10.246   6.800  71.447  1.00  0.00    -0.198 C  
HETATM   23  C   UNL     1      -9.433   7.982  73.377  1.00  0.00    -0.237 C  
HETATM   24  C   UNL     1     -11.238   6.783  72.607  1.00  0.00    -0.255 C  
HETATM   25  O   UNL     1     -10.496   7.111  73.779  1.00  0.00    -0.371 OA 
HETATM   26  C   UNL     1      -9.333   7.939  71.857  1.00  0.00    -0.204 C  
ENDBRANCH  21  22
ENDBRANCH  12  21
BRANCH  20  27
HETATM   27  N   UNL     1      -8.018   5.563  64.696  1.00  0.00    -0.108 NA 
HETATM   28  H   UNL     1      -8.349   5.155  63.821  1.00  0.00     0.000 HD 
BRANCH  27  29
HETATM   29  C   UNL     1      -7.315   6.788  64.578  1.00  0.00    -0.090 A  
HETATM   30  C   UNL     1      -7.913   7.970  64.115  1.00  0.00    -0.137 A  
HETATM   31  C   UNL     1      -7.191   9.166  64.065  1.00  0.00    -0.096 A  
HETATM   32 CL   UNL     1      -7.952  10.585  63.442  1.00  0.00    -0.102 Cl 
HETATM   33  C   UNL     1      -5.873   9.204  64.503  1.00  0.00    -0.069 A  
HETATM   34  C   UNL     1      -5.275   8.062  65.013  1.00  0.00    -0.032 A  
HETATM   35  F   UNL     1      -5.169  10.342  64.462  1.00  0.00    -0.078 F  
HETATM   36  C   UNL     1      -5.994   6.863  65.059  1.00  0.00    -0.036 A  
ENDBRANCH  27  29
ENDBRANCH  20  27
ENDBRANCH   8  11
ENDBRANCH   6   7
ENDBRANCH   4   5
ENDBRANCH   2   4
TORSDOF 8
ENDMDL
MODEL      128
REMARK 921   NORMALIZED FREE ENERGY PREDICTED BY IDOCK:   -4.49 KCAL/MOL
REMARK 922        TOTAL FREE ENERGY PREDICTED BY IDOCK:   -8.13 KCAL/MOL
REMARK 923 INTER-LIGAND FREE ENERGY PREDICTED BY IDOCK:   -7.16 KCAL/MOL
REMARK 924 INTRA-LIGAND FREE ENERGY PREDICTED BY IDOCK:   -0.98 KCAL/MOL
REMARK 927      BINDING AFFINITY PREDICTED BY RF-SCORE:    0.00 PKD
ROOT
HETATM    1  C   UNL     1      -7.826   1.684  68.750  1.00  0.00    -0.045 C  
HETATM    2  N   UNL     1      -9.211   2.148  68.894  1.00  0.00    -0.142 NA 
HETATM    3  C   UNL     1      -9.373   2.738  70.232  1.00  0.00    -0.140 C  
ENDROOT
BRANCH   2   4
HETATM    4  C   UNL     1      -9.535   3.163  67.876  1.00  0.00    -0.160 C  
BRANCH   4   5
HETATM    5  C   UNL     1      -9.411   4.601  68.296  1.00  0.00    -0.200 C  
HETATM    6  C   UNL     1     -10.282   5.602  68.077  1.00  0.00    -0.234 C  
BRANCH   6   7
HETATM    7  C   UNL     1      -9.954   6.966  68.570  1.00  0.00    -0.148 C  
HETATM    8  N   UNL     1      -8.596   7.177  68.750  1.00  0.00    -0.125 N  
HETATM    9  O   UNL     1     -10.832   7.812  68.708  1.00  0.00    -0.114 OA 
HETATM   10  H   UNL     1      -7.955   6.390  68.643  1.00  0.00     0.000 HD 
BRANCH   8  11
HETATM   11  C   UNL     1      -8.070   8.449  69.078  1.00  0.00    -0.116 A  
HETATM   12  C   UNL     1      -7.502   8.725  70.323  1.00  0.00    -0.067 A  
HETATM   13  N   UNL     1      -7.123  13.075  67.825  1.00  0.00    -0.123 NA 
HETATM   14  C   UNL     1      -6.942   9.994  70.548  1.00  0.00    -0.098 A  
HETATM   15  C   UNL     1      -8.163   9.497  68.144  1.00  0.00    -0.114 A  
HETATM   16  C   UNL     1      -6.967  11.015  69.603  1.00  0.00    -0.110 A  
HETATM   17  C   UNL     1      -7.637  10.792  68.397  1.00  0.00    -0.102 A  
HETATM   18  N   UNL     1      -6.377  12.177  69.898  1.00  0.00    -0.115 NA 
HETATM   19  C   UNL     1      -6.459  13.145  68.979  1.00  0.00    -0.103 A  
HETATM   20  C   UNL     1      -7.728  11.910  67.533  1.00  0.00    -0.151 A  
BRANCH  12  21
HETATM   21  O   UNL     1      -7.560   7.943  71.439  1.00  0.00    -0.076 OA 
BRANCH  21  22
HETATM   22  C   UNL     1      -8.779   7.353  71.878  1.00  0.00    -0.114 C  
HETATM   23  C   UNL     1     -10.064   6.879  73.854  1.00  0.00    -0.357 C  
HETATM   24  C   UNL     1      -9.707   8.500  72.264  1.00  0.00    -0.310 C  
HETATM   25  O   UNL     1     -10.689   7.950  73.140  1.00  0.00    -0.368 OA 
HETATM   26  C   UNL     1      -8.742   6.557  73.168  1.00  0.00    -0.128 C  
ENDBRANCH  21  22
ENDBRANCH  12  21
BRANCH  20  27
HETATM   27  N   UNL     1      -8.479  11.804  66.328  1.00  0.00    -0.370 NA 
HETATM   28  H   UNL     1      -8.038  11.273  65.576  1.00  0.00     0.000 HD 
BRANCH  27  29
HETATM   29  C   UNL     1      -9.758  12.339  66.037  1.00  0.00    -0.242 A  
HETATM   30  C   UNL     1     -10.538  11.908  64.952  1.00  0.00    -0.333 A  
HETATM   31  C   UNL     1     -11.816  12.430  64.736  1.00  0.00    -0.382 A  
HETATM   32 CL   UNL     1     -12.720  11.906  63.362  1.00  0.00    -0.655 Cl 
HETATM   33  C   UNL     1     -12.344  13.367  65.615  1.00  0.00    -0.470 A  
HETATM   34  C   UNL     1     -11.616  13.772  66.723  1.00  0.00    -0.394 A  
HETATM   35  F   UNL     1     -13.568  13.876  65.421  1.00  0.00    -0.294 F  
HETATM   36  C   UNL     1     -10.335  13.255  66.938  1.00  0.00    -0.255 A  
ENDBRANCH  27  29
ENDBRANCH  20  27
ENDBRANCH   8  11
ENDBRANCH   6   7
ENDBRANCH   4   5
ENDBRANCH   2   4
TORSDOF 8
ENDMDL
MODEL      129
REMARK 921   NORMALIZED FREE ENERGY PREDICTED BY IDOCK:   -4.46 KCAL/MOL
REMARK 922        TOTAL FREE ENERGY PREDICTED BY IDOCK:   -8.08 KCAL/MOL
REMARK 923 INTER-LIGAND FREE ENERGY PREDICTED BY IDOCK:   -7.46 KCAL/MOL
REMARK 924 INTRA-LIGAND FREE ENERGY PREDICTED BY IDOCK:   -0.62 KCAL/MOL
REMARK 927      BINDING AFFINITY PREDICTED BY RF-SCORE:    0.00 PKD
ROOT
HETATM    1  C   UNL     1     -12.752  14.073  65.224  1.00  0.00    -0.439 C  
HETATM    2  N   UNL     1     -12.376  12.654  65.257  1.00  0.00    -0.576 NA 
HETATM    3  C   UNL     1     -12.760  12.037  63.978  1.00  0.00    -0.305 C  
ENDROOT
BRANCH   2   4
HETATM    4  C   UNL     1     -10.924  12.499  65.452  1.00  0.00    -0.294 C  
BRANCH   4   5
HETATM    5  C   UNL     1     -10.480  11.347  66.309  1.00  0.00    -0.301 C  
HETATM    6  C   UNL     1     -10.723  11.151  67.617  1.00  0.00    -0.273 C  
BRANCH   6   7
HETATM    7  C   UNL     1     -10.172   9.938  68.281  1.00  0.00    -0.176 C  
HETATM    8  N   UNL     1     -11.124   8.962  68.528  1.00  0.00    -0.442 N  
HETATM    9  O   UNL     1      -8.967   9.831  68.491  1.00  0.00    -0.122 OA 
HETATM   10  H   UNL     1     -12.106   9.172  68.348  1.00  0.00     0.000 HD 
BRANCH   8  11
HETATM   11  C   UNL     1     -10.777   7.682  69.022  1.00  0.00    -0.119 A  
HETATM   12  C   UNL     1     -11.094   7.269  70.317  1.00  0.00    -0.266 A  
HETATM   13  N   UNL     1      -8.680   3.322  68.342  1.00  0.00    -0.094 NA 
HETATM   14  C   UNL     1     -10.773   5.959  70.710  1.00  0.00    -0.344 A  
HETATM   15  C   UNL     1     -10.040   6.803  68.207  1.00  0.00    -0.173 A  
HETATM   16  C   UNL     1     -10.107   5.059  69.885  1.00  0.00    -0.274 A  
HETATM   17  C   UNL     1      -9.677   5.497  68.630  1.00  0.00    -0.186 A  
HETATM   18  N   UNL     1      -9.876   3.823  70.337  1.00  0.00    -0.144 NA 
HETATM   19  C   UNL     1      -9.197   3.002  69.529  1.00  0.00    -0.147 A  
HETATM   20  C   UNL     1      -8.901   4.570  67.892  1.00  0.00    -0.107 A  
BRANCH  12  21
HETATM   21  O   UNL     1     -11.554   8.053  71.334  1.00  0.00    -0.256 OA 
BRANCH  21  22
HETATM   22  C   UNL     1     -10.701   8.496  72.383  1.00  0.00    -0.306 C  
HETATM   23  C   UNL     1      -8.908   7.777  73.816  1.00  0.00    -0.269 C  
HETATM   24  C   UNL     1      -9.326   8.724  71.763  1.00  0.00    -0.280 C  
HETATM   25  O   UNL     1      -8.386   8.677  72.833  1.00  0.00    -0.400 OA 
HETATM   26  C   UNL     1     -10.369   7.501  73.478  1.00  0.00    -0.373 C  
ENDBRANCH  21  22
ENDBRANCH  12  21
BRANCH  20  27
HETATM   27  N   UNL     1      -8.336   4.965  66.646  1.00  0.00    -0.107 NA 
HETATM   28  H   UNL     1      -8.377   4.270  65.900  1.00  0.00     0.000 HD 
BRANCH  27  29
HETATM   29  C   UNL     1      -7.723   6.197  66.307  1.00  0.00    -0.099 A  
HETATM   30  C   UNL     1      -8.222   7.050  65.311  1.00  0.00    -0.128 A  
HETATM   31  C   UNL     1      -7.611   8.279  65.047  1.00  0.00    -0.095 A  
HETATM   32 CL   UNL     1      -8.231   9.274  63.780  1.00  0.00    -0.156 Cl 
HETATM   33  C   UNL     1      -6.513   8.686  65.794  1.00  0.00    -0.056 A  
HETATM   34  C   UNL     1      -6.031   7.886  66.818  1.00  0.00    -0.048 A  
HETATM   35  F   UNL     1      -5.917   9.861  65.554  1.00  0.00    -0.058 F  
HETATM   36  C   UNL     1      -6.637   6.653  67.079  1.00  0.00    -0.048 A  
ENDBRANCH  27  29
ENDBRANCH  20  27
ENDBRANCH   8  11
ENDBRANCH   6   7
ENDBRANCH   4   5
ENDBRANCH   2   4
TORSDOF 8
ENDMDL
MODEL      130
REMARK 921   NORMALIZED FREE ENERGY PREDICTED BY IDOCK:   -4.45 KCAL/MOL
REMARK 922        TOTAL FREE ENERGY PREDICTED BY IDOCK:   -8.07 KCAL/MOL
REMARK 923 INTER-LIGAND FREE ENERGY PREDICTED BY IDOCK:   -6.42 KCAL/MOL
REMARK 924 INTRA-LIGAND FREE ENERGY PREDICTED BY IDOCK:   -1.66 KCAL/MOL
REMARK 927      BINDING AFFINITY PREDICTED BY RF-SCORE:    0.00 PKD
ROOT
HETATM    1  C   UNL     1      -7.872   2.309  63.966  1.00  0.00    -0.072 C  
HETATM    2  N   UNL     1      -9.181   1.950  64.527  1.00  0.00    -0.130 NA 
HETATM    3  C   UNL     1      -9.002   1.586  65.941  1.00  0.00    -0.102 C  
ENDROOT
BRANCH   2   4
HETATM    4  C   UNL     1     -10.122   3.080  64.434  1.00  0.00    -0.051 C  
BRANCH   4   5
HETATM    5  C   UNL     1      -9.805   4.290  65.267  1.00  0.00    -0.214 C  
HETATM    6  C   UNL     1     -10.619   4.945  66.114  1.00  0.00    -0.322 C  
BRANCH   6   7
HETATM    7  C   UNL     1     -10.102   6.140  66.834  1.00  0.00    -0.183 C  
HETATM    8  N   UNL     1      -8.721   6.161  66.950  1.00  0.00    -0.109 N  
HETATM    9  O   UNL     1     -10.863   7.032  67.196  1.00  0.00    -0.333 OA 
HETATM   10  H   UNL     1      -8.187   5.347  66.647  1.00  0.00     0.000 HD 
BRANCH   8  11
HETATM   11  C   UNL     1      -8.028   7.277  67.475  1.00  0.00    -0.113 A  
HETATM   12  C   UNL     1      -7.448   7.269  68.744  1.00  0.00    -0.102 A  
HETATM   13  N   UNL     1      -6.425  11.866  66.976  1.00  0.00    -0.151 NA 
HETATM   14  C   UNL     1      -6.721   8.394  69.167  1.00  0.00    -0.047 A  
HETATM   15  C   UNL     1      -7.958   8.464  66.722  1.00  0.00    -0.098 A  
HETATM   16  C   UNL     1      -6.587   9.546  68.398  1.00  0.00    -0.053 A  
HETATM   17  C   UNL     1      -7.261   9.615  67.177  1.00  0.00    -0.087 A  
HETATM   18  N   UNL     1      -5.846  10.552  68.873  1.00  0.00    -0.041 NA 
HETATM   19  C   UNL     1      -5.777  11.656  68.122  1.00  0.00    -0.046 A  
HETATM   20  C   UNL     1      -7.181  10.858  66.504  1.00  0.00    -0.142 A  
BRANCH  12  21
HETATM   21  O   UNL     1      -7.634   6.334  69.721  1.00  0.00    -0.082 OA 
BRANCH  21  22
HETATM   22  C   UNL     1      -8.809   6.313  70.524  1.00  0.00    -0.144 C  
HETATM   23  C   UNL     1     -10.212   4.842  71.810  1.00  0.00    -0.200 C  
HETATM   24  C   UNL     1      -8.347   6.177  71.972  1.00  0.00    -0.114 C  
HETATM   25  O   UNL     1      -9.458   5.666  72.705  1.00  0.00    -0.147 OA 
HETATM   26  C   UNL     1      -9.720   5.108  70.391  1.00  0.00    -0.270 C  
ENDBRANCH  21  22
ENDBRANCH  12  21
BRANCH  20  27
HETATM   27  N   UNL     1      -7.919  11.053  65.302  1.00  0.00    -0.360 NA 
HETATM   28  H   UNL     1      -7.408  10.884  64.435  1.00  0.00     0.000 HD 
BRANCH  27  29
HETATM   29  C   UNL     1      -9.271  11.452  65.152  1.00  0.00    -0.103 A  
HETATM   30  C   UNL     1      -9.954  12.214  66.113  1.00  0.00    -0.253 A  
HETATM   31  C   UNL     1     -11.271  12.626  65.896  1.00  0.00    -0.314 A  
HETATM   32 CL   UNL     1     -12.088  13.520  67.126  1.00  0.00    -0.410 Cl 
HETATM   33  C   UNL     1     -11.914  12.308  64.706  1.00  0.00    -0.362 A  
HETATM   34  C   UNL     1     -11.246  11.602  63.719  1.00  0.00    -0.498 A  
HETATM   35  F   UNL     1     -13.177  12.697  64.484  1.00  0.00    -0.387 F  
HETATM   36  C   UNL     1      -9.929  11.183  63.937  1.00  0.00    -0.381 A  
ENDBRANCH  27  29
ENDBRANCH  20  27
ENDBRANCH   8  11
ENDBRANCH   6   7
ENDBRANCH   4   5
ENDBRANCH   2   4
TORSDOF 8
ENDMDL
MODEL      131
REMARK 921   NORMALIZED FREE ENERGY PREDICTED BY IDOCK:   -4.44 KCAL/MOL
REMARK 922        TOTAL FREE ENERGY PREDICTED BY IDOCK:   -8.05 KCAL/MOL
REMARK 923 INTER-LIGAND FREE ENERGY PREDICTED BY IDOCK:   -8.74 KCAL/MOL
REMARK 924 INTRA-LIGAND FREE ENERGY PREDICTED BY IDOCK:    0.68 KCAL/MOL
REMARK 927      BINDING AFFINITY PREDICTED BY RF-SCORE:    0.00 PKD
ROOT
HETATM    1  C   UNL     1     -13.387  15.995  73.213  1.00  0.00    -0.532 C  
HETATM    2  N   UNL     1     -13.127  15.069  72.104  1.00  0.00    -0.328 NA 
HETATM    3  C   UNL     1     -11.675  15.000  71.880  1.00  0.00    -0.380 C  
ENDROOT
BRANCH   2   4
HETATM    4  C   UNL     1     -13.633  13.721  72.414  1.00  0.00    -0.588 C  
BRANCH   4   5
HETATM    5  C   UNL     1     -13.126  12.597  71.554  1.00  0.00    -0.373 C  
HETATM    6  C   UNL     1     -12.481  12.686  70.377  1.00  0.00    -0.219 C  
BRANCH   6   7
HETATM    7  C   UNL     1     -12.076  11.436  69.679  1.00  0.00    -0.305 C  
HETATM    8  N   UNL     1     -11.543  10.478  70.526  1.00  0.00    -0.330 N  
HETATM    9  O   UNL     1     -12.294  11.288  68.480  1.00  0.00    -0.543 OA 
HETATM   10  H   UNL     1     -11.370  10.721  71.502  1.00  0.00     0.000 HD 
BRANCH   8  11
HETATM   11  C   UNL     1     -11.229   9.172  70.080  1.00  0.00    -0.187 A  
HETATM   12  C   UNL     1     -11.258   8.064  70.929  1.00  0.00    -0.266 A  
HETATM   13  N   UNL     1      -9.866   6.152  66.489  1.00  0.00    -0.155 NA 
HETATM   14  C   UNL     1     -10.997   6.792  70.395  1.00  0.00    -0.330 A  
HETATM   15  C   UNL     1     -10.820   8.976  68.748  1.00  0.00    -0.067 A  
HETATM   16  C   UNL     1     -10.661   6.581  69.061  1.00  0.00    -0.278 A  
HETATM   17  C   UNL     1     -10.511   7.691  68.227  1.00  0.00    -0.219 A  
HETATM   18  N   UNL     1     -10.464   5.328  68.639  1.00  0.00    -0.126 NA 
HETATM   19  C   UNL     1     -10.103   5.172  67.361  1.00  0.00    -0.179 A  
HETATM   20  C   UNL     1     -10.052   7.414  66.917  1.00  0.00    -0.257 A  
BRANCH  12  21
HETATM   21  O   UNL     1     -11.359   8.081  72.289  1.00  0.00    -0.299 OA 
BRANCH  21  22
HETATM   22  C   UNL     1     -10.219   7.938  73.128  1.00  0.00    -0.291 C  
HETATM   23  C   UNL     1      -8.287   6.555  73.500  1.00  0.00    -0.118 C  
HETATM   24  C   UNL     1      -9.012   8.381  72.306  1.00  0.00    -0.233 C  
HETATM   25  O   UNL     1      -7.867   7.794  72.919  1.00  0.00    -0.100 OA 
HETATM   26  C   UNL     1      -9.810   6.529  73.514  1.00  0.00    -0.211 C  
ENDBRANCH  21  22
ENDBRANCH  12  21
BRANCH  20  27
HETATM   27  N   UNL     1      -9.774   8.492  66.029  1.00  0.00    -0.451 NA 
HETATM   28  H   UNL     1     -10.104   8.374  65.071  1.00  0.00     0.000 HD 
BRANCH  27  29
HETATM   29  C   UNL     1      -9.100   9.708  66.303  1.00  0.00    -0.160 A  
HETATM   30  C   UNL     1      -9.705  10.966  66.162  1.00  0.00    -0.252 A  
HETATM   31  C   UNL     1      -9.015  12.135  66.493  1.00  0.00    -0.179 A  
HETATM   32 CL   UNL     1      -9.782  13.664  66.259  1.00  0.00    -0.302 Cl 
HETATM   33  C   UNL     1      -7.722  12.062  66.996  1.00  0.00    -0.129 A  
HETATM   34  C   UNL     1      -7.118  10.830  67.193  1.00  0.00    -0.099 A  
HETATM   35  F   UNL     1      -7.047  13.174  67.318  1.00  0.00    -0.150 F  
HETATM   36  C   UNL     1      -7.806   9.659  66.857  1.00  0.00    -0.102 A  
ENDBRANCH  27  29
ENDBRANCH  20  27
ENDBRANCH   8  11
ENDBRANCH   6   7
ENDBRANCH   4   5
ENDBRANCH   2   4
TORSDOF 8
ENDMDL
MODEL      132
REMARK 921   NORMALIZED FREE ENERGY PREDICTED BY IDOCK:   -4.43 KCAL/MOL
REMARK 922        TOTAL FREE ENERGY PREDICTED BY IDOCK:   -8.04 KCAL/MOL
REMARK 923 INTER-LIGAND FREE ENERGY PREDICTED BY IDOCK:   -7.02 KCAL/MOL
REMARK 924 INTRA-LIGAND FREE ENERGY PREDICTED BY IDOCK:   -1.02 KCAL/MOL
REMARK 927      BINDING AFFINITY PREDICTED BY RF-SCORE:    0.00 PKD
ROOT
HETATM    1  C   UNL     1     -10.524  13.897  64.963  1.00  0.00    -0.410 C  
HETATM    2  N   UNL     1     -11.003  13.397  66.259  1.00  0.00    -0.287 NA 
HETATM    3  C   UNL     1     -12.160  14.204  66.676  1.00  0.00    -0.451 C  
ENDROOT
BRANCH   2   4
HETATM    4  C   UNL     1     -11.408  11.985  66.162  1.00  0.00    -0.351 C  
BRANCH   4   5
HETATM    5  C   UNL     1     -10.776  11.034  67.140  1.00  0.00    -0.313 C  
HETATM    6  C   UNL     1      -9.901  11.321  68.121  1.00  0.00    -0.190 C  
BRANCH   6   7
HETATM    7  C   UNL     1      -9.384  10.216  68.973  1.00  0.00    -0.188 C  
HETATM    8  N   UNL     1     -10.127   9.050  68.877  1.00  0.00    -0.190 N  
HETATM    9  O   UNL     1      -8.347  10.352  69.615  1.00  0.00    -0.152 OA 
HETATM   10  H   UNL     1     -10.996   9.060  68.342  1.00  0.00     0.000 HD 
BRANCH   8  11
HETATM   11  C   UNL     1      -9.719   7.846  69.498  1.00  0.00    -0.173 A  
HETATM   12  C   UNL     1     -10.068   7.526  70.811  1.00  0.00    -0.192 A  
HETATM   13  N   UNL     1      -7.306   3.602  69.299  1.00  0.00    -0.049 NA 
HETATM   14  C   UNL     1      -9.678   6.281  71.334  1.00  0.00    -0.191 A  
HETATM   15  C   UNL     1      -8.888   6.954  68.796  1.00  0.00    -0.132 A  
HETATM   16  C   UNL     1      -8.916   5.362  70.620  1.00  0.00    -0.143 A  
HETATM   17  C   UNL     1      -8.458   5.718  69.349  1.00  0.00    -0.112 A  
HETATM   18  N   UNL     1      -8.624   4.189  71.191  1.00  0.00    -0.083 NA 
HETATM   19  C   UNL     1      -7.855   3.351  70.489  1.00  0.00    -0.043 A  
HETATM   20  C   UNL     1      -7.589   4.788  68.730  1.00  0.00    -0.069 A  
BRANCH  12  21
HETATM   21  O   UNL     1     -10.626   8.361  71.735  1.00  0.00    -0.239 OA 
BRANCH  21  22
HETATM   22  C   UNL     1     -11.917   8.118  72.281  1.00  0.00    -0.377 C  
HETATM   23  C   UNL     1     -14.256   8.524  71.897  1.00  0.00    -0.455 C  
HETATM   24  C   UNL     1     -12.566   7.044  71.413  1.00  0.00    -0.386 C  
HETATM   25  O   UNL     1     -13.972   7.149  71.621  1.00  0.00    -0.380 OA 
HETATM   26  C   UNL     1     -12.938   9.235  72.177  1.00  0.00    -0.503 C  
ENDBRANCH  21  22
ENDBRANCH  12  21
BRANCH  20  27
HETATM   27  N   UNL     1      -6.994   5.111  67.477  1.00  0.00    -0.064 NA 
HETATM   28  H   UNL     1      -6.038   5.466  67.519  1.00  0.00     0.000 HD 
BRANCH  27  29
HETATM   29  C   UNL     1      -7.556   5.006  66.181  1.00  0.00    -0.087 A  
HETATM   30  C   UNL     1      -8.384   3.941  65.791  1.00  0.00    -0.109 A  
HETATM   31  C   UNL     1      -8.956   3.908  64.516  1.00  0.00    -0.132 A  
HETATM   32 CL   UNL     1      -9.927   2.555  64.063  1.00  0.00    -0.139 Cl 
HETATM   33  C   UNL     1      -8.733   4.950  63.625  1.00  0.00    -0.107 A  
HETATM   34  C   UNL     1      -7.963   6.038  64.002  1.00  0.00    -0.117 A  
HETATM   35  F   UNL     1      -9.276   4.932  62.400  1.00  0.00    -0.132 F  
HETATM   36  C   UNL     1      -7.385   6.071  65.276  1.00  0.00    -0.076 A  
ENDBRANCH  27  29
ENDBRANCH  20  27
ENDBRANCH   8  11
ENDBRANCH   6   7
ENDBRANCH   4   5
ENDBRANCH   2   4
TORSDOF 8
ENDMDL
MODEL      133
REMARK 921   NORMALIZED FREE ENERGY PREDICTED BY IDOCK:   -4.36 KCAL/MOL
REMARK 922        TOTAL FREE ENERGY PREDICTED BY IDOCK:   -7.94 KCAL/MOL
REMARK 923 INTER-LIGAND FREE ENERGY PREDICTED BY IDOCK:   -7.07 KCAL/MOL
REMARK 924 INTRA-LIGAND FREE ENERGY PREDICTED BY IDOCK:   -0.87 KCAL/MOL
REMARK 927      BINDING AFFINITY PREDICTED BY RF-SCORE:    0.00 PKD
ROOT
HETATM    1  C   UNL     1      -6.726   3.996  65.025  1.00  0.00    -0.048 C  
HETATM    2  N   UNL     1      -7.762   2.955  65.025  1.00  0.00    -0.080 NA 
HETATM    3  C   UNL     1      -7.243   1.775  64.316  1.00  0.00    -0.055 C  
ENDROOT
BRANCH   2   4
HETATM    4  C   UNL     1      -8.124   2.572  66.401  1.00  0.00    -0.084 C  
BRANCH   4   5
HETATM    5  C   UNL     1      -9.010   3.523  67.154  1.00  0.00    -0.168 C  
HETATM    6  C   UNL     1      -8.640   4.570  67.913  1.00  0.00    -0.108 C  
BRANCH   6   7
HETATM    7  C   UNL     1      -9.690   5.380  68.588  1.00  0.00    -0.138 C  
HETATM    8  N   UNL     1      -9.188   6.479  69.267  1.00  0.00    -0.139 N  
HETATM    9  O   UNL     1     -10.878   5.104  68.454  1.00  0.00     0.072 OA 
HETATM   10  H   UNL     1      -8.177   6.592  69.346  1.00  0.00     0.000 HD 
BRANCH   8  11
HETATM   11  C   UNL     1     -10.034   7.450  69.854  1.00  0.00    -0.188 A  
HETATM   12  C   UNL     1     -10.574   7.297  71.132  1.00  0.00    -0.222 A  
HETATM   13  N   UNL     1     -12.377  11.728  69.576  1.00  0.00    -0.132 NA 
HETATM   14  C   UNL     1     -11.352   8.336  71.670  1.00  0.00    -0.329 A  
HETATM   15  C   UNL     1     -10.393   8.591  69.114  1.00  0.00    -0.227 A  
HETATM   16  C   UNL     1     -11.653   9.500  70.971  1.00  0.00    -0.344 A  
HETATM   17  C   UNL     1     -11.220   9.616  69.648  1.00  0.00    -0.176 A  
HETATM   18  N   UNL     1     -12.373  10.447  71.581  1.00  0.00    -0.353 NA 
HETATM   19  C   UNL     1     -12.676  11.532  70.861  1.00  0.00    -0.278 A  
HETATM   20  C   UNL     1     -11.664  10.770  68.958  1.00  0.00    -0.286 A  
BRANCH  12  21
HETATM   21  O   UNL     1     -10.570   6.162  71.890  1.00  0.00    -0.208 OA 
BRANCH  21  22
HETATM   22  C   UNL     1      -9.373   5.644  72.458  1.00  0.00    -0.142 C  
HETATM   23  C   UNL     1      -8.385   4.983  74.548  1.00  0.00    -0.100 C  
HETATM   24  C   UNL     1      -9.647   4.183  72.801  1.00  0.00    -0.128 C  
HETATM   25  O   UNL     1      -8.685   3.810  73.785  1.00  0.00    -0.089 OA 
HETATM   26  C   UNL     1      -8.950   6.189  73.808  1.00  0.00    -0.129 C  
ENDBRANCH  21  22
ENDBRANCH  12  21
BRANCH  20  27
HETATM   27  N   UNL     1     -11.354  10.922  67.577  1.00  0.00    -0.457 NA 
HETATM   28  H   UNL     1     -11.266  10.056  67.044  1.00  0.00     0.000 HD 
BRANCH  27  29
HETATM   29  C   UNL     1     -11.154  12.118  66.844  1.00  0.00    -0.297 A  
HETATM   30  C   UNL     1     -11.791  12.383  65.622  1.00  0.00    -0.468 A  
HETATM   31  C   UNL     1     -11.600  13.600  64.963  1.00  0.00    -0.332 A  
HETATM   32 CL   UNL     1     -12.366  13.862  63.438  1.00  0.00    -0.190 Cl 
HETATM   33  C   UNL     1     -10.794  14.580  65.528  1.00  0.00    -0.336 A  
HETATM   34  C   UNL     1     -10.194  14.365  66.759  1.00  0.00    -0.270 A  
HETATM   35  F   UNL     1     -10.602  15.752  64.908  1.00  0.00    -0.400 F  
HETATM   36  C   UNL     1     -10.379  13.146  67.418  1.00  0.00    -0.239 A  
ENDBRANCH  27  29
ENDBRANCH  20  27
ENDBRANCH   8  11
ENDBRANCH   6   7
ENDBRANCH   4   5
ENDBRANCH   2   4
TORSDOF 8
ENDMDL
MODEL      134
REMARK 921   NORMALIZED FREE ENERGY PREDICTED BY IDOCK:   -4.33 KCAL/MOL
REMARK 922        TOTAL FREE ENERGY PREDICTED BY IDOCK:   -7.90 KCAL/MOL
REMARK 923 INTER-LIGAND FREE ENERGY PREDICTED BY IDOCK:   -7.22 KCAL/MOL
REMARK 924 INTRA-LIGAND FREE ENERGY PREDICTED BY IDOCK:   -0.67 KCAL/MOL
REMARK 927      BINDING AFFINITY PREDICTED BY RF-SCORE:    0.00 PKD
ROOT
HETATM    1  C   UNL     1     -11.340   6.395  69.725  1.00  0.00    -0.427 C  
HETATM    2  N   UNL     1     -10.040   6.177  69.077  1.00  0.00    -0.161 NA 
HETATM    3  C   UNL     1     -10.154   6.545  67.657  1.00  0.00    -0.147 C  
ENDROOT
BRANCH   2   4
HETATM    4  C   UNL     1      -8.993   6.999  69.706  1.00  0.00    -0.141 C  
BRANCH   4   5
HETATM    5  C   UNL     1      -8.671   8.306  69.039  1.00  0.00    -0.143 C  
HETATM    6  C   UNL     1      -9.387   9.444  69.066  1.00  0.00    -0.153 C  
BRANCH   6   7
HETATM    7  C   UNL     1      -8.889  10.629  68.317  1.00  0.00    -0.139 C  
HETATM    8  N   UNL     1      -8.925  11.803  69.053  1.00  0.00    -0.371 N  
HETATM    9  O   UNL     1      -8.425  10.508  67.187  1.00  0.00    -0.126 OA 
HETATM   10  H   UNL     1      -9.368  11.798  69.971  1.00  0.00     0.000 HD 
BRANCH   8  11
HETATM   11  C   UNL     1      -8.366  13.010  68.570  1.00  0.00    -0.057 A  
HETATM   12  C   UNL     1      -7.116  13.474  68.982  1.00  0.00    -0.066 A  
HETATM   13  N   UNL     1      -8.703  16.985  65.748  1.00  0.00    -0.487 NA 
HETATM   14  C   UNL     1      -6.602  14.647  68.406  1.00  0.00    -0.102 A  
HETATM   15  C   UNL     1      -9.109  13.809  67.681  1.00  0.00    -0.196 A  
HETATM   16  C   UNL     1      -7.301  15.406  67.472  1.00  0.00    -0.195 A  
HETATM   17  C   UNL     1      -8.602  15.020  67.139  1.00  0.00    -0.246 A  
HETATM   18  N   UNL     1      -6.714  16.489  66.956  1.00  0.00    -0.192 NA 
HETATM   19  C   UNL     1      -7.435  17.213  66.094  1.00  0.00    -0.260 A  
HETATM   20  C   UNL     1      -9.298  15.901  66.277  1.00  0.00    -0.322 A  
BRANCH  12  21
HETATM   21  O   UNL     1      -6.371  12.998  70.021  1.00  0.00    -0.098 OA 
BRANCH  21  22
HETATM   22  C   UNL     1      -5.504  11.879  69.873  1.00  0.00    -0.096 C  
HETATM   23  C   UNL     1      -5.507   9.491  69.586  1.00  0.00    -0.034 C  
HETATM   24  C   UNL     1      -5.574  11.463  68.406  1.00  0.00    -0.045 C  
HETATM   25  O   UNL     1      -5.137  10.108  68.348  1.00  0.00    -0.036 OA 
HETATM   26  C   UNL     1      -5.907  10.590  70.563  1.00  0.00    -0.107 C  
ENDBRANCH  21  22
ENDBRANCH  12  21
BRANCH  20  27
HETATM   27  N   UNL     1     -10.663  15.642  65.964  1.00  0.00    -0.324 NA 
HETATM   28  H   UNL     1     -11.332  16.345  66.279  1.00  0.00     0.000 HD 
BRANCH  27  29
HETATM   29  C   UNL     1     -11.214  14.534  65.272  1.00  0.00    -0.352 A  
HETATM   30  C   UNL     1     -10.453  13.699  64.438  1.00  0.00    -0.322 A  
HETATM   31  C   UNL     1     -11.031  12.589  63.817  1.00  0.00    -0.447 A  
HETATM   32 CL   UNL     1     -10.070  11.618  62.761  1.00  0.00    -0.152 Cl 
HETATM   33  C   UNL     1     -12.367  12.280  64.043  1.00  0.00    -0.475 A  
HETATM   34  C   UNL     1     -13.127  13.058  64.903  1.00  0.00    -0.023 A  
HETATM   35  F   UNL     1     -12.934  11.218  63.456  1.00  0.00    -0.279 F  
HETATM   36  C   UNL     1     -12.552  14.173  65.521  1.00  0.00    -0.501 A  
ENDBRANCH  27  29
ENDBRANCH  20  27
ENDBRANCH   8  11
ENDBRANCH   6   7
ENDBRANCH   4   5
ENDBRANCH   2   4
TORSDOF 8
ENDMDL
MODEL      135
REMARK 921   NORMALIZED FREE ENERGY PREDICTED BY IDOCK:   -4.33 KCAL/MOL
REMARK 922        TOTAL FREE ENERGY PREDICTED BY IDOCK:   -7.89 KCAL/MOL
REMARK 923 INTER-LIGAND FREE ENERGY PREDICTED BY IDOCK:   -6.41 KCAL/MOL
REMARK 924 INTRA-LIGAND FREE ENERGY PREDICTED BY IDOCK:   -1.48 KCAL/MOL
REMARK 927      BINDING AFFINITY PREDICTED BY RF-SCORE:    0.00 PKD
ROOT
HETATM    1  C   UNL     1     -10.809  13.686  65.361  1.00  0.00    -0.301 C  
HETATM    2  N   UNL     1     -10.436  12.680  66.364  1.00  0.00    -0.246 NA 
HETATM    3  C   UNL     1     -11.589  12.447  67.246  1.00  0.00    -0.365 C  
ENDROOT
BRANCH   2   4
HETATM    4  C   UNL     1     -10.055  11.411  65.720  1.00  0.00    -0.246 C  
BRANCH   4   5
HETATM    5  C   UNL     1      -9.405  10.380  66.599  1.00  0.00    -0.185 C  
HETATM    6  C   UNL     1      -8.091  10.181  66.805  1.00  0.00    -0.119 C  
BRANCH   6   7
HETATM    7  C   UNL     1      -7.659   9.084  67.712  1.00  0.00    -0.093 C  
HETATM    8  N   UNL     1      -8.676   8.196  68.028  1.00  0.00    -0.129 N  
HETATM    9  O   UNL     1      -6.485   8.975  68.052  1.00  0.00    -0.058 OA 
HETATM   10  H   UNL     1      -9.626   8.403  67.722  1.00  0.00     0.000 HD 
BRANCH   8  11
HETATM   11  C   UNL     1      -8.436   7.010  68.761  1.00  0.00    -0.122 A  
HETATM   12  C   UNL     1      -7.918   5.856  68.170  1.00  0.00    -0.109 A  
HETATM   13  N   UNL     1      -8.558   4.565  72.990  1.00  0.00    -0.105 NA 
HETATM   14  C   UNL     1      -7.648   4.740  68.979  1.00  0.00    -0.067 A  
HETATM   15  C   UNL     1      -8.777   6.960  70.125  1.00  0.00    -0.141 A  
HETATM   16  C   UNL     1      -7.915   4.708  70.345  1.00  0.00    -0.064 A  
HETATM   17  C   UNL     1      -8.544   5.811  70.927  1.00  0.00    -0.130 A  
HETATM   18  N   UNL     1      -7.591   3.612  71.037  1.00  0.00    -0.046 NA 
HETATM   19  C   UNL     1      -7.903   3.605  72.337  1.00  0.00    -0.068 A  
HETATM   20  C   UNL     1      -8.896   5.663  72.291  1.00  0.00    -0.132 A  
BRANCH  12  21
HETATM   21  O   UNL     1      -7.781   5.614  66.835  1.00  0.00    -0.098 OA 
BRANCH  21  22
HETATM   22  C   UNL     1      -8.479   4.555  66.189  1.00  0.00    -0.113 C  
HETATM   23  C   UNL     1     -10.420   4.092  64.847  1.00  0.00    -0.158 C  
HETATM   24  C   UNL     1      -8.208   4.700  64.694  1.00  0.00    -0.113 C  
HETATM   25  O   UNL     1      -9.253   3.999  64.023  1.00  0.00    -0.135 OA 
HETATM   26  C   UNL     1      -9.994   4.601  66.219  1.00  0.00    -0.268 C  
ENDBRANCH  21  22
ENDBRANCH  12  21
BRANCH  20  27
HETATM   27  N   UNL     1      -9.630   6.697  72.940  1.00  0.00    -0.148 NA 
HETATM   28  H   UNL     1      -9.232   7.040  73.816  1.00  0.00     0.000 HD 
BRANCH  27  29
HETATM   29  C   UNL     1     -10.839   7.311  72.530  1.00  0.00    -0.272 A  
HETATM   30  C   UNL     1     -10.979   8.700  72.384  1.00  0.00    -0.323 A  
HETATM   31  C   UNL     1     -12.178   9.255  71.928  1.00  0.00    -0.378 A  
HETATM   32 CL   UNL     1     -12.321  10.972  71.810  1.00  0.00    -0.194 Cl 
HETATM   33  C   UNL     1     -13.242   8.431  71.584  1.00  0.00    -0.339 A  
HETATM   34  C   UNL     1     -13.113   7.053  71.670  1.00  0.00    -0.384 A  
HETATM   35  F   UNL     1     -14.396   8.948  71.144  1.00  0.00    -0.429 F  
HETATM   36  C   UNL     1     -11.916   6.496  72.131  1.00  0.00    -0.334 A  
ENDBRANCH  27  29
ENDBRANCH  20  27
ENDBRANCH   8  11
ENDBRANCH   6   7
ENDBRANCH   4   5
ENDBRANCH   2   4
TORSDOF 8
ENDMDL
MODEL      136
REMARK 921   NORMALIZED FREE ENERGY PREDICTED BY IDOCK:   -4.30 KCAL/MOL
REMARK 922        TOTAL FREE ENERGY PREDICTED BY IDOCK:   -7.84 KCAL/MOL
REMARK 923 INTER-LIGAND FREE ENERGY PREDICTED BY IDOCK:   -6.54 KCAL/MOL
REMARK 924 INTRA-LIGAND FREE ENERGY PREDICTED BY IDOCK:   -1.31 KCAL/MOL
REMARK 927      BINDING AFFINITY PREDICTED BY RF-SCORE:    0.00 PKD
ROOT
HETATM    1  C   UNL     1     -10.962  14.599  64.997  1.00  0.00    -0.405 C  
HETATM    2  N   UNL     1     -11.009  13.718  66.172  1.00  0.00    -0.291 NA 
HETATM    3  C   UNL     1     -11.929  14.303  67.160  1.00  0.00    -0.417 C  
ENDROOT
BRANCH   2   4
HETATM    4  C   UNL     1     -11.486  12.374  65.804  1.00  0.00    -0.370 C  
BRANCH   4   5
HETATM    5  C   UNL     1     -10.637  11.215  66.244  1.00  0.00    -0.309 C  
HETATM    6  C   UNL     1      -9.995  10.322  65.470  1.00  0.00    -0.364 C  
BRANCH   6   7
HETATM    7  C   UNL     1      -9.214   9.234  66.117  1.00  0.00    -0.196 C  
HETATM    8  N   UNL     1      -9.447   7.984  65.567  1.00  0.00    -0.348 N  
HETATM    9  O   UNL     1      -8.394   9.486  66.995  1.00  0.00    -0.122 OA 
HETATM   10  H   UNL     1     -10.181   7.881  64.865  1.00  0.00     0.000 HD 
BRANCH   8  11
HETATM   11  C   UNL     1      -8.700   6.844  65.948  1.00  0.00    -0.134 A  
HETATM   12  C   UNL     1      -7.598   6.394  65.219  1.00  0.00    -0.091 A  
HETATM   13  N   UNL     1      -7.963   3.113  69.015  1.00  0.00    -0.052 NA 
HETATM   14  C   UNL     1      -6.869   5.293  65.699  1.00  0.00    -0.061 A  
HETATM   15  C   UNL     1      -9.103   6.097  67.070  1.00  0.00    -0.119 A  
HETATM   16  C   UNL     1      -7.220   4.591  66.849  1.00  0.00    -0.076 A  
HETATM   17  C   UNL     1      -8.389   4.955  67.522  1.00  0.00    -0.105 A  
HETATM   18  N   UNL     1      -6.444   3.578  67.244  1.00  0.00    -0.037 NA 
HETATM   19  C   UNL     1      -6.838   2.904  68.329  1.00  0.00    -0.048 A  
HETATM   20  C   UNL     1      -8.751   4.125  68.610  1.00  0.00    -0.097 A  
BRANCH  12  21
HETATM   21  O   UNL     1      -7.217   6.807  63.976  1.00  0.00    -0.061 OA 
BRANCH  21  22
HETATM   22  C   UNL     1      -6.287   7.868  63.791  1.00  0.00    -0.062 C  
HETATM   23  C   UNL     1      -6.008  10.235  64.109  1.00  0.00    -0.132 C  
HETATM   24  C   UNL     1      -5.737   8.215  65.171  1.00  0.00    -0.044 C  
HETATM   25  O   UNL     1      -5.220   9.540  65.080  1.00  0.00    -0.042 OA 
HETATM   26  C   UNL     1      -6.840   9.209  63.349  1.00  0.00    -0.090 C  
ENDBRANCH  21  22
ENDBRANCH  12  21
BRANCH  20  27
HETATM   27  N   UNL     1      -9.978   4.360  69.292  1.00  0.00    -0.147 NA 
HETATM   28  H   UNL     1     -10.789   3.853  68.933  1.00  0.00     0.000 HD 
BRANCH  27  29
HETATM   29  C   UNL     1     -10.223   5.204  70.403  1.00  0.00    -0.264 A  
HETATM   30  C   UNL     1     -11.061   6.328  70.339  1.00  0.00    -0.416 A  
HETATM   31  C   UNL     1     -11.311   7.101  71.476  1.00  0.00    -0.255 A  
HETATM   32 CL   UNL     1     -12.310   8.503  71.340  1.00  0.00    -0.329 Cl 
HETATM   33  C   UNL     1     -10.751   6.746  72.698  1.00  0.00    -0.240 A  
HETATM   34  C   UNL     1      -9.962   5.612  72.800  1.00  0.00    -0.195 A  
HETATM   35  F   UNL     1     -10.983   7.477  73.796  1.00  0.00    -0.390 F  
HETATM   36  C   UNL     1      -9.706   4.840  71.662  1.00  0.00    -0.230 A  
ENDBRANCH  27  29
ENDBRANCH  20  27
ENDBRANCH   8  11
ENDBRANCH   6   7
ENDBRANCH   4   5
ENDBRANCH   2   4
TORSDOF 8
ENDMDL
MODEL      137
REMARK 921   NORMALIZED FREE ENERGY PREDICTED BY IDOCK:   -4.20 KCAL/MOL
REMARK 922        TOTAL FREE ENERGY PREDICTED BY IDOCK:   -7.70 KCAL/MOL
REMARK 923 INTER-LIGAND FREE ENERGY PREDICTED BY IDOCK:   -6.91 KCAL/MOL
REMARK 924 INTRA-LIGAND FREE ENERGY PREDICTED BY IDOCK:   -0.79 KCAL/MOL
REMARK 927      BINDING AFFINITY PREDICTED BY RF-SCORE:    0.00 PKD
ROOT
HETATM    1  C   UNL     1      -8.726  14.715  67.317  1.00  0.00    -0.208 C  
HETATM    2  N   UNL     1      -7.920  15.635  68.130  1.00  0.00    -0.127 NA 
HETATM    3  C   UNL     1      -8.827  16.527  68.869  1.00  0.00    -0.244 C  
ENDROOT
BRANCH   2   4
HETATM    4  C   UNL     1      -7.083  14.895  69.090  1.00  0.00    -0.148 C  
BRANCH   4   5
HETATM    5  C   UNL     1      -7.097  13.396  68.980  1.00  0.00    -0.053 C  
HETATM    6  C   UNL     1      -6.492  12.505  69.785  1.00  0.00    -0.018 C  
BRANCH   6   7
HETATM    7  C   UNL     1      -6.624  11.054  69.484  1.00  0.00    -0.118 C  
HETATM    8  N   UNL     1      -7.923  10.583  69.596  1.00  0.00    -0.332 N  
HETATM    9  O   UNL     1      -5.659  10.402  69.098  1.00  0.00    -0.038 OA 
HETATM   10  H   UNL     1      -8.645  11.204  69.963  1.00  0.00     0.000 HD 
BRANCH   8  11
HETATM   11  C   UNL     1      -8.281   9.267  69.216  1.00  0.00    -0.108 A  
HETATM   12  C   UNL     1      -8.482   8.248  70.148  1.00  0.00    -0.126 A  
HETATM   13  N   UNL     1      -9.302   6.016  65.715  1.00  0.00    -0.033 NA 
HETATM   14  C   UNL     1      -8.899   6.985  69.695  1.00  0.00    -0.141 A  
HETATM   15  C   UNL     1      -8.389   8.948  67.850  1.00  0.00    -0.118 A  
HETATM   16  C   UNL     1      -9.078   6.681  68.349  1.00  0.00    -0.124 A  
HETATM   17  C   UNL     1      -8.765   7.655  67.398  1.00  0.00    -0.124 A  
HETATM   18  N   UNL     1      -9.511   5.460  68.019  1.00  0.00    -0.114 NA 
HETATM   19  C   UNL     1      -9.630   5.195  66.714  1.00  0.00    -0.151 A  
HETATM   20  C   UNL     1      -8.854   7.240  66.047  1.00  0.00    -0.136 A  
BRANCH  12  21
HETATM   21  O   UNL     1      -8.165   8.280  71.475  1.00  0.00    -0.109 OA 
BRANCH  21  22
HETATM   22  C   UNL     1      -9.168   8.328  72.484  1.00  0.00    -0.269 C  
HETATM   23  C   UNL     1     -11.513   7.952  72.859  1.00  0.00    -0.297 C  
HETATM   24  C   UNL     1      -9.479   6.882  72.860  1.00  0.00    -0.140 C  
HETATM   25  O   UNL     1     -10.770   6.889  73.464  1.00  0.00    -0.325 OA 
HETATM   26  C   UNL     1     -10.541   8.828  72.078  1.00  0.00    -0.414 C  
ENDBRANCH  21  22
ENDBRANCH  12  21
BRANCH  20  27
HETATM   27  N   UNL     1      -8.458   8.134  65.012  1.00  0.00    -0.299 NA 
HETATM   28  H   UNL     1      -7.561   7.931  64.571  1.00  0.00     0.000 HD 
BRANCH  27  29
HETATM   29  C   UNL     1      -9.146   9.269  64.516  1.00  0.00    -0.089 A  
HETATM   30  C   UNL     1     -10.021  10.037  65.301  1.00  0.00    -0.368 A  
HETATM   31  C   UNL     1     -10.637  11.177  64.780  1.00  0.00    -0.303 A  
HETATM   32 CL   UNL     1     -11.743  12.063  65.766  1.00  0.00    -0.382 Cl 
HETATM   33  C   UNL     1     -10.367  11.583  63.479  1.00  0.00    -0.433 A  
HETATM   34  C   UNL     1      -9.468  10.873  62.699  1.00  0.00    -0.324 A  
HETATM   35  F   UNL     1     -10.949  12.675  62.966  1.00  0.00    -0.434 F  
HETATM   36  C   UNL     1      -8.854   9.728  63.217  1.00  0.00    -0.260 A  
ENDBRANCH  27  29
ENDBRANCH  20  27
ENDBRANCH   8  11
ENDBRANCH   6   7
ENDBRANCH   4   5
ENDBRANCH   2   4
TORSDOF 8
ENDMDL
MODEL      138
REMARK 921   NORMALIZED FREE ENERGY PREDICTED BY IDOCK:   -4.18 KCAL/MOL
REMARK 922        TOTAL FREE ENERGY PREDICTED BY IDOCK:   -7.67 KCAL/MOL
REMARK 923 INTER-LIGAND FREE ENERGY PREDICTED BY IDOCK:   -6.92 KCAL/MOL
REMARK 924 INTRA-LIGAND FREE ENERGY PREDICTED BY IDOCK:   -0.75 KCAL/MOL
REMARK 927      BINDING AFFINITY PREDICTED BY RF-SCORE:    0.00 PKD
ROOT
HETATM    1  C   UNL     1     -11.602  12.871  67.494  1.00  0.00    -0.356 C  
HETATM    2  N   UNL     1     -11.887  12.141  66.252  1.00  0.00    -0.594 NA 
HETATM    3  C   UNL     1     -12.577  13.047  65.321  1.00  0.00    -0.457 C  
ENDROOT
BRANCH   2   4
HETATM    4  C   UNL     1     -10.643  11.661  65.626  1.00  0.00    -0.275 C  
BRANCH   4   5
HETATM    5  C   UNL     1     -10.074  10.375  66.157  1.00  0.00    -0.299 C  
HETATM    6  C   UNL     1      -9.540   9.358  65.457  1.00  0.00    -0.328 C  
BRANCH   6   7
HETATM    7  C   UNL     1      -9.045   8.160  66.188  1.00  0.00    -0.183 C  
HETATM    8  N   UNL     1      -9.713   6.993  65.851  1.00  0.00    -0.343 N  
HETATM    9  O   UNL     1      -8.080   8.239  66.942  1.00  0.00    -0.101 OA 
HETATM   10  H   UNL     1     -10.527   7.048  65.240  1.00  0.00     0.000 HD 
BRANCH   8  11
HETATM   11  C   UNL     1      -9.300   5.727  66.329  1.00  0.00    -0.156 A  
HETATM   12  C   UNL     1      -8.648   4.797  65.518  1.00  0.00    -0.131 A  
HETATM   13  N   UNL     1      -8.993   2.487  69.973  1.00  0.00    -0.085 NA 
HETATM   14  C   UNL     1      -8.211   3.588  66.085  1.00  0.00    -0.101 A  
HETATM   15  C   UNL     1      -9.597   5.358  67.654  1.00  0.00    -0.142 A  
HETATM   16  C   UNL     1      -8.439   3.245  67.414  1.00  0.00    -0.095 A  
HETATM   17  C   UNL     1      -9.195   4.113  68.207  1.00  0.00    -0.195 A  
HETATM   18  N   UNL     1      -7.955   2.086  67.870  1.00  0.00    -0.058 NA 
HETATM   19  C   UNL     1      -8.232   1.775  69.141  1.00  0.00    -0.048 A  
HETATM   20  C   UNL     1      -9.491   3.647  69.511  1.00  0.00    -0.176 A  
BRANCH  12  21
HETATM   21  O   UNL     1      -8.512   4.850  64.162  1.00  0.00    -0.128 OA 
BRANCH  21  22
HETATM   22  C   UNL     1      -9.326   4.068  63.295  1.00  0.00    -0.131 C  
HETATM   23  C   UNL     1     -10.202   1.849  62.990  1.00  0.00    -0.115 C  
HETATM   24  C   UNL     1     -10.654   3.856  64.016  1.00  0.00    -0.229 C  
HETATM   25  O   UNL     1     -11.260   2.711  63.421  1.00  0.00    -0.307 OA 
HETATM   26  C   UNL     1      -8.897   2.636  63.041  1.00  0.00    -0.085 C  
ENDBRANCH  21  22
ENDBRANCH  12  21
BRANCH  20  27
HETATM   27  N   UNL     1     -10.339   4.419  70.354  1.00  0.00     0.011 NA 
HETATM   28  H   UNL     1     -11.314   4.120  70.396  1.00  0.00     0.000 HD 
BRANCH  27  29
HETATM   29  C   UNL     1     -10.007   5.549  71.143  1.00  0.00    -0.195 A  
HETATM   30  C   UNL     1     -10.666   6.783  71.026  1.00  0.00    -0.265 A  
HETATM   31  C   UNL     1     -10.336   7.853  71.862  1.00  0.00    -0.215 A  
HETATM   32 CL   UNL     1     -11.139   9.367  71.651  1.00  0.00    -0.443 Cl 
HETATM   33  C   UNL     1      -9.366   7.697  72.844  1.00  0.00    -0.198 A  
HETATM   34  C   UNL     1      -8.737   6.474  73.015  1.00  0.00    -0.130 A  
HETATM   35  F   UNL     1      -9.040   8.714  73.654  1.00  0.00    -0.217 F  
HETATM   36  C   UNL     1      -9.061   5.404  72.176  1.00  0.00    -0.147 A  
ENDBRANCH  27  29
ENDBRANCH  20  27
ENDBRANCH   8  11
ENDBRANCH   6   7
ENDBRANCH   4   5
ENDBRANCH   2   4
TORSDOF 8
ENDMDL
MODEL      139
REMARK 921   NORMALIZED FREE ENERGY PREDICTED BY IDOCK:   -4.10 KCAL/MOL
REMARK 922        TOTAL FREE ENERGY PREDICTED BY IDOCK:   -7.56 KCAL/MOL
REMARK 923 INTER-LIGAND FREE ENERGY PREDICTED BY IDOCK:   -6.08 KCAL/MOL
REMARK 924 INTRA-LIGAND FREE ENERGY PREDICTED BY IDOCK:   -1.49 KCAL/MOL
REMARK 927      BINDING AFFINITY PREDICTED BY RF-SCORE:    0.00 PKD
ROOT
HETATM    1  C   UNL     1      -8.375   1.470  70.241  1.00  0.00    -0.041 C  
HETATM    2  N   UNL     1      -9.497   2.392  70.462  1.00  0.00    -0.135 NA 
HETATM    3  C   UNL     1      -9.172   3.265  71.600  1.00  0.00    -0.117 C  
ENDROOT
BRANCH   2   4
HETATM    4  C   UNL     1      -9.739   3.222  69.269  1.00  0.00     0.098 C  
BRANCH   4   5
HETATM    5  C   UNL     1      -9.501   4.698  69.417  1.00  0.00    -0.239 C  
HETATM    6  C   UNL     1     -10.411   5.688  69.385  1.00  0.00    -0.367 C  
BRANCH   6   7
HETATM    7  C   UNL     1      -9.954   7.095  69.539  1.00  0.00    -0.164 C  
HETATM    8  N   UNL     1      -8.581   7.245  69.426  1.00  0.00    -0.133 N  
HETATM    9  O   UNL     1     -10.764   8.008  69.669  1.00  0.00    -0.238 OA 
HETATM   10  H   UNL     1      -7.996   6.412  69.358  1.00  0.00     0.000 HD 
BRANCH   8  11
HETATM   11  C   UNL     1      -7.963   8.519  69.402  1.00  0.00    -0.107 A  
HETATM   12  C   UNL     1      -7.522   9.158  70.561  1.00  0.00    -0.116 A  
HETATM   13  N   UNL     1      -6.382  12.395  66.883  1.00  0.00    -0.152 NA 
HETATM   14  C   UNL     1      -6.860  10.392  70.447  1.00  0.00    -0.073 A  
HETATM   15  C   UNL     1      -7.831   9.199  68.178  1.00  0.00    -0.099 A  
HETATM   16  C   UNL     1      -6.661  11.039  69.231  1.00  0.00    -0.099 A  
HETATM   17  C   UNL     1      -7.203  10.469  68.076  1.00  0.00    -0.087 A  
HETATM   18  N   UNL     1      -5.989  12.194  69.221  1.00  0.00    -0.078 NA 
HETATM   19  C   UNL     1      -5.857  12.804  68.039  1.00  0.00    -0.097 A  
HETATM   20  C   UNL     1      -7.069  11.239  66.895  1.00  0.00    -0.139 A  
BRANCH  12  21
HETATM   21  O   UNL     1      -7.797   8.798  71.848  1.00  0.00    -0.271 OA 
BRANCH  21  22
HETATM   22  C   UNL     1      -6.773   8.387  72.747  1.00  0.00    -0.084 C  
HETATM   23  C   UNL     1      -6.226   6.699  74.370  1.00  0.00    -0.072 C  
HETATM   24  C   UNL     1      -6.106   7.165  72.123  1.00  0.00    -0.041 C  
HETATM   25  O   UNL     1      -5.458   6.470  73.185  1.00  0.00    -0.037 OA 
HETATM   26  C   UNL     1      -7.208   7.831  74.089  1.00  0.00    -0.161 C  
ENDBRANCH  21  22
ENDBRANCH  12  21
BRANCH  20  27
HETATM   27  N   UNL     1      -7.678  10.784  65.691  1.00  0.00    -0.304 NA 
HETATM   28  H   UNL     1      -7.136  10.113  65.146  1.00  0.00     0.000 HD 
BRANCH  27  29
HETATM   29  C   UNL     1      -8.938  11.143  65.150  1.00  0.00    -0.093 A  
HETATM   30  C   UNL     1      -9.871  11.930  65.843  1.00  0.00    -0.261 A  
HETATM   31  C   UNL     1     -11.080  12.300  65.247  1.00  0.00    -0.316 A  
HETATM   32 CL   UNL     1     -12.218  13.228  66.154  1.00  0.00    -0.474 Cl 
HETATM   33  C   UNL     1     -11.361  11.913  63.942  1.00  0.00    -0.428 A  
HETATM   34  C   UNL     1     -10.435  11.179  63.217  1.00  0.00    -0.323 A  
HETATM   35  F   UNL     1     -12.514  12.261  63.357  1.00  0.00    -0.560 F  
HETATM   36  C   UNL     1      -9.227  10.804  63.814  1.00  0.00    -0.266 A  
ENDBRANCH  27  29
ENDBRANCH  20  27
ENDBRANCH   8  11
ENDBRANCH   6   7
ENDBRANCH   4   5
ENDBRANCH   2   4
TORSDOF 8
ENDMDL
MODEL      140
REMARK 921   NORMALIZED FREE ENERGY PREDICTED BY IDOCK:   -4.10 KCAL/MOL
REMARK 922        TOTAL FREE ENERGY PREDICTED BY IDOCK:   -7.56 KCAL/MOL
REMARK 923 INTER-LIGAND FREE ENERGY PREDICTED BY IDOCK:   -7.74 KCAL/MOL
REMARK 924 INTRA-LIGAND FREE ENERGY PREDICTED BY IDOCK:    0.18 KCAL/MOL
REMARK 927      BINDING AFFINITY PREDICTED BY RF-SCORE:    0.00 PKD
ROOT
HETATM    1  C   UNL     1     -12.754   7.291  72.098  1.00  0.00    -0.102 C  
HETATM    2  N   UNL     1     -11.369   7.389  71.621  1.00  0.00    -0.251 NA 
HETATM    3  C   UNL     1     -10.694   6.107  71.872  1.00  0.00    -0.232 C  
ENDROOT
BRANCH   2   4
HETATM    4  C   UNL     1     -11.329   7.681  70.178  1.00  0.00    -0.132 C  
BRANCH   4   5
HETATM    5  C   UNL     1     -10.893   9.065  69.783  1.00  0.00    -0.215 C  
HETATM    6  C   UNL     1      -9.944   9.409  68.894  1.00  0.00    -0.188 C  
BRANCH   6   7
HETATM    7  C   UNL     1      -9.660  10.851  68.663  1.00  0.00    -0.190 C  
HETATM    8  N   UNL     1      -8.307  11.143  68.593  1.00  0.00    -0.153 N  
HETATM    9  O   UNL     1     -10.574  11.648  68.475  1.00  0.00    -0.200 OA 
HETATM   10  H   UNL     1      -7.631  10.408  68.803  1.00  0.00     0.000 HD 
BRANCH   8  11
HETATM   11  C   UNL     1      -7.833  12.429  68.240  1.00  0.00    -0.150 A  
HETATM   12  C   UNL     1      -6.548  12.867  68.562  1.00  0.00    -0.087 A  
HETATM   13  N   UNL     1      -8.591  16.775  66.139  1.00  0.00    -0.443 NA 
HETATM   14  C   UNL     1      -6.131  14.133  68.119  1.00  0.00    -0.133 A  
HETATM   15  C   UNL     1      -8.696  13.327  67.586  1.00  0.00    -0.195 A  
HETATM   16  C   UNL     1      -6.956  15.001  67.408  1.00  0.00    -0.152 A  
HETATM   17  C   UNL     1      -8.282  14.625  67.182  1.00  0.00    -0.227 A  
HETATM   18  N   UNL     1      -6.456  16.171  67.000  1.00  0.00    -0.287 NA 
HETATM   19  C   UNL     1      -7.293  16.992  66.357  1.00  0.00    -0.293 A  
HETATM   20  C   UNL     1      -9.097  15.602  66.562  1.00  0.00    -0.303 A  
BRANCH  12  21
HETATM   21  O   UNL     1      -5.670  12.265  69.414  1.00  0.00    -0.072 OA 
BRANCH  21  22
HETATM   22  C   UNL     1      -5.135  12.945  70.544  1.00  0.00    -0.109 C  
HETATM   23  C   UNL     1      -5.774  14.057  72.579  1.00  0.00     0.037 C  
HETATM   24  C   UNL     1      -5.248  11.987  71.726  1.00  0.00     0.124 C  
HETATM   25  O   UNL     1      -5.194  12.789  72.904  1.00  0.00    -0.372 OA 
HETATM   26  C   UNL     1      -5.904  14.145  71.063  1.00  0.00    -0.217 C  
ENDBRANCH  21  22
ENDBRANCH  12  21
BRANCH  20  27
HETATM   27  N   UNL     1     -10.486  15.345  66.383  1.00  0.00    -0.295 NA 
HETATM   28  H   UNL     1     -11.119  15.934  66.925  1.00  0.00     0.000 HD 
BRANCH  27  29
HETATM   29  C   UNL     1     -11.104  14.379  65.551  1.00  0.00    -0.326 A  
HETATM   30  C   UNL     1     -10.383  13.551  64.675  1.00  0.00    -0.406 A  
HETATM   31  C   UNL     1     -11.033  12.578  63.912  1.00  0.00    -0.424 A  
HETATM   32 CL   UNL     1     -10.113  11.615  62.813  1.00  0.00    -0.152 Cl 
HETATM   33  C   UNL     1     -12.405  12.397  64.034  1.00  0.00    -0.488 A  
HETATM   34  C   UNL     1     -13.133  13.166  64.929  1.00  0.00    -0.031 A  
HETATM   35  F   UNL     1     -13.041  11.467  63.309  1.00  0.00    -0.582 F  
HETATM   36  C   UNL     1     -12.485  14.145  65.689  1.00  0.00    -0.490 A  
ENDBRANCH  27  29
ENDBRANCH  20  27
ENDBRANCH   8  11
ENDBRANCH   6   7
ENDBRANCH   4   5
ENDBRANCH   2   4
TORSDOF 8
ENDMDL
MODEL      141
REMARK 921   NORMALIZED FREE ENERGY PREDICTED BY IDOCK:   -4.10 KCAL/MOL
REMARK 922        TOTAL FREE ENERGY PREDICTED BY IDOCK:   -7.55 KCAL/MOL
REMARK 923 INTER-LIGAND FREE ENERGY PREDICTED BY IDOCK:   -7.53 KCAL/MOL
REMARK 924 INTRA-LIGAND FREE ENERGY PREDICTED BY IDOCK:   -0.02 KCAL/MOL
REMARK 927      BINDING AFFINITY PREDICTED BY RF-SCORE:    0.00 PKD
ROOT
HETATM    1  C   UNL     1      -7.201   1.973  67.856  1.00  0.00    -0.047 C  
HETATM    2  N   UNL     1      -7.738   2.631  69.054  1.00  0.00    -0.046 NA 
HETATM    3  C   UNL     1      -7.081   3.938  69.207  1.00  0.00    -0.046 C  
ENDROOT
BRANCH   2   4
HETATM    4  C   UNL     1      -9.193   2.832  68.937  1.00  0.00    -0.161 C  
BRANCH   4   5
HETATM    5  C   UNL     1      -9.652   4.200  68.518  1.00  0.00    -0.192 C  
HETATM    6  C   UNL     1      -9.952   4.627  67.279  1.00  0.00    -0.203 C  
BRANCH   6   7
HETATM    7  C   UNL     1     -10.376   6.039  67.083  1.00  0.00    -0.230 C  
HETATM    8  N   UNL     1      -9.336   6.949  67.189  1.00  0.00    -0.136 N  
HETATM    9  O   UNL     1     -11.534   6.310  66.778  1.00  0.00    -0.103 OA 
HETATM   10  H   UNL     1      -8.418   6.618  67.485  1.00  0.00     0.000 HD 
BRANCH   8  11
HETATM   11  C   UNL     1      -9.507   8.323  66.898  1.00  0.00    -0.186 A  
HETATM   12  C   UNL     1      -8.716   8.994  65.963  1.00  0.00    -0.160 A  
HETATM   13  N   UNL     1     -11.845  12.542  67.675  1.00  0.00    -0.419 NA 
HETATM   14  C   UNL     1      -8.992  10.343  65.683  1.00  0.00    -0.198 A  
HETATM   15  C   UNL     1     -10.470   9.065  67.606  1.00  0.00    -0.324 A  
HETATM   16  C   UNL     1      -9.991  11.065  66.329  1.00  0.00    -0.224 A  
HETATM   17  C   UNL     1     -10.710  10.441  67.351  1.00  0.00    -0.338 A  
HETATM   18  N   UNL     1     -10.199  12.335  65.969  1.00  0.00    -0.237 NA 
HETATM   19  C   UNL     1     -11.139  13.006  66.642  1.00  0.00    -0.289 A  
HETATM   20  C   UNL     1     -11.626  11.268  68.046  1.00  0.00    -0.272 A  
BRANCH  12  21
HETATM   21  O   UNL     1      -7.572   8.533  65.381  1.00  0.00    -0.083 OA 
BRANCH  21  22
HETATM   22  C   UNL     1      -7.601   7.574  64.329  1.00  0.00    -0.105 C  
HETATM   23  C   UNL     1      -6.334   6.767  62.451  1.00  0.00    -0.039 C  
HETATM   24  C   UNL     1      -6.616   6.473  64.713  1.00  0.00    -0.038 C  
HETATM   25  O   UNL     1      -6.268   5.801  63.506  1.00  0.00    -0.024 OA 
HETATM   26  C   UNL     1      -7.051   8.002  62.982  1.00  0.00    -0.088 C  
ENDBRANCH  21  22
ENDBRANCH  12  21
BRANCH  20  27
HETATM   27  N   UNL     1     -12.330  10.745  69.167  1.00  0.00    -0.736 NA 
HETATM   28  H   UNL     1     -13.323  10.977  69.215  1.00  0.00     0.000 HD 
BRANCH  27  29
HETATM   29  C   UNL     1     -11.833   9.944  70.226  1.00  0.00    -0.184 A  
HETATM   30  C   UNL     1     -10.463   9.728  70.442  1.00  0.00    -0.358 A  
HETATM   31  C   UNL     1     -10.021   8.972  71.531  1.00  0.00    -0.321 A  
HETATM   32 CL   UNL     1      -8.329   8.691  71.730  1.00  0.00    -0.213 Cl 
HETATM   33  C   UNL     1     -10.936   8.446  72.433  1.00  0.00    -0.355 A  
HETATM   34  C   UNL     1     -12.292   8.688  72.272  1.00  0.00    -0.449 A  
HETATM   35  F   UNL     1     -10.527   7.720  73.482  1.00  0.00    -0.385 F  
HETATM   36  C   UNL     1     -12.737   9.440  71.180  1.00  0.00    -0.342 A  
ENDBRANCH  27  29
ENDBRANCH  20  27
ENDBRANCH   8  11
ENDBRANCH   6   7
ENDBRANCH   4   5
ENDBRANCH   2   4
TORSDOF 8
ENDMDL
MODEL      142
REMARK 921   NORMALIZED FREE ENERGY PREDICTED BY IDOCK:   -4.06 KCAL/MOL
REMARK 922        TOTAL FREE ENERGY PREDICTED BY IDOCK:   -7.49 KCAL/MOL
REMARK 923 INTER-LIGAND FREE ENERGY PREDICTED BY IDOCK:   -6.74 KCAL/MOL
REMARK 924 INTRA-LIGAND FREE ENERGY PREDICTED BY IDOCK:   -0.75 KCAL/MOL
REMARK 927      BINDING AFFINITY PREDICTED BY RF-SCORE:    0.00 PKD
ROOT
HETATM    1  C   UNL     1     -12.341  12.424  63.475  1.00  0.00    -0.546 C  
HETATM    2  N   UNL     1     -11.361  11.622  64.218  1.00  0.00    -0.316 NA 
HETATM    3  C   UNL     1     -10.181  11.413  63.364  1.00  0.00    -0.411 C  
ENDROOT
BRANCH   2   4
HETATM    4  C   UNL     1     -10.947  12.307  65.454  1.00  0.00    -0.301 C  
BRANCH   4   5
HETATM    5  C   UNL     1     -10.340  11.449  66.528  1.00  0.00    -0.277 C  
HETATM    6  C   UNL     1     -10.957  10.887  67.582  1.00  0.00    -0.350 C  
BRANCH   6   7
HETATM    7  C   UNL     1     -10.157  10.079  68.542  1.00  0.00    -0.169 C  
HETATM    8  N   UNL     1     -10.702   8.832  68.803  1.00  0.00    -0.402 N  
HETATM    9  O   UNL     1      -9.083  10.492  68.967  1.00  0.00    -0.171 OA 
HETATM   10  H   UNL     1     -11.623   8.605  68.426  1.00  0.00     0.000 HD 
BRANCH   8  11
HETATM   11  C   UNL     1     -10.023   7.862  69.577  1.00  0.00    -0.189 A  
HETATM   12  C   UNL     1     -10.191   7.755  70.959  1.00  0.00    -0.197 A  
HETATM   13  N   UNL     1      -6.877   4.133  69.857  1.00  0.00    -0.040 NA 
HETATM   14  C   UNL     1      -9.530   6.723  71.646  1.00  0.00    -0.155 A  
HETATM   15  C   UNL     1      -9.101   7.001  68.953  1.00  0.00    -0.134 A  
HETATM   16  C   UNL     1      -8.671   5.822  71.023  1.00  0.00    -0.134 A  
HETATM   17  C   UNL     1      -8.400   5.991  69.663  1.00  0.00    -0.119 A  
HETATM   18  N   UNL     1      -8.115   4.853  71.757  1.00  0.00    -0.111 NA 
HETATM   19  C   UNL     1      -7.265   4.035  71.129  1.00  0.00    -0.033 A  
HETATM   20  C   UNL     1      -7.427   5.116  69.122  1.00  0.00    -0.065 A  
BRANCH  12  21
HETATM   21  O   UNL     1     -10.815   8.650  71.777  1.00  0.00    -0.274 OA 
BRANCH  21  22
HETATM   22  C   UNL     1     -12.181   8.501  72.147  1.00  0.00    -0.382 C  
HETATM   23  C   UNL     1     -14.407   8.440  71.239  1.00  0.00    -0.239 C  
HETATM   24  C   UNL     1     -12.602   7.099  71.716  1.00  0.00    -0.346 C  
HETATM   25  O   UNL     1     -14.023   7.114  71.619  1.00  0.00    -0.380 OA 
HETATM   26  C   UNL     1     -13.198   9.352  71.413  1.00  0.00    -0.415 C  
ENDBRANCH  21  22
ENDBRANCH  12  21
BRANCH  20  27
HETATM   27  N   UNL     1      -7.013   5.280  67.769  1.00  0.00    -0.064 NA 
HETATM   28  H   UNL     1      -6.546   6.161  67.552  1.00  0.00     0.000 HD 
BRANCH  27  29
HETATM   29  C   UNL     1      -7.165   4.380  66.685  1.00  0.00    -0.079 A  
HETATM   30  C   UNL     1      -7.726   4.755  65.454  1.00  0.00    -0.086 A  
HETATM   31  C   UNL     1      -7.808   3.844  64.397  1.00  0.00    -0.085 A  
HETATM   32 CL   UNL     1      -8.549   4.334  62.917  1.00  0.00    -0.096 Cl 
HETATM   33  C   UNL     1      -7.306   2.557  64.545  1.00  0.00    -0.062 A  
HETATM   34  C   UNL     1      -6.700   2.177  65.733  1.00  0.00    -0.035 A  
HETATM   35  F   UNL     1      -7.376   1.673  63.541  1.00  0.00    -0.042 F  
HETATM   36  C   UNL     1      -6.622   3.086  66.794  1.00  0.00    -0.037 A  
ENDBRANCH  27  29
ENDBRANCH  20  27
ENDBRANCH   8  11
ENDBRANCH   6   7
ENDBRANCH   4   5
ENDBRANCH   2   4
TORSDOF 8
ENDMDL
MODEL      143
REMARK 921   NORMALIZED FREE ENERGY PREDICTED BY IDOCK:   -4.04 KCAL/MOL
REMARK 922        TOTAL FREE ENERGY PREDICTED BY IDOCK:   -7.46 KCAL/MOL
REMARK 923 INTER-LIGAND FREE ENERGY PREDICTED BY IDOCK:   -6.90 KCAL/MOL
REMARK 924 INTRA-LIGAND FREE ENERGY PREDICTED BY IDOCK:   -0.56 KCAL/MOL
REMARK 927      BINDING AFFINITY PREDICTED BY RF-SCORE:    0.00 PKD
ROOT
HETATM    1  C   UNL     1     -11.451  15.196  67.079  1.00  0.00    -0.228 C  
HETATM    2  N   UNL     1     -11.113  14.996  68.494  1.00  0.00    -0.260 NA 
HETATM    3  C   UNL     1     -11.377  16.246  69.222  1.00  0.00    -0.288 C  
ENDROOT
BRANCH   2   4
HETATM    4  C   UNL     1     -11.923  13.914  69.080  1.00  0.00    -0.363 C  
BRANCH   4   5
HETATM    5  C   UNL     1     -11.505  12.508  68.756  1.00  0.00    -0.353 C  
HETATM    6  C   UNL     1     -11.613  11.415  69.533  1.00  0.00    -0.399 C  
BRANCH   6   7
HETATM    7  C   UNL     1     -11.118  10.110  69.018  1.00  0.00    -0.205 C  
HETATM    8  N   UNL     1     -10.816   9.200  70.018  1.00  0.00    -0.232 N  
HETATM    9  O   UNL     1     -11.079   9.886  67.812  1.00  0.00    -0.269 OA 
HETATM   10  H   UNL     1     -10.848   9.505  70.991  1.00  0.00     0.000 HD 
BRANCH   8  11
HETATM   11  C   UNL     1     -10.466   7.859  69.732  1.00  0.00    -0.233 A  
HETATM   12  C   UNL     1     -11.186   6.774  70.234  1.00  0.00    -0.334 A  
HETATM   13  N   UNL     1      -7.515   4.645  67.532  1.00  0.00    -0.077 NA 
HETATM   14  C   UNL     1     -10.814   5.475  69.851  1.00  0.00    -0.298 A  
HETATM   15  C   UNL     1      -9.321   7.594  68.958  1.00  0.00    -0.146 A  
HETATM   16  C   UNL     1      -9.724   5.207  69.028  1.00  0.00    -0.161 A  
HETATM   17  C   UNL     1      -8.922   6.274  68.615  1.00  0.00    -0.127 A  
HETATM   18  N   UNL     1      -9.470   3.939  68.691  1.00  0.00    -0.162 NA 
HETATM   19  C   UNL     1      -8.390   3.721  67.933  1.00  0.00    -0.092 A  
HETATM   20  C   UNL     1      -7.764   5.920  67.881  1.00  0.00    -0.100 A  
BRANCH  12  21
HETATM   21  O   UNL     1     -12.144   6.808  71.205  1.00  0.00    -0.343 OA 
BRANCH  21  22
HETATM   22  C   UNL     1     -11.835   6.557  72.572  1.00  0.00    -0.123 C  
HETATM   23  C   UNL     1     -10.185   5.546  73.998  1.00  0.00    -0.255 C  
HETATM   24  C   UNL     1     -10.717   7.523  72.953  1.00  0.00    -0.358 C  
HETATM   25  O   UNL     1     -10.078   6.969  74.100  1.00  0.00    -0.329 OA 
HETATM   26  C   UNL     1     -11.199   5.222  72.907  1.00  0.00    -0.375 C  
ENDBRANCH  21  22
ENDBRANCH  12  21
BRANCH  20  27
HETATM   27  N   UNL     1      -6.836   6.932  67.505  1.00  0.00    -0.074 NA 
HETATM   28  H   UNL     1      -6.154   7.194  68.217  1.00  0.00     0.000 HD 
BRANCH  27  29
HETATM   29  C   UNL     1      -6.737   7.624  66.272  1.00  0.00    -0.057 A  
HETATM   30  C   UNL     1      -7.661   8.598  65.866  1.00  0.00    -0.101 A  
HETATM   31  C   UNL     1      -7.492   9.289  64.663  1.00  0.00    -0.102 A  
HETATM   32 CL   UNL     1      -8.680  10.445  64.180  1.00  0.00    -0.194 Cl 
HETATM   33  C   UNL     1      -6.383   9.038  63.865  1.00  0.00    -0.087 A  
HETATM   34  C   UNL     1      -5.427   8.118  64.268  1.00  0.00    -0.044 A  
HETATM   35  F   UNL     1      -6.206   9.693  62.710  1.00  0.00    -0.096 F  
HETATM   36  C   UNL     1      -5.598   7.421  65.468  1.00  0.00    -0.033 A  
ENDBRANCH  27  29
ENDBRANCH  20  27
ENDBRANCH   8  11
ENDBRANCH   6   7
ENDBRANCH   4   5
ENDBRANCH   2   4
TORSDOF 8
ENDMDL
MODEL      144
REMARK 921   NORMALIZED FREE ENERGY PREDICTED BY IDOCK:   -4.03 KCAL/MOL
REMARK 922        TOTAL FREE ENERGY PREDICTED BY IDOCK:   -7.45 KCAL/MOL
REMARK 923 INTER-LIGAND FREE ENERGY PREDICTED BY IDOCK:   -6.79 KCAL/MOL
REMARK 924 INTRA-LIGAND FREE ENERGY PREDICTED BY IDOCK:   -0.66 KCAL/MOL
REMARK 927      BINDING AFFINITY PREDICTED BY RF-SCORE:    0.00 PKD
ROOT
HETATM    1  C   UNL     1      -6.121   4.067  64.948  1.00  0.00    -0.023 C  
HETATM    2  N   UNL     1      -7.571   4.030  64.719  1.00  0.00    -0.076 NA 
HETATM    3  C   UNL     1      -7.838   3.200  63.534  1.00  0.00    -0.073 C  
ENDROOT
BRANCH   2   4
HETATM    4  C   UNL     1      -8.273   3.455  65.879  1.00  0.00    -0.094 C  
BRANCH   4   5
HETATM    5  C   UNL     1      -9.196   4.374  66.630  1.00  0.00    -0.143 C  
HETATM    6  C   UNL     1      -8.866   5.437  67.384  1.00  0.00    -0.105 C  
BRANCH   6   7
HETATM    7  C   UNL     1      -9.946   6.208  68.058  1.00  0.00    -0.141 C  
HETATM    8  N   UNL     1      -9.474   7.142  68.966  1.00  0.00    -0.144 N  
HETATM    9  O   UNL     1     -11.121   6.049  67.741  1.00  0.00    -0.300 OA 
HETATM   10  H   UNL     1      -8.478   7.163  69.182  1.00  0.00     0.000 HD 
BRANCH   8  11
HETATM   11  C   UNL     1     -10.332   8.069  69.605  1.00  0.00    -0.220 A  
HETATM   12  C   UNL     1     -11.203   7.698  70.630  1.00  0.00    -0.266 A  
HETATM   13  N   UNL     1     -12.031  12.627  70.058  1.00  0.00    -0.341 NA 
HETATM   14  C   UNL     1     -11.975   8.690  71.258  1.00  0.00    -0.339 A  
HETATM   15  C   UNL     1     -10.356   9.405  69.165  1.00  0.00    -0.221 A  
HETATM   16  C   UNL     1     -11.952  10.028  70.876  1.00  0.00    -0.361 A  
HETATM   17  C   UNL     1     -11.175  10.393  69.773  1.00  0.00    -0.353 A  
HETATM   18  N   UNL     1     -12.697  10.904  71.557  1.00  0.00    -0.426 NA 
HETATM   19  C   UNL     1     -12.678  12.171  71.132  1.00  0.00    -0.253 A  
HETATM   20  C   UNL     1     -11.291  11.744  69.365  1.00  0.00    -0.272 A  
BRANCH  12  21
HETATM   21  O   UNL     1     -11.525   6.428  71.010  1.00  0.00    -0.313 OA 
BRANCH  21  22
HETATM   22  C   UNL     1     -10.822   5.755  72.048  1.00  0.00    -0.251 C  
HETATM   23  C   UNL     1     -10.751   3.686  73.272  1.00  0.00    -0.198 C  
HETATM   24  C   UNL     1      -9.947   4.702  71.374  1.00  0.00    -0.197 C  
HETATM   25  O   UNL     1      -9.641   3.730  72.371  1.00  0.00    -0.125 OA 
HETATM   26  C   UNL     1     -11.636   4.897  72.997  1.00  0.00    -0.284 C  
ENDBRANCH  21  22
ENDBRANCH  12  21
BRANCH  20  27
HETATM   27  N   UNL     1     -10.614  12.181  68.191  1.00  0.00    -0.208 NA 
HETATM   28  H   UNL     1     -11.165  12.751  67.548  1.00  0.00     0.000 HD 
BRANCH  27  29
HETATM   29  C   UNL     1      -9.276  11.927  67.798  1.00  0.00    -0.184 A  
HETATM   30  C   UNL     1      -8.924  10.908  66.901  1.00  0.00    -0.158 A  
HETATM   31  C   UNL     1      -7.595  10.729  66.504  1.00  0.00    -0.139 A  
HETATM   32 CL   UNL     1      -7.201   9.431  65.437  1.00  0.00    -0.090 Cl 
HETATM   33  C   UNL     1      -6.607  11.584  66.975  1.00  0.00    -0.138 A  
HETATM   34  C   UNL     1      -6.935  12.632  67.822  1.00  0.00    -0.125 A  
HETATM   35  F   UNL     1      -5.330  11.427  66.604  1.00  0.00    -0.074 F  
HETATM   36  C   UNL     1      -8.263  12.808  68.224  1.00  0.00    -0.159 A  
ENDBRANCH  27  29
ENDBRANCH  20  27
ENDBRANCH   8  11
ENDBRANCH   6   7
ENDBRANCH   4   5
ENDBRANCH   2   4
TORSDOF 8
ENDMDL
MODEL      145
REMARK 921   NORMALIZED FREE ENERGY PREDICTED BY IDOCK:   -3.97 KCAL/MOL
REMARK 922        TOTAL FREE ENERGY PREDICTED BY IDOCK:   -7.36 KCAL/MOL
REMARK 923 INTER-LIGAND FREE ENERGY PREDICTED BY IDOCK:   -7.28 KCAL/MOL
REMARK 924 INTRA-LIGAND FREE ENERGY PREDICTED BY IDOCK:   -0.09 KCAL/MOL
REMARK 927      BINDING AFFINITY PREDICTED BY RF-SCORE:    0.00 PKD
ROOT
HETATM    1  C   UNL     1     -12.092  14.659  70.913  1.00  0.00    -0.328 C  
HETATM    2  N   UNL     1     -11.665  15.075  69.571  1.00  0.00    -0.303 NA 
HETATM    3  C   UNL     1     -10.215  15.319  69.593  1.00  0.00    -0.244 C  
ENDROOT
BRANCH   2   4
HETATM    4  C   UNL     1     -11.964  14.030  68.576  1.00  0.00    -0.348 C  
BRANCH   4   5
HETATM    5  C   UNL     1     -11.321  12.690  68.793  1.00  0.00    -0.333 C  
HETATM    6  C   UNL     1     -11.807  11.644  69.486  1.00  0.00    -0.414 C  
BRANCH   6   7
HETATM    7  C   UNL     1     -10.992  10.404  69.589  1.00  0.00    -0.277 C  
HETATM    8  N   UNL     1     -11.751   9.255  69.748  1.00  0.00    -0.419 N  
HETATM    9  O   UNL     1      -9.773  10.441  69.455  1.00  0.00    -0.217 OA 
HETATM   10  H   UNL     1     -12.758   9.343  69.887  1.00  0.00     0.000 HD 
BRANCH   8  11
HETATM   11  C   UNL     1     -11.174   7.964  69.725  1.00  0.00     0.011 A  
HETATM   12  C   UNL     1     -11.057   7.175  70.870  1.00  0.00    -0.263 A  
HETATM   13  N   UNL     1      -9.040   4.340  67.237  1.00  0.00    -0.128 NA 
HETATM   14  C   UNL     1     -10.532   5.877  70.752  1.00  0.00    -0.311 A  
HETATM   15  C   UNL     1     -10.647   7.465  68.519  1.00  0.00    -0.188 A  
HETATM   16  C   UNL     1     -10.073   5.349  69.549  1.00  0.00    -0.240 A  
HETATM   17  C   UNL     1     -10.073   6.169  68.417  1.00  0.00    -0.186 A  
HETATM   18  N   UNL     1      -9.622   4.091  69.530  1.00  0.00    -0.195 NA 
HETATM   19  C   UNL     1      -9.152   3.637  68.364  1.00  0.00    -0.147 A  
HETATM   20  C   UNL     1      -9.482   5.610  67.258  1.00  0.00    -0.115 A  
BRANCH  12  21
HETATM   21  O   UNL     1     -11.253   7.574  72.160  1.00  0.00    -0.246 OA 
BRANCH  21  22
HETATM   22  C   UNL     1     -10.186   8.067  72.962  1.00  0.00    -0.286 C  
HETATM   23  C   UNL     1      -8.005   7.491  73.795  1.00  0.00    -0.137 C  
HETATM   24  C   UNL     1      -9.067   8.467  72.005  1.00  0.00    -0.247 C  
HETATM   25  O   UNL     1      -7.865   8.481  72.771  1.00  0.00    -0.309 OA 
HETATM   26  C   UNL     1      -9.469   7.071  73.853  1.00  0.00    -0.278 C  
ENDBRANCH  21  22
ENDBRANCH  12  21
BRANCH  20  27
HETATM   27  N   UNL     1      -9.346   6.409  66.087  1.00  0.00    -0.310 NA 
HETATM   28  H   UNL     1      -9.870   6.091  65.271  1.00  0.00     0.000 HD 
BRANCH  27  29
HETATM   29  C   UNL     1      -8.579   7.586  65.906  1.00  0.00    -0.151 A  
HETATM   30  C   UNL     1      -8.081   8.346  66.977  1.00  0.00    -0.104 A  
HETATM   31  C   UNL     1      -7.286   9.472  66.748  1.00  0.00    -0.090 A  
HETATM   32 CL   UNL     1      -6.737  10.404  68.093  1.00  0.00    -0.060 Cl 
HETATM   33  C   UNL     1      -6.954   9.838  65.450  1.00  0.00    -0.105 A  
HETATM   34  C   UNL     1      -7.389   9.076  64.377  1.00  0.00    -0.099 A  
HETATM   35  F   UNL     1      -6.192  10.914  65.215  1.00  0.00    -0.115 F  
HETATM   36  C   UNL     1      -8.189   7.952  64.604  1.00  0.00    -0.094 A  
ENDBRANCH  27  29
ENDBRANCH  20  27
ENDBRANCH   8  11
ENDBRANCH   6   7
ENDBRANCH   4   5
ENDBRANCH   2   4
TORSDOF 8
ENDMDL
MODEL      146
REMARK 921   NORMALIZED FREE ENERGY PREDICTED BY IDOCK:   -3.89 KCAL/MOL
REMARK 922        TOTAL FREE ENERGY PREDICTED BY IDOCK:   -7.25 KCAL/MOL
REMARK 923 INTER-LIGAND FREE ENERGY PREDICTED BY IDOCK:   -7.04 KCAL/MOL
REMARK 924 INTRA-LIGAND FREE ENERGY PREDICTED BY IDOCK:   -0.21 KCAL/MOL
REMARK 927      BINDING AFFINITY PREDICTED BY RF-SCORE:    0.00 PKD
ROOT
HETATM    1  C   UNL     1     -11.155  16.669  66.417  1.00  0.00     0.275 C  
HETATM    2  N   UNL     1     -11.067  15.913  65.161  1.00  0.00    -0.344 NA 
HETATM    3  C   UNL     1      -9.733  15.299  65.075  1.00  0.00     0.159 C  
ENDROOT
BRANCH   2   4
HETATM    4  C   UNL     1     -12.090  14.854  65.110  1.00  0.00    -0.163 C  
BRANCH   4   5
HETATM    5  C   UNL     1     -11.974  13.756  66.129  1.00  0.00    -0.449 C  
HETATM    6  C   UNL     1     -11.153  12.691  66.103  1.00  0.00    -0.327 C  
BRANCH   6   7
HETATM    7  C   UNL     1     -11.212  11.707  67.218  1.00  0.00    -0.304 C  
HETATM    8  N   UNL     1     -11.771  12.219  68.378  1.00  0.00    -0.323 N  
HETATM    9  O   UNL     1     -10.862  10.543  67.047  1.00  0.00    -0.268 OA 
HETATM   10  H   UNL     1     -11.993  13.213  68.423  1.00  0.00     0.000 HD 
BRANCH   8  11
HETATM   11  C   UNL     1     -12.044  11.405  69.503  1.00  0.00    -0.302 A  
HETATM   12  C   UNL     1     -12.740  11.877  70.617  1.00  0.00    -0.091 A  
HETATM   13  N   UNL     1     -11.686   7.097  71.782  1.00  0.00    -0.277 NA 
HETATM   14  C   UNL     1     -13.028  10.987  71.666  1.00  0.00    -0.561 A  
HETATM   15  C   UNL     1     -11.556  10.085  69.536  1.00  0.00    -0.119 A  
HETATM   16  C   UNL     1     -12.610   9.660  71.674  1.00  0.00    -0.402 A  
HETATM   17  C   UNL     1     -11.810   9.206  70.622  1.00  0.00    -0.222 A  
HETATM   18  N   UNL     1     -12.963   8.882  72.702  1.00  0.00    -0.356 NA 
HETATM   19  C   UNL     1     -12.507   7.626  72.692  1.00  0.00     0.134 A  
HETATM   20  C   UNL     1     -11.321   7.884  70.754  1.00  0.00    -0.274 A  
BRANCH  12  21
HETATM   21  O   UNL     1     -13.054  13.175  70.894  1.00  0.00    -0.126 OA 
BRANCH  21  22
HETATM   22  C   UNL     1     -12.172  14.020  71.625  1.00  0.00    -0.141 C  
HETATM   23  C   UNL     1     -11.742  16.326  72.152  1.00  0.00    -0.441 C  
HETATM   24  C   UNL     1     -12.939  14.494  72.855  1.00  0.00    -0.488 C  
HETATM   25  O   UNL     1     -12.289  15.680  73.306  1.00  0.00    -0.398 OA 
HETATM   26  C   UNL     1     -11.788  15.342  70.989  1.00  0.00    -0.406 C  
ENDBRANCH  21  22
ENDBRANCH  12  21
BRANCH  20  27
HETATM   27  N   UNL     1     -10.417   7.372  69.780  1.00  0.00    -0.223 NA 
HETATM   28  H   UNL     1     -10.745   7.397  68.814  1.00  0.00     0.000 HD 
BRANCH  27  29
HETATM   29  C   UNL     1      -9.121   6.832  69.978  1.00  0.00    -0.148 A  
HETATM   30  C   UNL     1      -7.956   7.613  69.949  1.00  0.00    -0.115 A  
HETATM   31  C   UNL     1      -6.705   7.042  70.200  1.00  0.00    -0.052 A  
HETATM   32 CL   UNL     1      -5.293   8.031  70.106  1.00  0.00    -0.023 Cl 
HETATM   33  C   UNL     1      -6.604   5.692  70.511  1.00  0.00    -0.040 A  
HETATM   34  C   UNL     1      -7.744   4.909  70.597  1.00  0.00    -0.066 A  
HETATM   35  F   UNL     1      -5.412   5.132  70.755  1.00  0.00    -0.004 F  
HETATM   36  C   UNL     1      -8.997   5.477  70.341  1.00  0.00    -0.156 A  
ENDBRANCH  27  29
ENDBRANCH  20  27
ENDBRANCH   8  11
ENDBRANCH   6   7
ENDBRANCH   4   5
ENDBRANCH   2   4
TORSDOF 8
ENDMDL
MODEL      147
REMARK 921   NORMALIZED FREE ENERGY PREDICTED BY IDOCK:   -3.88 KCAL/MOL
REMARK 922        TOTAL FREE ENERGY PREDICTED BY IDOCK:   -7.24 KCAL/MOL
REMARK 923 INTER-LIGAND FREE ENERGY PREDICTED BY IDOCK:   -6.93 KCAL/MOL
REMARK 924 INTRA-LIGAND FREE ENERGY PREDICTED BY IDOCK:   -0.31 KCAL/MOL
REMARK 927      BINDING AFFINITY PREDICTED BY RF-SCORE:    0.00 PKD
ROOT
HETATM    1  C   UNL     1      -6.725   2.006  67.782  1.00  0.00    -0.035 C  
HETATM    2  N   UNL     1      -7.345   2.667  68.937  1.00  0.00    -0.047 NA 
HETATM    3  C   UNL     1      -6.800   4.029  69.048  1.00  0.00    -0.046 C  
ENDROOT
BRANCH   2   4
HETATM    4  C   UNL     1      -8.808   2.743  68.778  1.00  0.00    -0.105 C  
BRANCH   4   5
HETATM    5  C   UNL     1      -9.411   4.119  68.753  1.00  0.00    -0.231 C  
HETATM    6  C   UNL     1      -9.611   4.913  67.686  1.00  0.00    -0.183 C  
BRANCH   6   7
HETATM    7  C   UNL     1     -10.217   6.257  67.889  1.00  0.00    -0.169 C  
HETATM    8  N   UNL     1      -9.315   7.206  68.343  1.00  0.00    -0.136 N  
HETATM    9  O   UNL     1     -11.387   6.470  67.589  1.00  0.00    -0.268 OA 
HETATM   10  H   UNL     1      -8.372   6.911  68.599  1.00  0.00     0.000 HD 
BRANCH   8  11
HETATM   11  C   UNL     1      -9.660   8.573  68.464  1.00  0.00    -0.151 A  
HETATM   12  C   UNL     1      -9.083   9.564  67.668  1.00  0.00    -0.120 A  
HETATM   13  N   UNL     1     -12.261  12.094  70.635  1.00  0.00    -0.364 NA 
HETATM   14  C   UNL     1      -9.526  10.890  67.804  1.00  0.00    -0.165 A  
HETATM   15  C   UNL     1     -10.578   8.969  69.454  1.00  0.00    -0.231 A  
HETATM   16  C   UNL     1     -10.487  11.279  68.733  1.00  0.00    -0.208 A  
HETATM   17  C   UNL     1     -10.986  10.320  69.617  1.00  0.00    -0.314 A  
HETATM   18  N   UNL     1     -10.869  12.559  68.763  1.00  0.00    -0.247 NA 
HETATM   19  C   UNL     1     -11.762  12.900  69.697  1.00  0.00    -0.299 A  
HETATM   20  C   UNL     1     -11.868  10.808  70.613  1.00  0.00    -0.360 A  
BRANCH  12  21
HETATM   21  O   UNL     1      -7.996   9.427  66.855  1.00  0.00    -0.107 OA 
BRANCH  21  22
HETATM   22  C   UNL     1      -7.992   9.919  65.519  1.00  0.00    -0.128 C  
HETATM   23  C   UNL     1      -6.982   9.576  63.364  1.00  0.00    -0.101 C  
HETATM   24  C   UNL     1      -8.745   8.896  64.673  1.00  0.00    -0.103 C  
HETATM   25  O   UNL     1      -8.332   9.103  63.325  1.00  0.00    -0.173 OA 
HETATM   26  C   UNL     1      -6.658   9.971  64.800  1.00  0.00    -0.127 C  
ENDBRANCH  21  22
ENDBRANCH  12  21
BRANCH  20  27
HETATM   27  N   UNL     1     -12.347   9.921  71.619  1.00  0.00    -0.395 NA 
HETATM   28  H   UNL     1     -13.106  10.279  72.200  1.00  0.00     0.000 HD 
BRANCH  27  29
HETATM   29  C   UNL     1     -11.909   8.607  71.918  1.00  0.00    -0.351 A  
HETATM   30  C   UNL     1     -10.863   8.336  72.814  1.00  0.00    -0.308 A  
HETATM   31  C   UNL     1     -10.500   7.021  73.115  1.00  0.00    -0.303 A  
HETATM   32 CL   UNL     1      -9.175   6.735  74.185  1.00  0.00    -0.213 Cl 
HETATM   33  C   UNL     1     -11.195   5.959  72.550  1.00  0.00    -0.294 A  
HETATM   34  C   UNL     1     -12.266   6.198  71.703  1.00  0.00    -0.024 A  
HETATM   35  F   UNL     1     -10.860   4.693  72.831  1.00  0.00    -0.241 F  
HETATM   36  C   UNL     1     -12.627   7.514  71.395  1.00  0.00    -0.382 A  
ENDBRANCH  27  29
ENDBRANCH  20  27
ENDBRANCH   8  11
ENDBRANCH   6   7
ENDBRANCH   4   5
ENDBRANCH   2   4
TORSDOF 8
ENDMDL
MODEL      148
REMARK 921   NORMALIZED FREE ENERGY PREDICTED BY IDOCK:   -3.88 KCAL/MOL
REMARK 922        TOTAL FREE ENERGY PREDICTED BY IDOCK:   -7.23 KCAL/MOL
REMARK 923 INTER-LIGAND FREE ENERGY PREDICTED BY IDOCK:   -6.34 KCAL/MOL
REMARK 924 INTRA-LIGAND FREE ENERGY PREDICTED BY IDOCK:   -0.90 KCAL/MOL
REMARK 927      BINDING AFFINITY PREDICTED BY RF-SCORE:    0.00 PKD
ROOT
HETATM    1  C   UNL     1     -12.465  13.625  65.663  1.00  0.00    -0.496 C  
HETATM    2  N   UNL     1     -11.030  13.750  65.947  1.00  0.00    -0.282 NA 
HETATM    3  C   UNL     1     -10.616  15.135  65.677  1.00  0.00    -0.356 C  
ENDROOT
BRANCH   2   4
HETATM    4  C   UNL     1     -10.741  13.424  67.354  1.00  0.00    -0.262 C  
BRANCH   4   5
HETATM    5  C   UNL     1     -10.737  11.967  67.720  1.00  0.00    -0.243 C  
HETATM    6  C   UNL     1      -9.739  11.259  68.278  1.00  0.00    -0.199 C  
BRANCH   6   7
HETATM    7  C   UNL     1      -9.943   9.810  68.547  1.00  0.00    -0.160 C  
HETATM    8  N   UNL     1      -9.246   9.350  69.653  1.00  0.00    -0.172 N  
HETATM    9  O   UNL     1     -10.729   9.151  67.873  1.00  0.00    -0.230 OA 
HETATM   10  H   UNL     1      -8.589   9.976  70.120  1.00  0.00     0.000 HD 
BRANCH   8  11
HETATM   11  C   UNL     1      -9.417   8.038  70.157  1.00  0.00    -0.160 A  
HETATM   12  C   UNL     1     -10.127   7.773  71.328  1.00  0.00    -0.179 A  
HETATM   13  N   UNL     1      -8.612   3.234  69.776  1.00  0.00    -0.060 NA 
HETATM   14  C   UNL     1     -10.308   6.438  71.726  1.00  0.00    -0.231 A  
HETATM   15  C   UNL     1      -8.809   6.958  69.490  1.00  0.00    -0.133 A  
HETATM   16  C   UNL     1      -9.769   5.358  71.033  1.00  0.00    -0.179 A  
HETATM   17  C   UNL     1      -8.956   5.614  69.927  1.00  0.00    -0.142 A  
HETATM   18  N   UNL     1     -10.025   4.122  71.472  1.00  0.00    -0.181 NA 
HETATM   19  C   UNL     1      -9.456   3.115  70.802  1.00  0.00    -0.161 A  
HETATM   20  C   UNL     1      -8.344   4.479  69.342  1.00  0.00    -0.070 A  
BRANCH  12  21
HETATM   21  O   UNL     1     -10.552   8.685  72.250  1.00  0.00    -0.334 OA 
BRANCH  21  22
HETATM   22  C   UNL     1     -11.885   9.183  72.252  1.00  0.00    -0.165 C  
HETATM   23  C   UNL     1     -13.659   9.889  70.790  1.00  0.00     0.076 C  
HETATM   24  C   UNL     1     -12.785   8.029  71.820  1.00  0.00    -0.329 C  
HETATM   25  O   UNL     1     -13.995   8.614  71.347  1.00  0.00    -0.352 OA 
HETATM   26  C   UNL     1     -12.237  10.234  71.217  1.00  0.00    -0.496 C  
ENDBRANCH  21  22
ENDBRANCH  12  21
BRANCH  20  27
HETATM   27  N   UNL     1      -7.420   4.654  68.273  1.00  0.00    -0.065 NA 
HETATM   28  H   UNL     1      -6.438   4.513  68.509  1.00  0.00     0.000 HD 
BRANCH  27  29
HETATM   29  C   UNL     1      -7.687   4.997  66.924  1.00  0.00    -0.092 A  
HETATM   30  C   UNL     1      -7.206   6.172  66.326  1.00  0.00    -0.072 A  
HETATM   31  C   UNL     1      -7.453   6.442  64.977  1.00  0.00    -0.084 A  
HETATM   32 CL   UNL     1      -6.884   7.923  64.295  1.00  0.00    -0.060 Cl 
HETATM   33  C   UNL     1      -8.157   5.530  64.201  1.00  0.00    -0.124 A  
HETATM   34  C   UNL     1      -8.599   4.338  64.754  1.00  0.00    -0.127 A  
HETATM   35  F   UNL     1      -8.401   5.775  62.907  1.00  0.00    -0.108 F  
HETATM   36  C   UNL     1      -8.357   4.069  66.105  1.00  0.00    -0.108 A  
ENDBRANCH  27  29
ENDBRANCH  20  27
ENDBRANCH   8  11
ENDBRANCH   6   7
ENDBRANCH   4   5
ENDBRANCH   2   4
TORSDOF 8
ENDMDL
MODEL      149
REMARK 921   NORMALIZED FREE ENERGY PREDICTED BY IDOCK:   -3.76 KCAL/MOL
REMARK 922        TOTAL FREE ENERGY PREDICTED BY IDOCK:   -7.06 KCAL/MOL
REMARK 923 INTER-LIGAND FREE ENERGY PREDICTED BY IDOCK:   -5.78 KCAL/MOL
REMARK 924 INTRA-LIGAND FREE ENERGY PREDICTED BY IDOCK:   -1.28 KCAL/MOL
REMARK 927      BINDING AFFINITY PREDICTED BY RF-SCORE:    0.00 PKD
ROOT
HETATM    1  C   UNL     1     -11.904   6.091  72.498  1.00  0.00    -0.186 C  
HETATM    2  N   UNL     1     -10.711   5.742  73.280  1.00  0.00    -0.252 NA 
HETATM    3  C   UNL     1     -10.691   4.285  73.481  1.00  0.00    -0.242 C  
ENDROOT
BRANCH   2   4
HETATM    4  C   UNL     1      -9.483   6.151  72.578  1.00  0.00    -0.143 C  
BRANCH   4   5
HETATM    5  C   UNL     1      -9.599   6.381  71.097  1.00  0.00    -0.187 C  
HETATM    6  C   UNL     1      -9.669   5.457  70.122  1.00  0.00    -0.252 C  
BRANCH   6   7
HETATM    7  C   UNL     1      -9.766   5.907  68.707  1.00  0.00    -0.131 C  
HETATM    8  N   UNL     1      -8.632   6.564  68.257  1.00  0.00    -0.116 N  
HETATM    9  O   UNL     1     -10.746   5.623  68.024  1.00  0.00    -0.219 OA 
HETATM   10  H   UNL     1      -7.890   6.781  68.922  1.00  0.00     0.000 HD 
BRANCH   8  11
HETATM   11  C   UNL     1      -8.472   6.944  66.903  1.00  0.00    -0.115 A  
HETATM   12  C   UNL     1      -8.229   6.016  65.889  1.00  0.00    -0.129 A  
HETATM   13  N   UNL     1      -8.300  10.439  63.494  1.00  0.00    -0.166 NA 
HETATM   14  C   UNL     1      -8.147   6.467  64.561  1.00  0.00    -0.088 A  
HETATM   15  C   UNL     1      -8.502   8.308  66.561  1.00  0.00    -0.121 A  
HETATM   16  C   UNL     1      -8.247   7.808  64.205  1.00  0.00    -0.026 A  
HETATM   17  C   UNL     1      -8.370   8.760  65.220  1.00  0.00    -0.168 A  
HETATM   18  N   UNL     1      -8.190   8.135  62.911  1.00  0.00    -0.155 NA 
HETATM   19  C   UNL     1      -8.249   9.437  62.615  1.00  0.00    -0.159 A  
HETATM   20  C   UNL     1      -8.345  10.111  64.797  1.00  0.00    -0.165 A  
BRANCH  12  21
HETATM   21  O   UNL     1      -7.898   4.702  66.047  1.00  0.00    -0.094 OA 
BRANCH  21  22
HETATM   22  C   UNL     1      -6.649   4.305  66.600  1.00  0.00    -0.049 C  
HETATM   23  C   UNL     1      -5.582   2.524  67.814  1.00  0.00    -0.018 C  
HETATM   24  C   UNL     1      -6.088   3.222  65.683  1.00  0.00    -0.023 C  
HETATM   25  O   UNL     1      -5.138   2.490  66.454  1.00  0.00    -0.004 OA 
HETATM   26  C   UNL     1      -6.677   3.578  67.931  1.00  0.00    -0.046 C  
ENDBRANCH  21  22
ENDBRANCH  12  21
BRANCH  20  27
HETATM   27  N   UNL     1      -8.363  11.150  65.770  1.00  0.00    -0.336 NA 
HETATM   28  H   UNL     1      -7.452  11.432  66.135  1.00  0.00     0.000 HD 
BRANCH  27  29
HETATM   29  C   UNL     1      -9.480  11.844  66.299  1.00  0.00    -0.227 A  
HETATM   30  C   UNL     1     -10.203  11.392  67.414  1.00  0.00    -0.221 A  
HETATM   31  C   UNL     1     -11.266  12.138  67.930  1.00  0.00    -0.272 A  
HETATM   32 CL   UNL     1     -12.157  11.519  69.272  1.00  0.00    -0.368 Cl 
HETATM   33  C   UNL     1     -11.603  13.359  67.358  1.00  0.00    -0.354 A  
HETATM   34  C   UNL     1     -10.873  13.853  66.289  1.00  0.00    -0.290 A  
HETATM   35  F   UNL     1     -12.619  14.085  67.842  1.00  0.00    -0.242 F  
HETATM   36  C   UNL     1      -9.812  13.105  65.768  1.00  0.00    -0.214 A  
ENDBRANCH  27  29
ENDBRANCH  20  27
ENDBRANCH   8  11
ENDBRANCH   6   7
ENDBRANCH   4   5
ENDBRANCH   2   4
TORSDOF 8
ENDMDL
MODEL      150
REMARK 921   NORMALIZED FREE ENERGY PREDICTED BY IDOCK:   -3.72 KCAL/MOL
REMARK 922        TOTAL FREE ENERGY PREDICTED BY IDOCK:   -7.00 KCAL/MOL
REMARK 923 INTER-LIGAND FREE ENERGY PREDICTED BY IDOCK:   -7.68 KCAL/MOL
REMARK 924 INTRA-LIGAND FREE ENERGY PREDICTED BY IDOCK:    0.67 KCAL/MOL
REMARK 927      BINDING AFFINITY PREDICTED BY RF-SCORE:    0.00 PKD
ROOT
HETATM    1  C   UNL     1     -11.320  16.299  69.626  1.00  0.00    -0.266 C  
HETATM    2  N   UNL     1     -11.331  15.224  70.626  1.00  0.00    -0.289 NA 
HETATM    3  C   UNL     1     -11.952  15.734  71.858  1.00  0.00    -0.466 C  
ENDROOT
BRANCH   2   4
HETATM    4  C   UNL     1     -12.098  14.062  70.143  1.00  0.00    -0.351 C  
BRANCH   4   5
HETATM    5  C   UNL     1     -11.304  12.919  69.578  1.00  0.00    -0.221 C  
HETATM    6  C   UNL     1     -10.600  12.890  68.433  1.00  0.00    -0.267 C  
BRANCH   6   7
HETATM    7  C   UNL     1      -9.892  11.638  68.051  1.00  0.00    -0.190 C  
HETATM    8  N   UNL     1     -10.654  10.792  67.261  1.00  0.00    -0.241 N  
HETATM    9  O   UNL     1      -8.718  11.461  68.362  1.00  0.00    -0.147 OA 
HETATM   10  H   UNL     1     -11.634  11.020  67.094  1.00  0.00     0.000 HD 
BRANCH   8  11
HETATM   11  C   UNL     1     -10.115   9.620  66.679  1.00  0.00    -0.239 A  
HETATM   12  C   UNL     1      -9.424   9.636  65.467  1.00  0.00    -0.266 A  
HETATM   13  N   UNL     1      -9.376   4.792  66.824  1.00  0.00    -0.134 NA 
HETATM   14  C   UNL     1      -8.863   8.441  64.988  1.00  0.00    -0.028 A  
HETATM   15  C   UNL     1     -10.322   8.378  67.308  1.00  0.00    -0.369 A  
HETATM   16  C   UNL     1      -9.002   7.220  65.641  1.00  0.00     0.047 A  
HETATM   17  C   UNL     1      -9.792   7.165  66.792  1.00  0.00    -0.272 A  
HETATM   18  N   UNL     1      -8.403   6.143  65.124  1.00  0.00    -0.143 NA 
HETATM   19  C   UNL     1      -8.595   4.983  65.759  1.00  0.00    -0.131 A  
HETATM   20  C   UNL     1      -9.990   5.873  67.337  1.00  0.00    -0.149 A  
BRANCH  12  21
HETATM   21  O   UNL     1      -9.353  10.671  64.581  1.00  0.00    -0.204 OA 
BRANCH  21  22
HETATM   22  C   UNL     1     -10.217  11.799  64.675  1.00  0.00    -0.284 C  
HETATM   23  C   UNL     1     -11.783  13.111  63.407  1.00  0.00    -0.350 C  
HETATM   24  C   UNL     1     -11.640  11.255  64.755  1.00  0.00     0.220 C  
HETATM   25  O   UNL     1     -12.503  12.316  64.355  1.00  0.00    -0.439 OA 
HETATM   26  C   UNL     1     -10.316  12.703  63.462  1.00  0.00    -0.182 C  
ENDBRANCH  21  22
ENDBRANCH  12  21
BRANCH  20  27
HETATM   27  N   UNL     1     -10.862   5.709  68.450  1.00  0.00    -0.164 NA 
HETATM   28  H   UNL     1     -11.673   5.110  68.293  1.00  0.00     0.000 HD 
BRANCH  27  29
HETATM   29  C   UNL     1     -10.750   6.268  69.748  1.00  0.00    -0.297 A  
HETATM   30  C   UNL     1     -11.789   6.984  70.363  1.00  0.00    -0.295 A  
HETATM   31  C   UNL     1     -11.649   7.472  71.665  1.00  0.00    -0.268 A  
HETATM   32 CL   UNL     1     -12.934   8.389  72.364  1.00  0.00    -0.330 Cl 
HETATM   33  C   UNL     1     -10.483   7.227  72.380  1.00  0.00    -0.229 A  
HETATM   34  C   UNL     1      -9.463   6.479  71.815  1.00  0.00    -0.155 A  
HETATM   35  F   UNL     1     -10.335   7.688  73.629  1.00  0.00    -0.378 F  
HETATM   36  C   UNL     1      -9.599   5.994  70.510  1.00  0.00    -0.198 A  
ENDBRANCH  27  29
ENDBRANCH  20  27
ENDBRANCH   8  11
ENDBRANCH   6   7
ENDBRANCH   4   5
ENDBRANCH   2   4
TORSDOF 8
ENDMDL
MODEL      151
REMARK 921   NORMALIZED FREE ENERGY PREDICTED BY IDOCK:   -3.72 KCAL/MOL
REMARK 922        TOTAL FREE ENERGY PREDICTED BY IDOCK:   -7.00 KCAL/MOL
REMARK 923 INTER-LIGAND FREE ENERGY PREDICTED BY IDOCK:   -7.23 KCAL/MOL
REMARK 924 INTRA-LIGAND FREE ENERGY PREDICTED BY IDOCK:    0.23 KCAL/MOL
REMARK 927      BINDING AFFINITY PREDICTED BY RF-SCORE:    0.00 PKD
ROOT
HETATM    1  C   UNL     1     -14.383   8.514  71.806  1.00  0.00    -0.437 C  
HETATM    2  N   UNL     1     -13.193   9.086  72.450  1.00  0.00    -0.445 NA 
HETATM    3  C   UNL     1     -12.168   8.037  72.562  1.00  0.00    -0.242 C  
ENDROOT
BRANCH   2   4
HETATM    4  C   UNL     1     -12.654  10.206  71.659  1.00  0.00    -0.434 C  
BRANCH   4   5
HETATM    5  C   UNL     1     -11.572   9.873  70.671  1.00  0.00    -0.413 C  
HETATM    6  C   UNL     1     -11.589  10.053  69.338  1.00  0.00    -0.084 C  
BRANCH   6   7
HETATM    7  C   UNL     1     -10.406   9.636  68.537  1.00  0.00    -0.205 C  
HETATM    8  N   UNL     1     -10.678   8.614  67.642  1.00  0.00    -0.467 N  
HETATM    9  O   UNL     1      -9.337  10.230  68.641  1.00  0.00    -0.148 OA 
HETATM   10  H   UNL     1     -11.594   8.165  67.666  1.00  0.00     0.000 HD 
BRANCH   8  11
HETATM   11  C   UNL     1      -9.725   8.173  66.693  1.00  0.00    -0.248 A  
HETATM   12  C   UNL     1      -9.112   6.921  66.774  1.00  0.00    -0.145 A  
HETATM   13  N   UNL     1      -7.095   8.993  62.658  1.00  0.00    -0.096 NA 
HETATM   14  C   UNL     1      -8.226   6.531  65.757  1.00  0.00    -0.135 A  
HETATM   15  C   UNL     1      -9.332   9.037  65.655  1.00  0.00    -0.289 A  
HETATM   16  C   UNL     1      -7.886   7.354  64.687  1.00  0.00    -0.123 A  
HETATM   17  C   UNL     1      -8.398   8.653  64.656  1.00  0.00    -0.165 A  
HETATM   18  N   UNL     1      -7.059   6.880  63.751  1.00  0.00    -0.056 NA 
HETATM   19  C   UNL     1      -6.725   7.716  62.762  1.00  0.00    -0.071 A  
HETATM   20  C   UNL     1      -7.917   9.474  63.608  1.00  0.00    -0.141 A  
BRANCH  12  21
HETATM   21  O   UNL     1      -9.149   6.061  67.833  1.00  0.00    -0.119 OA 
BRANCH  21  22
HETATM   22  C   UNL     1      -8.187   6.119  68.880  1.00  0.00    -0.112 C  
HETATM   23  C   UNL     1      -5.874   5.683  69.369  1.00  0.00    -0.016 C  
HETATM   24  C   UNL     1      -7.288   7.316  68.583  1.00  0.00    -0.100 C  
HETATM   25  O   UNL     1      -6.075   7.098  69.298  1.00  0.00    -0.028 OA 
HETATM   26  C   UNL     1      -7.170   4.997  68.953  1.00  0.00    -0.057 C  
ENDBRANCH  21  22
ENDBRANCH  12  21
BRANCH  20  27
HETATM   27  N   UNL     1      -8.307  10.843  63.555  1.00  0.00    -0.374 NA 
HETATM   28  H   UNL     1      -7.741  11.442  62.953  1.00  0.00     0.000 HD 
BRANCH  27  29
HETATM   29  C   UNL     1      -9.377  11.481  64.229  1.00  0.00    -0.001 A  
HETATM   30  C   UNL     1     -10.673  11.567  63.696  1.00  0.00    -0.491 A  
HETATM   31  C   UNL     1     -11.708  12.163  64.422  1.00  0.00    -0.355 A  
HETATM   32 CL   UNL     1     -13.275  12.290  63.707  1.00  0.00    -0.175 Cl 
HETATM   33  C   UNL     1     -11.471  12.654  65.700  1.00  0.00    -0.350 A  
HETATM   34  C   UNL     1     -10.213  12.536  66.270  1.00  0.00    -0.265 A  
HETATM   35  F   UNL     1     -12.453  13.227  66.407  1.00  0.00    -0.429 F  
HETATM   36  C   UNL     1      -9.174  11.945  65.543  1.00  0.00    -0.016 A  
ENDBRANCH  27  29
ENDBRANCH  20  27
ENDBRANCH   8  11
ENDBRANCH   6   7
ENDBRANCH   4   5
ENDBRANCH   2   4
TORSDOF 8
ENDMDL
MODEL      152
REMARK 921   NORMALIZED FREE ENERGY PREDICTED BY IDOCK:   -3.68 KCAL/MOL
REMARK 922        TOTAL FREE ENERGY PREDICTED BY IDOCK:   -6.93 KCAL/MOL
REMARK 923 INTER-LIGAND FREE ENERGY PREDICTED BY IDOCK:   -5.76 KCAL/MOL
REMARK 924 INTRA-LIGAND FREE ENERGY PREDICTED BY IDOCK:   -1.18 KCAL/MOL
REMARK 927      BINDING AFFINITY PREDICTED BY RF-SCORE:    0.00 PKD
ROOT
HETATM    1  C   UNL     1     -10.870   4.929  65.368  1.00  0.00     0.089 C  
HETATM    2  N   UNL     1     -10.049   5.461  66.463  1.00  0.00    -0.195 NA 
HETATM    3  C   UNL     1      -9.750   4.368  67.401  1.00  0.00    -0.174 C  
ENDROOT
BRANCH   2   4
HETATM    4  C   UNL     1      -8.785   6.018  65.950  1.00  0.00    -0.154 C  
BRANCH   4   5
HETATM    5  C   UNL     1      -8.620   7.509  66.040  1.00  0.00    -0.164 C  
HETATM    6  C   UNL     1      -9.580   8.436  66.210  1.00  0.00    -0.286 C  
BRANCH   6   7
HETATM    7  C   UNL     1      -9.196   9.872  66.258  1.00  0.00    -0.168 C  
HETATM    8  N   UNL     1      -9.555  10.501  67.439  1.00  0.00    -0.157 N  
HETATM    9  O   UNL     1      -8.550  10.380  65.346  1.00  0.00    -0.162 OA 
HETATM   10  H   UNL     1     -10.125   9.994  68.116  1.00  0.00     0.000 HD 
BRANCH   8  11
HETATM   11  C   UNL     1      -9.156  11.826  67.737  1.00  0.00    -0.178 A  
HETATM   12  C   UNL     1      -9.975  12.928  67.487  1.00  0.00    -0.215 A  
HETATM   13  N   UNL     1      -5.805  14.939  69.456  1.00  0.00    -0.099 NA 
HETATM   14  C   UNL     1      -9.533  14.205  67.871  1.00  0.00    -0.211 A  
HETATM   15  C   UNL     1      -7.869  12.060  68.255  1.00  0.00    -0.145 A  
HETATM   16  C   UNL     1      -8.289  14.437  68.451  1.00  0.00    -0.155 A  
HETATM   17  C   UNL     1      -7.410  13.360  68.597  1.00  0.00    -0.106 A  
HETATM   18  N   UNL     1      -7.972  15.683  68.813  1.00  0.00    -0.159 NA 
HETATM   19  C   UNL     1      -6.752  15.870  69.327  1.00  0.00    -0.176 A  
HETATM   20  C   UNL     1      -6.120  13.687  69.079  1.00  0.00    -0.088 A  
BRANCH  12  21
HETATM   21  O   UNL     1     -11.125  12.941  66.753  1.00  0.00    -0.267 OA 
BRANCH  21  22
HETATM   22  C   UNL     1     -11.107  13.063  65.335  1.00  0.00    -0.275 C  
HETATM   23  C   UNL     1     -12.476  12.771  63.379  1.00  0.00    -0.339 C  
HETATM   24  C   UNL     1     -11.915  14.311  64.992  1.00  0.00    -0.410 C  
HETATM   25  O   UNL     1     -12.318  14.171  63.632  1.00  0.00    -0.741 OA 
HETATM   26  C   UNL     1     -11.846  12.006  64.537  1.00  0.00    -0.363 C  
ENDBRANCH  21  22
ENDBRANCH  12  21
BRANCH  20  27
HETATM   27  N   UNL     1      -5.127  12.670  69.165  1.00  0.00    -0.068 NA 
HETATM   28  H   UNL     1      -4.181  12.951  68.906  1.00  0.00     0.000 HD 
BRANCH  27  29
HETATM   29  C   UNL     1      -5.280  11.319  69.564  1.00  0.00    -0.045 A  
HETATM   30  C   UNL     1      -5.192  10.243  68.667  1.00  0.00    -0.038 A  
HETATM   31  C   UNL     1      -5.300   8.924  69.118  1.00  0.00    -0.036 A  
HETATM   32 CL   UNL     1      -5.235   7.634  67.972  1.00  0.00    -0.029 Cl 
HETATM   33  C   UNL     1      -5.468   8.661  70.471  1.00  0.00    -0.027 A  
HETATM   34  C   UNL     1      -5.505   9.703  71.385  1.00  0.00    -0.073 A  
HETATM   35  F   UNL     1      -5.571   7.402  70.918  1.00  0.00    -0.026 F  
HETATM   36  C   UNL     1      -5.403  11.023  70.936  1.00  0.00    -0.118 A  
ENDBRANCH  27  29
ENDBRANCH  20  27
ENDBRANCH   8  11
ENDBRANCH   6   7
ENDBRANCH   4   5
ENDBRANCH   2   4
TORSDOF 8
ENDMDL
MODEL      153
REMARK 921   NORMALIZED FREE ENERGY PREDICTED BY IDOCK:   -3.59 KCAL/MOL
REMARK 922        TOTAL FREE ENERGY PREDICTED BY IDOCK:   -6.80 KCAL/MOL
REMARK 923 INTER-LIGAND FREE ENERGY PREDICTED BY IDOCK:   -5.54 KCAL/MOL
REMARK 924 INTRA-LIGAND FREE ENERGY PREDICTED BY IDOCK:   -1.26 KCAL/MOL
REMARK 927      BINDING AFFINITY PREDICTED BY RF-SCORE:    0.00 PKD
ROOT
HETATM    1  C   UNL     1     -10.640   3.669  63.812  1.00  0.00    -0.276 C  
HETATM    2  N   UNL     1      -9.493   3.595  64.727  1.00  0.00    -0.151 NA 
HETATM    3  C   UNL     1      -9.237   2.183  65.047  1.00  0.00    -0.110 C  
ENDROOT
BRANCH   2   4
HETATM    4  C   UNL     1      -8.289   4.177  64.110  1.00  0.00    -0.099 C  
BRANCH   4   5
HETATM    5  C   UNL     1      -7.890   5.549  64.574  1.00  0.00    -0.109 C  
HETATM    6  C   UNL     1      -8.649   6.456  65.216  1.00  0.00    -0.051 C  
BRANCH   6   7
HETATM    7  C   UNL     1      -8.054   7.771  65.574  1.00  0.00    -0.128 C  
HETATM    8  N   UNL     1      -8.858   8.532  66.409  1.00  0.00    -0.141 N  
HETATM    9  O   UNL     1      -6.922   8.070  65.207  1.00  0.00    -0.061 OA 
HETATM   10  H   UNL     1      -9.800   8.204  66.622  1.00  0.00     0.000 HD 
BRANCH   8  11
HETATM   11  C   UNL     1      -8.413   9.750  66.976  1.00  0.00    -0.117 A  
HETATM   12  C   UNL     1      -8.684  10.989  66.394  1.00  0.00    -0.173 A  
HETATM   13  N   UNL     1      -6.010  12.136  70.498  1.00  0.00    -0.251 NA 
HETATM   14  C   UNL     1      -8.263  12.156  67.053  1.00  0.00    -0.164 A  
HETATM   15  C   UNL     1      -7.623   9.722  68.140  1.00  0.00    -0.082 A  
HETATM   16  C   UNL     1      -7.542  12.140  68.243  1.00  0.00    -0.132 A  
HETATM   17  C   UNL     1      -7.160  10.906  68.774  1.00  0.00    -0.083 A  
HETATM   18  N   UNL     1      -7.216  13.304  68.812  1.00  0.00    -0.102 NA 
HETATM   19  C   UNL     1      -6.488  13.245  69.932  1.00  0.00     0.016 A  
HETATM   20  C   UNL     1      -6.327  10.965  69.918  1.00  0.00    -0.132 A  
BRANCH  12  21
HETATM   21  O   UNL     1      -9.188  11.212  65.146  1.00  0.00    -0.216 OA 
BRANCH  21  22
HETATM   22  C   UNL     1     -10.230  12.154  64.916  1.00  0.00    -0.280 C  
HETATM   23  C   UNL     1     -12.284  12.466  63.705  1.00  0.00    -0.533 C  
HETATM   24  C   UNL     1     -11.449  11.656  65.688  1.00  0.00    -0.105 C  
HETATM   25  O   UNL     1     -12.586  12.274  65.091  1.00  0.00    -0.585 OA 
HETATM   26  C   UNL     1     -10.789  12.244  63.509  1.00  0.00    -0.508 C  
ENDBRANCH  21  22
ENDBRANCH  12  21
BRANCH  20  27
HETATM   27  N   UNL     1      -5.806   9.759  70.468  1.00  0.00    -0.058 NA 
HETATM   28  H   UNL     1      -4.789   9.690  70.500  1.00  0.00     0.000 HD 
BRANCH  27  29
HETATM   29  C   UNL     1      -6.517   8.643  70.976  1.00  0.00    -0.050 A  
HETATM   30  C   UNL     1      -7.633   8.766  71.818  1.00  0.00    -0.082 A  
HETATM   31  C   UNL     1      -8.331   7.636  72.253  1.00  0.00    -0.108 A  
HETATM   32 CL   UNL     1      -9.668   7.833  73.327  1.00  0.00    -0.339 Cl 
HETATM   33  C   UNL     1      -7.943   6.371  71.829  1.00  0.00    -0.105 A  
HETATM   34  C   UNL     1      -6.876   6.225  70.956  1.00  0.00    -0.066 A  
HETATM   35  F   UNL     1      -8.603   5.279  72.236  1.00  0.00    -0.120 F  
HETATM   36  C   UNL     1      -6.173   7.354  70.525  1.00  0.00    -0.038 A  
ENDBRANCH  27  29
ENDBRANCH  20  27
ENDBRANCH   8  11
ENDBRANCH   6   7
ENDBRANCH   4   5
ENDBRANCH   2   4
TORSDOF 8
ENDMDL
MODEL      154
REMARK 921   NORMALIZED FREE ENERGY PREDICTED BY IDOCK:   -3.52 KCAL/MOL
REMARK 922        TOTAL FREE ENERGY PREDICTED BY IDOCK:   -6.71 KCAL/MOL
REMARK 923 INTER-LIGAND FREE ENERGY PREDICTED BY IDOCK:   -5.86 KCAL/MOL
REMARK 924 INTRA-LIGAND FREE ENERGY PREDICTED BY IDOCK:   -0.85 KCAL/MOL
REMARK 927      BINDING AFFINITY PREDICTED BY RF-SCORE:    0.00 PKD
ROOT
HETATM    1  C   UNL     1     -12.321  11.932  63.828  1.00  0.00    -0.434 C  
HETATM    2  N   UNL     1     -11.060  12.473  63.306  1.00  0.00    -0.365 NA 
HETATM    3  C   UNL     1     -10.531  13.449  64.271  1.00  0.00    -0.305 C  
ENDROOT
BRANCH   2   4
HETATM    4  C   UNL     1     -10.068  11.403  63.108  1.00  0.00    -0.352 C  
BRANCH   4   5
HETATM    5  C   UNL     1      -9.441  10.829  64.347  1.00  0.00    -0.300 C  
HETATM    6  C   UNL     1      -8.226  10.267  64.472  1.00  0.00    -0.158 C  
BRANCH   6   7
HETATM    7  C   UNL     1      -7.804   9.745  65.799  1.00  0.00    -0.110 C  
HETATM    8  N   UNL     1      -8.860   9.532  66.671  1.00  0.00    -0.133 N  
HETATM    9  O   UNL     1      -6.629   9.467  66.021  1.00  0.00    -0.074 OA 
HETATM   10  H   UNL     1      -9.796   9.834  66.397  1.00  0.00     0.000 HD 
BRANCH   8  11
HETATM   11  C   UNL     1      -8.683   8.908  67.928  1.00  0.00    -0.129 A  
HETATM   12  C   UNL     1      -8.827   9.598  69.133  1.00  0.00    -0.157 A  
HETATM   13  N   UNL     1      -7.641   4.920  70.552  1.00  0.00    -0.061 NA 
HETATM   14  C   UNL     1      -8.699   8.892  70.340  1.00  0.00    -0.200 A  
HETATM   15  C   UNL     1      -8.298   7.556  67.981  1.00  0.00    -0.124 A  
HETATM   16  C   UNL     1      -8.387   7.537  70.400  1.00  0.00    -0.128 A  
HETATM   17  C   UNL     1      -8.123   6.860  69.207  1.00  0.00    -0.120 A  
HETATM   18  N   UNL     1      -8.321   6.946  71.597  1.00  0.00    -0.110 NA 
HETATM   19  C   UNL     1      -7.979   5.654  71.613  1.00  0.00    -0.117 A  
HETATM   20  C   UNL     1      -7.695   5.518  69.348  1.00  0.00    -0.086 A  
BRANCH  12  21
HETATM   21  O   UNL     1      -8.926  10.950  69.292  1.00  0.00    -0.103 OA 
BRANCH  21  22
HETATM   22  C   UNL     1     -10.173  11.627  69.186  1.00  0.00     0.034 C  
HETATM   23  C   UNL     1     -11.784  12.413  67.583  1.00  0.00    -0.346 C  
HETATM   24  C   UNL     1     -11.217  10.571  68.836  1.00  0.00    -0.266 C  
HETATM   25  O   UNL     1     -12.317  11.266  68.253  1.00  0.00    -0.542 OA 
HETATM   26  C   UNL     1     -10.340  12.600  68.034  1.00  0.00    -0.231 C  
ENDBRANCH  21  22
ENDBRANCH  12  21
BRANCH  20  27
HETATM   27  N   UNL     1      -7.308   4.782  68.193  1.00  0.00    -0.066 NA 
HETATM   28  H   UNL     1      -6.402   4.315  68.248  1.00  0.00     0.000 HD 
BRANCH  27  29
HETATM   29  C   UNL     1      -8.015   4.612  66.977  1.00  0.00    -0.102 A  
HETATM   30  C   UNL     1      -7.410   4.736  65.717  1.00  0.00    -0.077 A  
HETATM   31  C   UNL     1      -8.138   4.509  64.546  1.00  0.00    -0.102 A  
HETATM   32 CL   UNL     1      -7.365   4.721  63.017  1.00  0.00    -0.047 Cl 
HETATM   33  C   UNL     1      -9.472   4.126  64.618  1.00  0.00    -0.168 A  
HETATM   34  C   UNL     1     -10.080   3.946  65.850  1.00  0.00    -0.019 A  
HETATM   35  F   UNL     1     -10.183   3.904  63.505  1.00  0.00    -0.163 F  
HETATM   36  C   UNL     1      -9.354   4.179  67.023  1.00  0.00    -0.195 A  
ENDBRANCH  27  29
ENDBRANCH  20  27
ENDBRANCH   8  11
ENDBRANCH   6   7
ENDBRANCH   4   5
ENDBRANCH   2   4
TORSDOF 8
ENDMDL
MODEL      155
REMARK 921   NORMALIZED FREE ENERGY PREDICTED BY IDOCK:   -3.50 KCAL/MOL
REMARK 922        TOTAL FREE ENERGY PREDICTED BY IDOCK:   -6.67 KCAL/MOL
REMARK 923 INTER-LIGAND FREE ENERGY PREDICTED BY IDOCK:   -6.33 KCAL/MOL
REMARK 924 INTRA-LIGAND FREE ENERGY PREDICTED BY IDOCK:   -0.34 KCAL/MOL
REMARK 927      BINDING AFFINITY PREDICTED BY RF-SCORE:    0.00 PKD
ROOT
HETATM    1  C   UNL     1     -13.087  10.873  72.075  1.00  0.00    -0.356 C  
HETATM    2  N   UNL     1     -12.899   9.416  72.068  1.00  0.00    -0.396 NA 
HETATM    3  C   UNL     1     -14.112   8.788  71.523  1.00  0.00    -0.318 C  
ENDROOT
BRANCH   2   4
HETATM    4  C   UNL     1     -11.744   9.038  71.237  1.00  0.00    -0.313 C  
BRANCH   4   5
HETATM    5  C   UNL     1     -11.454   9.912  70.049  1.00  0.00    -0.274 C  
HETATM    6  C   UNL     1     -10.477  10.827  69.917  1.00  0.00    -0.055 C  
BRANCH   6   7
HETATM    7  C   UNL     1     -10.378  11.600  68.649  1.00  0.00    -0.215 C  
HETATM    8  N   UNL     1     -11.484  12.397  68.400  1.00  0.00    -0.285 N  
HETATM    9  O   UNL     1      -9.357  11.562  67.969  1.00  0.00    -0.162 OA 
HETATM   10  H   UNL     1     -12.296  12.322  69.013  1.00  0.00     0.000 HD 
BRANCH   8  11
HETATM   11  C   UNL     1     -11.522  13.312  67.321  1.00  0.00    -0.338 A  
HETATM   12  C   UNL     1     -11.824  12.919  66.016  1.00  0.00    -0.430 A  
HETATM   13  N   UNL     1     -11.031  17.872  65.637  1.00  0.00    -0.128 NA 
HETATM   14  C   UNL     1     -11.906  13.898  65.013  1.00  0.00    -0.383 A  
HETATM   15  C   UNL     1     -11.196  14.662  67.548  1.00  0.00    -0.343 A  
HETATM   16  C   UNL     1     -11.654  15.247  65.244  1.00  0.00    -0.139 A  
HETATM   17  C   UNL     1     -11.235  15.639  66.518  1.00  0.00    -0.048 A  
HETATM   18  N   UNL     1     -11.792  16.109  64.232  1.00  0.00    -0.663 NA 
HETATM   19  C   UNL     1     -11.501  17.389  64.486  1.00  0.00     1.746 A  
HETATM   20  C   UNL     1     -10.880  17.003  66.652  1.00  0.00     0.034 A  
BRANCH  12  21
HETATM   21  O   UNL     1     -11.900  11.641  65.546  1.00  0.00    -0.246 OA 
BRANCH  21  22
HETATM   22  C   UNL     1     -11.125  11.203  64.435  1.00  0.00    -0.104 C  
HETATM   23  C   UNL     1      -8.917  11.316  63.489  1.00  0.00     0.008 C  
HETATM   24  C   UNL     1     -10.208  10.097  64.949  1.00  0.00    -0.090 C  
HETATM   25  O   UNL     1      -9.126  10.006  64.025  1.00  0.00    -0.220 OA 
HETATM   26  C   UNL     1     -10.115  12.180  63.863  1.00  0.00    -0.387 C  
ENDBRANCH  21  22
ENDBRANCH  12  21
BRANCH  20  27
HETATM   27  N   UNL     1     -10.346  17.470  67.887  1.00  0.00    -0.354 NA 
HETATM   28  H   UNL     1     -11.000  17.965  68.493  1.00  0.00     0.000 HD 
BRANCH  27  29
HETATM   29  C   UNL     1      -9.026  17.336  68.383  1.00  0.00    -0.269 A  
HETATM   30  C   UNL     1      -8.120  18.407  68.444  1.00  0.00    -0.327 A  
HETATM   31  C   UNL     1      -6.845  18.237  68.989  1.00  0.00    -0.254 A  
HETATM   32 CL   UNL     1      -5.747  19.569  68.998  1.00  0.00    -0.238 Cl 
HETATM   33  C   UNL     1      -6.467  17.004  69.508  1.00  0.00    -0.219 A  
HETATM   34  C   UNL     1      -7.360  15.944  69.508  1.00  0.00    -0.170 A  
HETATM   35  F   UNL     1      -5.249  16.827  70.035  1.00  0.00    -0.140 F  
HETATM   36  C   UNL     1      -8.635  16.111  68.958  1.00  0.00    -0.251 A  
ENDBRANCH  27  29
ENDBRANCH  20  27
ENDBRANCH   8  11
ENDBRANCH   6   7
ENDBRANCH   4   5
ENDBRANCH   2   4
TORSDOF 8
ENDMDL
MODEL      156
REMARK 921   NORMALIZED FREE ENERGY PREDICTED BY IDOCK:   -3.48 KCAL/MOL
REMARK 922        TOTAL FREE ENERGY PREDICTED BY IDOCK:   -6.65 KCAL/MOL
REMARK 923 INTER-LIGAND FREE ENERGY PREDICTED BY IDOCK:   -6.02 KCAL/MOL
REMARK 924 INTRA-LIGAND FREE ENERGY PREDICTED BY IDOCK:   -0.63 KCAL/MOL
REMARK 927      BINDING AFFINITY PREDICTED BY RF-SCORE:    0.00 PKD
ROOT
HETATM    1  C   UNL     1      -5.769   2.914  73.038  1.00  0.00    -0.004 C  
HETATM    2  N   UNL     1      -7.086   3.560  73.114  1.00  0.00    -0.044 NA 
HETATM    3  C   UNL     1      -7.697   3.230  74.410  1.00  0.00    -0.057 C  
ENDROOT
BRANCH   2   4
HETATM    4  C   UNL     1      -6.963   5.023  72.996  1.00  0.00    -0.078 C  
BRANCH   4   5
HETATM    5  C   UNL     1      -7.852   5.694  71.987  1.00  0.00    -0.106 C  
HETATM    6  C   UNL     1      -9.181   5.883  72.055  1.00  0.00    -0.154 C  
BRANCH   6   7
HETATM    7  C   UNL     1      -9.873   6.565  70.928  1.00  0.00    -0.183 C  
HETATM    8  N   UNL     1      -9.304   7.780  70.584  1.00  0.00    -0.162 N  
HETATM    9  O   UNL     1     -10.803   6.020  70.340  1.00  0.00    -0.271 OA 
HETATM   10  H   UNL     1      -8.555   8.158  71.166  1.00  0.00     0.000 HD 
BRANCH   8  11
HETATM   11  C   UNL     1      -9.726   8.515  69.451  1.00  0.00    -0.177 A  
HETATM   12  C   UNL     1     -10.836   9.360  69.478  1.00  0.00    -0.213 A  
HETATM   13  N   UNL     1      -9.146   9.733  64.755  1.00  0.00    -0.226 NA 
HETATM   14  C   UNL     1     -11.153  10.105  68.330  1.00  0.00    -0.285 A  
HETATM   15  C   UNL     1      -9.044   8.356  68.231  1.00  0.00    -0.139 A  
HETATM   16  C   UNL     1     -10.438  10.007  67.139  1.00  0.00    -0.244 A  
HETATM   17  C   UNL     1      -9.399   9.077  67.059  1.00  0.00    -0.190 A  
HETATM   18  N   UNL     1     -10.795  10.782  66.111  1.00  0.00    -0.119 NA 
HETATM   19  C   UNL     1     -10.111  10.628  64.973  1.00  0.00    -0.321 A  
HETATM   20  C   UNL     1      -8.795   8.943  65.786  1.00  0.00    -0.186 A  
BRANCH  12  21
HETATM   21  O   UNL     1     -11.776   9.442  70.464  1.00  0.00    -0.262 OA 
BRANCH  21  22
HETATM   22  C   UNL     1     -12.631  10.573  70.593  1.00  0.00    -0.369 C  
HETATM   23  C   UNL     1     -13.250  12.330  72.113  1.00  0.00    -0.361 C  
HETATM   24  C   UNL     1     -11.746  11.808  70.454  1.00  0.00    -0.160 C  
HETATM   25  O   UNL     1     -12.458  12.886  71.058  1.00  0.00    -0.371 OA 
HETATM   26  C   UNL     1     -13.264  10.815  71.949  1.00  0.00    -0.524 C  
ENDBRANCH  21  22
ENDBRANCH  12  21
BRANCH  20  27
HETATM   27  N   UNL     1      -7.796   7.949  65.585  1.00  0.00    -0.102 NA 
HETATM   28  H   UNL     1      -6.874   8.295  65.316  1.00  0.00     0.000 HD 
BRANCH  27  29
HETATM   29  C   UNL     1      -7.914   6.542  65.711  1.00  0.00    -0.115 A  
HETATM   30  C   UNL     1      -8.876   5.791  65.018  1.00  0.00     0.023 A  
HETATM   31  C   UNL     1      -8.920   4.400  65.136  1.00  0.00    -0.143 A  
HETATM   32 CL   UNL     1     -10.151   3.521  64.304  1.00  0.00    -0.189 Cl 
HETATM   33  C   UNL     1      -7.986   3.737  65.922  1.00  0.00    -0.093 A  
HETATM   34  C   UNL     1      -6.993   4.450  66.576  1.00  0.00    -0.059 A  
HETATM   35  F   UNL     1      -8.015   2.403  66.044  1.00  0.00    -0.077 F  
HETATM   36  C   UNL     1      -6.951   5.843  66.464  1.00  0.00    -0.060 A  
ENDBRANCH  27  29
ENDBRANCH  20  27
ENDBRANCH   8  11
ENDBRANCH   6   7
ENDBRANCH   4   5
ENDBRANCH   2   4
TORSDOF 8
ENDMDL
MODEL      157
REMARK 921   NORMALIZED FREE ENERGY PREDICTED BY IDOCK:   -3.42 KCAL/MOL
REMARK 922        TOTAL FREE ENERGY PREDICTED BY IDOCK:   -6.56 KCAL/MOL
REMARK 923 INTER-LIGAND FREE ENERGY PREDICTED BY IDOCK:   -7.15 KCAL/MOL
REMARK 924 INTRA-LIGAND FREE ENERGY PREDICTED BY IDOCK:    0.59 KCAL/MOL
REMARK 927      BINDING AFFINITY PREDICTED BY RF-SCORE:    0.00 PKD
ROOT
HETATM    1  C   UNL     1      -5.517  18.934  71.462  1.00  0.00    -0.213 C  
HETATM    2  N   UNL     1      -5.545  19.601  70.154  1.00  0.00    -0.232 NA 
HETATM    3  C   UNL     1      -5.199  18.616  69.117  1.00  0.00    -0.192 C  
ENDROOT
BRANCH   2   4
HETATM    4  C   UNL     1      -6.882  20.151  69.871  1.00  0.00    -0.090 C  
BRANCH   4   5
HETATM    5  C   UNL     1      -7.876  19.215  69.245  1.00  0.00    -0.120 C  
HETATM    6  C   UNL     1      -8.267  18.008  69.691  1.00  0.00     0.915 C  
BRANCH   6   7
HETATM    7  C   UNL     1      -9.262  17.234  68.901  1.00  0.00    -0.182 C  
HETATM    8  N   UNL     1      -8.699  16.497  67.871  1.00  0.00    -0.186 N  
HETATM    9  O   UNL     1     -10.446  17.218  69.225  1.00  0.00    -0.338 OA 
HETATM   10  H   UNL     1      -7.706  16.614  67.665  1.00  0.00     0.000 HD 
BRANCH   8  11
HETATM   11  C   UNL     1      -9.456  15.588  67.096  1.00  0.00    -0.215 A  
HETATM   12  C   UNL     1     -10.076  15.958  65.901  1.00  0.00    -0.352 A  
HETATM   13  N   UNL     1     -11.274  11.101  66.434  1.00  0.00    -0.211 NA 
HETATM   14  C   UNL     1     -10.755  14.980  65.156  1.00  0.00    -0.434 A  
HETATM   15  C   UNL     1      -9.644  14.273  67.560  1.00  0.00    -0.216 A  
HETATM   16  C   UNL     1     -10.885  13.659  65.574  1.00  0.00    -0.294 A  
HETATM   17  C   UNL     1     -10.373  13.301  66.824  1.00  0.00    -0.257 A  
HETATM   18  N   UNL     1     -11.521  12.793  64.779  1.00  0.00    -0.305 NA 
HETATM   19  C   UNL     1     -11.660  11.544  65.236  1.00  0.00     0.071 A  
HETATM   20  C   UNL     1     -10.645  11.975  67.239  1.00  0.00    -0.222 A  
BRANCH  12  21
HETATM   21  O   UNL     1     -10.242  17.226  65.426  1.00  0.00    -0.604 OA 
BRANCH  21  22
HETATM   22  C   UNL     1      -9.833  18.366  66.173  1.00  0.00    -0.272 C  
HETATM   23  C   UNL     1      -8.645  20.447  65.978  1.00  0.00     0.091 C  
HETATM   24  C   UNL     1     -10.734  19.519  65.742  1.00  0.00    -0.393 C  
HETATM   25  O   UNL     1     -10.046  20.720  66.080  1.00  0.00     0.007 OA 
HETATM   26  C   UNL     1      -8.460  18.938  65.875  1.00  0.00     0.090 C  
ENDBRANCH  21  22
ENDBRANCH  12  21
BRANCH  20  27
HETATM   27  N   UNL     1     -10.250  11.554  68.541  1.00  0.00    -0.207 NA 
HETATM   28  H   UNL     1      -9.307  11.821  68.826  1.00  0.00     0.000 HD 
BRANCH  27  29
HETATM   29  C   UNL     1     -10.994  10.812  69.492  1.00  0.00    -0.266 A  
HETATM   30  C   UNL     1     -10.785   9.445  69.729  1.00  0.00    -0.250 A  
HETATM   31  C   UNL     1     -11.510   8.769  70.714  1.00  0.00    -0.270 A  
HETATM   32 CL   UNL     1     -11.253   7.076  70.937  1.00  0.00    -0.298 Cl 
HETATM   33  C   UNL     1     -12.432   9.455  71.494  1.00  0.00    -0.366 A  
HETATM   34  C   UNL     1     -12.621  10.816  71.316  1.00  0.00    -0.532 A  
HETATM   35  F   UNL     1     -13.134   8.820  72.443  1.00  0.00    -0.378 F  
HETATM   36  C   UNL     1     -11.901  11.493  70.327  1.00  0.00    -0.431 A  
ENDBRANCH  27  29
ENDBRANCH  20  27
ENDBRANCH   8  11
ENDBRANCH   6   7
ENDBRANCH   4   5
ENDBRANCH   2   4
TORSDOF 8
ENDMDL
MODEL      158
REMARK 921   NORMALIZED FREE ENERGY PREDICTED BY IDOCK:   -3.26 KCAL/MOL
REMARK 922        TOTAL FREE ENERGY PREDICTED BY IDOCK:   -6.33 KCAL/MOL
REMARK 923 INTER-LIGAND FREE ENERGY PREDICTED BY IDOCK:   -5.67 KCAL/MOL
REMARK 924 INTRA-LIGAND FREE ENERGY PREDICTED BY IDOCK:   -0.66 KCAL/MOL
REMARK 927      BINDING AFFINITY PREDICTED BY RF-SCORE:    0.00 PKD
ROOT
HETATM    1  C   UNL     1     -12.843  12.199  63.138  1.00  0.00    -0.011 C  
HETATM    2  N   UNL     1     -11.730  11.536  63.829  1.00  0.00    -0.286 NA 
HETATM    3  C   UNL     1     -10.597  11.427  62.899  1.00  0.00     0.056 C  
ENDROOT
BRANCH   2   4
HETATM    4  C   UNL     1     -11.312  12.306  65.013  1.00  0.00    -0.328 C  
BRANCH   4   5
HETATM    5  C   UNL     1     -10.209  11.715  65.845  1.00  0.00    -0.277 C  
HETATM    6  C   UNL     1      -9.036  12.281  66.182  1.00  0.00    -0.076 C  
BRANCH   6   7
HETATM    7  C   UNL     1      -8.072  11.507  67.010  1.00  0.00    -0.161 C  
HETATM    8  N   UNL     1      -8.183  11.758  68.368  1.00  0.00    -0.152 N  
HETATM    9  O   UNL     1      -7.328  10.677  66.495  1.00  0.00    -0.120 OA 
HETATM   10  H   UNL     1      -8.810  12.498  68.685  1.00  0.00     0.000 HD 
BRANCH   8  11
HETATM   11  C   UNL     1      -7.454  11.020  69.331  1.00  0.00    -0.072 A  
HETATM   12  C   UNL     1      -6.134  11.324  69.664  1.00  0.00    -0.102 A  
HETATM   13  N   UNL     1      -7.230   7.356  72.556  1.00  0.00    -0.071 NA 
HETATM   14  C   UNL     1      -5.501  10.585  70.677  1.00  0.00    -0.085 A  
HETATM   15  C   UNL     1      -8.053   9.905  69.944  1.00  0.00    -0.200 A  
HETATM   16  C   UNL     1      -6.111   9.525  71.340  1.00  0.00    -0.034 A  
HETATM   17  C   UNL     1      -7.389   9.132  70.934  1.00  0.00    -0.129 A  
HETATM   18  N   UNL     1      -5.439   8.904  72.314  1.00  0.00    -0.056 NA 
HETATM   19  C   UNL     1      -6.045   7.864  72.897  1.00  0.00    -0.061 A  
HETATM   20  C   UNL     1      -7.901   7.973  71.566  1.00  0.00    -0.100 A  
BRANCH  12  21
HETATM   21  O   UNL     1      -5.300  12.176  69.001  1.00  0.00    -0.054 OA 
BRANCH  21  22
HETATM   22  C   UNL     1      -5.181  13.546  69.369  1.00  0.00    -0.082 C  
HETATM   23  C   UNL     1      -6.469  15.444  70.092  1.00  0.00    -0.064 C  
HETATM   24  C   UNL     1      -5.336  13.608  70.885  1.00  0.00    -0.160 C  
HETATM   25  O   UNL     1      -5.712  14.946  71.200  1.00  0.00    -0.104 OA 
HETATM   26  C   UNL     1      -6.285  14.485  68.922  1.00  0.00    -0.087 C  
ENDBRANCH  21  22
ENDBRANCH  12  21
BRANCH  20  27
HETATM   27  N   UNL     1      -9.153   7.441  71.146  1.00  0.00    -0.147 NA 
HETATM   28  H   UNL     1      -9.105   6.643  70.512  1.00  0.00     0.000 HD 
BRANCH  27  29
HETATM   29  C   UNL     1     -10.457   7.876  71.491  1.00  0.00    -0.210 A  
HETATM   30  C   UNL     1     -10.899   9.194  71.301  1.00  0.00    -0.402 A  
HETATM   31  C   UNL     1     -12.211   9.562  71.610  1.00  0.00    -0.398 A  
HETATM   32 CL   UNL     1     -12.696  11.207  71.406  1.00  0.00    -0.526 Cl 
HETATM   33  C   UNL     1     -13.107   8.614  72.086  1.00  0.00    -0.383 A  
HETATM   34  C   UNL     1     -12.712   7.294  72.235  1.00  0.00    -0.017 A  
HETATM   35  F   UNL     1     -14.368   8.952  72.386  1.00  0.00    -0.472 F  
HETATM   36  C   UNL     1     -11.398   6.924  71.931  1.00  0.00    -0.297 A  
ENDBRANCH  27  29
ENDBRANCH  20  27
ENDBRANCH   8  11
ENDBRANCH   6   7
ENDBRANCH   4   5
ENDBRANCH   2   4
TORSDOF 8
ENDMDL
MODEL      159
REMARK 921   NORMALIZED FREE ENERGY PREDICTED BY IDOCK:   -3.23 KCAL/MOL
REMARK 922        TOTAL FREE ENERGY PREDICTED BY IDOCK:   -6.28 KCAL/MOL
REMARK 923 INTER-LIGAND FREE ENERGY PREDICTED BY IDOCK:   -4.77 KCAL/MOL
REMARK 924 INTRA-LIGAND FREE ENERGY PREDICTED BY IDOCK:   -1.52 KCAL/MOL
REMARK 927      BINDING AFFINITY PREDICTED BY RF-SCORE:    0.00 PKD
ROOT
HETATM    1  C   UNL     1      -9.741   9.042  71.787  1.00  0.00    -0.241 C  
HETATM    2  N   UNL     1      -8.610   8.135  71.555  1.00  0.00    -0.127 NA 
HETATM    3  C   UNL     1      -9.063   7.030  70.696  1.00  0.00    -0.158 C  
ENDROOT
BRANCH   2   4
HETATM    4  C   UNL     1      -7.498   8.837  70.893  1.00  0.00    -0.091 C  
BRANCH   4   5
HETATM    5  C   UNL     1      -7.822   9.558  69.615  1.00  0.00    -0.116 C  
HETATM    6  C   UNL     1      -7.144  10.570  69.044  1.00  0.00    -0.081 C  
BRANCH   6   7
HETATM    7  C   UNL     1      -7.653  11.154  67.773  1.00  0.00    -0.100 C  
HETATM    8  N   UNL     1      -9.033  11.275  67.735  1.00  0.00    -0.138 N  
HETATM    9  O   UNL     1      -6.877  11.550  66.909  1.00  0.00    -0.131 OA 
HETATM   10  H   UNL     1      -9.586  10.877  68.494  1.00  0.00     0.000 HD 
BRANCH   8  11
HETATM   11  C   UNL     1      -9.700  11.934  66.675  1.00  0.00    -0.205 A  
HETATM   12  C   UNL     1     -10.390  11.242  65.679  1.00  0.00    -0.256 A  
HETATM   13  N   UNL     1     -10.967  16.077  64.415  1.00  0.00    -0.510 NA 
HETATM   14  C   UNL     1     -11.081  11.972  64.698  1.00  0.00    -0.375 A  
HETATM   15  C   UNL     1      -9.629  13.337  66.581  1.00  0.00    -0.262 A  
HETATM   16  C   UNL     1     -11.075  13.362  64.639  1.00  0.00    -0.366 A  
HETATM   17  C   UNL     1     -10.292  14.066  65.557  1.00  0.00    -0.354 A  
HETATM   18  N   UNL     1     -11.792  13.968  63.687  1.00  0.00    -0.171 NA 
HETATM   19  C   UNL     1     -11.726  15.302  63.640  1.00  0.00     0.887 A  
HETATM   20  C   UNL     1     -10.235  15.467  65.365  1.00  0.00    -0.377 A  
BRANCH  12  21
HETATM   21  O   UNL     1     -10.349   9.900  65.440  1.00  0.00    -0.207 OA 
BRANCH  21  22
HETATM   22  C   UNL     1      -9.336   9.312  64.632  1.00  0.00     0.050 C  
HETATM   23  C   UNL     1      -6.959   9.299  64.264  1.00  0.00    -0.097 C  
HETATM   24  C   UNL     1      -8.611   8.295  65.508  1.00  0.00    -0.159 C  
HETATM   25  O   UNL     1      -7.337   8.078  64.908  1.00  0.00    -0.077 OA 
HETATM   26  C   UNL     1      -8.186  10.202  64.202  1.00  0.00    -0.165 C  
ENDBRANCH  21  22
ENDBRANCH  12  21
BRANCH  20  27
HETATM   27  N   UNL     1      -9.383  16.254  66.191  1.00  0.00    -0.317 NA 
HETATM   28  H   UNL     1      -8.388  16.209  65.970  1.00  0.00     0.000 HD 
BRANCH  27  29
HETATM   29  C   UNL     1      -9.735  17.089  67.280  1.00  0.00    -0.253 A  
HETATM   30  C   UNL     1     -10.364  16.609  68.440  1.00  0.00    -0.299 A  
HETATM   31  C   UNL     1     -10.645  17.464  69.508  1.00  0.00     0.108 A  
HETATM   32 CL   UNL     1     -11.464  16.840  70.895  1.00  0.00     0.103 Cl 
HETATM   33  C   UNL     1     -10.278  18.802  69.446  1.00  0.00     0.242 A  
HETATM   34  C   UNL     1      -9.610  19.291  68.334  1.00  0.00    -0.450 A  
HETATM   35  F   UNL     1     -10.540  19.634  70.463  1.00  0.00     0.196 F  
HETATM   36  C   UNL     1      -9.332  18.438  67.261  1.00  0.00    -0.271 A  
ENDBRANCH  27  29
ENDBRANCH  20  27
ENDBRANCH   8  11
ENDBRANCH   6   7
ENDBRANCH   4   5
ENDBRANCH   2   4
TORSDOF 8
ENDMDL
MODEL      160
REMARK 921   NORMALIZED FREE ENERGY PREDICTED BY IDOCK:   -3.22 KCAL/MOL
REMARK 922        TOTAL FREE ENERGY PREDICTED BY IDOCK:   -6.27 KCAL/MOL
REMARK 923 INTER-LIGAND FREE ENERGY PREDICTED BY IDOCK:   -7.86 KCAL/MOL
REMARK 924 INTRA-LIGAND FREE ENERGY PREDICTED BY IDOCK:    1.59 KCAL/MOL
REMARK 927      BINDING AFFINITY PREDICTED BY RF-SCORE:    0.00 PKD
ROOT
HETATM    1  C   UNL     1     -11.012   6.105  68.793  1.00  0.00    -0.348 C  
HETATM    2  N   UNL     1      -9.804   6.939  68.845  1.00  0.00    -0.146 NA 
HETATM    3  C   UNL     1      -9.523   7.444  67.493  1.00  0.00    -0.138 C  
ENDROOT
BRANCH   2   4
HETATM    4  C   UNL     1      -9.991   8.079  69.759  1.00  0.00    -0.191 C  
BRANCH   4   5
HETATM    5  C   UNL     1     -10.256   9.415  69.122  1.00  0.00    -0.209 C  
HETATM    6  C   UNL     1     -11.333   9.790  68.410  1.00  0.00     0.027 C  
BRANCH   6   7
HETATM    7  C   UNL     1     -11.387  11.169  67.853  1.00  0.00    -0.309 C  
HETATM    8  N   UNL     1     -10.419  12.013  68.374  1.00  0.00    -0.213 N  
HETATM    9  O   UNL     1     -12.178  11.454  66.959  1.00  0.00    -0.049 OA 
HETATM   10  H   UNL     1      -9.836  11.683  69.143  1.00  0.00     0.000 HD 
BRANCH   8  11
HETATM   11  C   UNL     1     -10.214  13.320  67.872  1.00  0.00    -0.233 A  
HETATM   12  C   UNL     1      -9.757  13.561  66.576  1.00  0.00    -0.283 A  
HETATM   13  N   UNL     1     -10.311  18.160  68.540  1.00  0.00    -0.367 NA 
HETATM   14  C   UNL     1      -9.641  14.889  66.132  1.00  0.00    -0.340 A  
HETATM   15  C   UNL     1     -10.424  14.425  68.718  1.00  0.00    -0.244 A  
HETATM   16  C   UNL     1      -9.916  15.988  66.940  1.00  0.00    -0.251 A  
HETATM   17  C   UNL     1     -10.259  15.765  68.275  1.00  0.00    -0.225 A  
HETATM   18  N   UNL     1      -9.809  17.213  66.415  1.00  0.00    -0.287 NA 
HETATM   19  C   UNL     1     -10.041  18.242  67.236  1.00  0.00    -0.355 A  
HETATM   20  C   UNL     1     -10.406  16.927  69.070  1.00  0.00    -0.333 A  
BRANCH  12  21
HETATM   21  O   UNL     1      -9.244  12.643  65.707  1.00  0.00    -0.033 OA 
BRANCH  21  22
HETATM   22  C   UNL     1      -9.722  12.525  64.372  1.00  0.00     0.061 C  
HETATM   23  C   UNL     1     -11.401  11.437  63.038  1.00  0.00     0.309 C  
HETATM   24  C   UNL     1     -11.022  13.321  64.301  1.00  0.00    -0.395 C  
HETATM   25  O   UNL     1     -11.742  12.821  63.176  1.00  0.00    -0.472 OA 
HETATM   26  C   UNL     1     -10.190  11.156  63.918  1.00  0.00    -0.420 C  
ENDBRANCH  21  22
ENDBRANCH  12  21
BRANCH  20  27
HETATM   27  N   UNL     1     -10.656  16.794  70.466  1.00  0.00     0.224 NA 
HETATM   28  H   UNL     1     -10.078  17.372  71.077  1.00  0.00     0.000 HD 
BRANCH  27  29
HETATM   29  C   UNL     1     -11.603  15.964  71.117  1.00  0.00    -0.432 A  
HETATM   30  C   UNL     1     -11.818  14.624  70.758  1.00  0.00    -0.372 A  
HETATM   31  C   UNL     1     -12.727  13.831  71.464  1.00  0.00    -0.346 A  
HETATM   32 CL   UNL     1     -12.996  12.203  70.957  1.00  0.00    -0.240 Cl 
HETATM   33  C   UNL     1     -13.410  14.355  72.555  1.00  0.00    -0.486 A  
HETATM   34  C   UNL     1     -13.177  15.660  72.962  1.00  0.00    -0.664 A  
HETATM   35  F   UNL     1     -14.283  13.607  73.241  1.00  0.00     0.273 F  
HETATM   36  C   UNL     1     -12.272  16.457  72.253  1.00  0.00    -0.368 A  
ENDBRANCH  27  29
ENDBRANCH  20  27
ENDBRANCH   8  11
ENDBRANCH   6   7
ENDBRANCH   4   5
ENDBRANCH   2   4
TORSDOF 8
ENDMDL
MODEL      161
REMARK 921   NORMALIZED FREE ENERGY PREDICTED BY IDOCK:   -3.17 KCAL/MOL
REMARK 922        TOTAL FREE ENERGY PREDICTED BY IDOCK:   -6.20 KCAL/MOL
REMARK 923 INTER-LIGAND FREE ENERGY PREDICTED BY IDOCK:   -5.03 KCAL/MOL
REMARK 924 INTRA-LIGAND FREE ENERGY PREDICTED BY IDOCK:   -1.17 KCAL/MOL
REMARK 927      BINDING AFFINITY PREDICTED BY RF-SCORE:    0.00 PKD
ROOT
HETATM    1  C   UNL     1     -10.170  13.611  65.136  1.00  0.00    -0.328 C  
HETATM    2  N   UNL     1     -10.189  12.705  66.291  1.00  0.00    -0.246 NA 
HETATM    3  C   UNL     1     -11.372  13.011  67.110  1.00  0.00    -0.305 C  
ENDROOT
BRANCH   2   4
HETATM    4  C   UNL     1     -10.253  11.299  65.856  1.00  0.00    -0.249 C  
BRANCH   4   5
HETATM    5  C   UNL     1      -9.544  10.294  66.721  1.00  0.00    -0.214 C  
HETATM    6  C   UNL     1      -8.330  10.405  67.288  1.00  0.00    -0.122 C  
BRANCH   6   7
HETATM    7  C   UNL     1      -7.807   9.274  68.102  1.00  0.00    -0.095 C  
HETATM    8  N   UNL     1      -8.768   8.325  68.411  1.00  0.00    -0.133 N  
HETATM    9  O   UNL     1      -6.613   9.197  68.376  1.00  0.00    -0.058 OA 
HETATM   10  H   UNL     1      -9.741   8.508  68.166  1.00  0.00     0.000 HD 
BRANCH   8  11
HETATM   11  C   UNL     1      -8.443   7.108  69.055  1.00  0.00    -0.129 A  
HETATM   12  C   UNL     1      -8.433   6.976  70.444  1.00  0.00    -0.141 A  
HETATM   13  N   UNL     1      -7.111   2.414  68.785  1.00  0.00    -0.044 NA 
HETATM   14  C   UNL     1      -8.163   5.717  71.006  1.00  0.00    -0.121 A  
HETATM   15  C   UNL     1      -8.061   5.997  68.281  1.00  0.00    -0.110 A  
HETATM   16  C   UNL     1      -7.855   4.594  70.243  1.00  0.00    -0.057 A  
HETATM   17  C   UNL     1      -7.743   4.739  68.859  1.00  0.00    -0.072 A  
HETATM   18  N   UNL     1      -7.646   3.431  70.868  1.00  0.00    -0.040 NA 
HETATM   19  C   UNL     1      -7.312   2.387  70.103  1.00  0.00    -0.040 A  
HETATM   20  C   UNL     1      -7.308   3.588  68.157  1.00  0.00    -0.051 A  
BRANCH  12  21
HETATM   21  O   UNL     1      -8.505   7.984  71.361  1.00  0.00    -0.108 OA 
BRANCH  21  22
HETATM   22  C   UNL     1      -9.736   8.360  71.967  1.00  0.00    -0.283 C  
HETATM   23  C   UNL     1     -12.020   8.913  71.458  1.00  0.00    -0.333 C  
HETATM   24  C   UNL     1     -10.641   7.133  71.919  1.00  0.00    -0.213 C  
HETATM   25  O   UNL     1     -11.978   7.610  72.048  1.00  0.00    -0.285 OA 
HETATM   26  C   UNL     1     -10.587   9.382  71.237  1.00  0.00    -0.400 C  
ENDBRANCH  21  22
ENDBRANCH  12  21
BRANCH  20  27
HETATM   27  N   UNL     1      -7.069   3.670  66.756  1.00  0.00    -0.062 NA 
HETATM   28  H   UNL     1      -6.089   3.674  66.473  1.00  0.00     0.000 HD 
BRANCH  27  29
HETATM   29  C   UNL     1      -8.014   3.747  65.703  1.00  0.00    -0.093 A  
HETATM   30  C   UNL     1      -7.942   4.704  64.680  1.00  0.00    -0.097 A  
HETATM   31  C   UNL     1      -8.870   4.708  63.634  1.00  0.00    -0.129 A  
HETATM   32 CL   UNL     1      -8.771   5.934  62.423  1.00  0.00     0.009 Cl 
HETATM   33  C   UNL     1      -9.863   3.738  63.581  1.00  0.00    -0.168 A  
HETATM   34  C   UNL     1      -9.926   2.750  64.551  1.00  0.00     0.010 A  
HETATM   35  F   UNL     1     -10.759   3.728  62.585  1.00  0.00    -0.179 F  
HETATM   36  C   UNL     1      -9.002   2.748  65.601  1.00  0.00    -0.143 A  
ENDBRANCH  27  29
ENDBRANCH  20  27
ENDBRANCH   8  11
ENDBRANCH   6   7
ENDBRANCH   4   5
ENDBRANCH   2   4
TORSDOF 8
ENDMDL
MODEL      162
REMARK 921   NORMALIZED FREE ENERGY PREDICTED BY IDOCK:   -3.17 KCAL/MOL
REMARK 922        TOTAL FREE ENERGY PREDICTED BY IDOCK:   -6.19 KCAL/MOL
REMARK 923 INTER-LIGAND FREE ENERGY PREDICTED BY IDOCK:   -6.11 KCAL/MOL
REMARK 924 INTRA-LIGAND FREE ENERGY PREDICTED BY IDOCK:   -0.07 KCAL/MOL
REMARK 927      BINDING AFFINITY PREDICTED BY RF-SCORE:    0.00 PKD
ROOT
HETATM    1  C   UNL     1     -14.220   8.210  71.881  1.00  0.00    -0.445 C  
HETATM    2  N   UNL     1     -12.891   8.676  72.295  1.00  0.00    -0.378 NA 
HETATM    3  C   UNL     1     -11.906   7.629  71.980  1.00  0.00    -0.301 C  
ENDROOT
BRANCH   2   4
HETATM    4  C   UNL     1     -12.522   9.915  71.588  1.00  0.00    -0.415 C  
BRANCH   4   5
HETATM    5  C   UNL     1     -11.403   9.813  70.591  1.00  0.00    -0.401 C  
HETATM    6  C   UNL     1     -11.184  10.590  69.515  1.00  0.00    -0.329 C  
BRANCH   6   7
HETATM    7  C   UNL     1     -10.013  10.304  68.644  1.00  0.00    -0.173 C  
HETATM    8  N   UNL     1     -10.359   9.798  67.401  1.00  0.00    -0.223 N  
HETATM    9  O   UNL     1      -8.875  10.586  69.008  1.00  0.00    -0.159 OA 
HETATM   10  H   UNL     1     -11.335   9.565  67.216  1.00  0.00     0.000 HD 
BRANCH   8  11
HETATM   11  C   UNL     1      -9.401   9.594  66.379  1.00  0.00    -0.174 A  
HETATM   12  C   UNL     1      -8.879  10.644  65.623  1.00  0.00    -0.186 A  
HETATM   13  N   UNL     1      -6.594   6.563  63.770  1.00  0.00    -0.036 NA 
HETATM   14  C   UNL     1      -7.883  10.367  64.671  1.00  0.00    -0.077 A  
HETATM   15  C   UNL     1      -8.991   8.285  66.068  1.00  0.00    -0.224 A  
HETATM   16  C   UNL     1      -7.420   9.082  64.407  1.00  0.00    -0.105 A  
HETATM   17  C   UNL     1      -8.018   8.008  65.070  1.00  0.00    -0.126 A  
HETATM   18  N   UNL     1      -6.445   8.923  63.507  1.00  0.00    -0.089 NA 
HETATM   19  C   UNL     1      -6.058   7.669  63.252  1.00  0.00    -0.055 A  
HETATM   20  C   UNL     1      -7.584   6.722  64.667  1.00  0.00    -0.105 A  
BRANCH  12  21
HETATM   21  O   UNL     1      -9.338  11.928  65.581  1.00  0.00    -0.207 OA 
BRANCH  21  22
HETATM   22  C   UNL     1      -9.450  12.723  66.757  1.00  0.00    -0.243 C  
HETATM   23  C   UNL     1      -8.456  14.595  67.894  1.00  0.00    -0.158 C  
HETATM   24  C   UNL     1     -10.051  14.058  66.328  1.00  0.00    -0.300 C  
HETATM   25  O   UNL     1      -9.714  14.999  67.344  1.00  0.00    -0.214 OA 
HETATM   26  C   UNL     1      -8.161  13.178  67.414  1.00  0.00    -0.181 C  
ENDBRANCH  21  22
ENDBRANCH  12  21
BRANCH  20  27
HETATM   27  N   UNL     1      -8.210   5.567  65.216  1.00  0.00    -0.129 NA 
HETATM   28  H   UNL     1      -8.812   5.044  64.580  1.00  0.00     0.000 HD 
BRANCH  27  29
HETATM   29  C   UNL     1      -8.105   5.049  66.531  1.00  0.00    -0.108 A  
HETATM   30  C   UNL     1      -7.689   5.822  67.626  1.00  0.00    -0.097 A  
HETATM   31  C   UNL     1      -7.651   5.279  68.914  1.00  0.00    -0.081 A  
HETATM   32 CL   UNL     1      -7.085   6.252  70.223  1.00  0.00    -0.072 Cl 
HETATM   33  C   UNL     1      -8.055   3.967  69.129  1.00  0.00    -0.062 A  
HETATM   34  C   UNL     1      -8.520   3.198  68.074  1.00  0.00    -0.105 A  
HETATM   35  F   UNL     1      -8.025   3.434  70.358  1.00  0.00    -0.046 F  
HETATM   36  C   UNL     1      -8.554   3.738  66.784  1.00  0.00    -0.108 A  
ENDBRANCH  27  29
ENDBRANCH  20  27
ENDBRANCH   8  11
ENDBRANCH   6   7
ENDBRANCH   4   5
ENDBRANCH   2   4
TORSDOF 8
ENDMDL
MODEL      163
REMARK 921   NORMALIZED FREE ENERGY PREDICTED BY IDOCK:   -3.14 KCAL/MOL
REMARK 922        TOTAL FREE ENERGY PREDICTED BY IDOCK:   -6.14 KCAL/MOL
REMARK 923 INTER-LIGAND FREE ENERGY PREDICTED BY IDOCK:   -5.32 KCAL/MOL
REMARK 924 INTRA-LIGAND FREE ENERGY PREDICTED BY IDOCK:   -0.82 KCAL/MOL
REMARK 927      BINDING AFFINITY PREDICTED BY RF-SCORE:    0.00 PKD
ROOT
HETATM    1  C   UNL     1     -10.890  19.663  66.956  1.00  0.00    -0.399 C  
HETATM    2  N   UNL     1     -10.194  18.886  65.922  1.00  0.00    -0.551 NA 
HETATM    3  C   UNL     1      -8.811  18.650  66.363  1.00  0.00    -0.275 C  
ENDROOT
BRANCH   2   4
HETATM    4  C   UNL     1     -10.859  17.590  65.700  1.00  0.00     0.013 C  
BRANCH   4   5
HETATM    5  C   UNL     1     -10.346  16.425  66.499  1.00  0.00    -0.306 C  
HETATM    6  C   UNL     1     -10.693  16.064  67.747  1.00  0.00    -0.323 C  
BRANCH   6   7
HETATM    7  C   UNL     1     -10.046  14.873  68.361  1.00  0.00    -0.225 C  
HETATM    8  N   UNL     1      -8.762  14.641  67.895  1.00  0.00    -0.163 N  
HETATM    9  O   UNL     1     -10.608  14.242  69.250  1.00  0.00    -0.223 OA 
HETATM   10  H   UNL     1      -8.405  15.206  67.124  1.00  0.00     0.000 HD 
BRANCH   8  11
HETATM   11  C   UNL     1      -7.928  13.643  68.455  1.00  0.00    -0.127 A  
HETATM   12  C   UNL     1      -6.857  13.948  69.296  1.00  0.00    -0.094 A  
HETATM   13  N   UNL     1      -6.750   8.929  68.971  1.00  0.00    -0.051 NA 
HETATM   14  C   UNL     1      -6.117  12.898  69.863  1.00  0.00    -0.126 A  
HETATM   15  C   UNL     1      -8.144  12.294  68.119  1.00  0.00    -0.158 A  
HETATM   16  C   UNL     1      -6.370  11.556  69.592  1.00  0.00    -0.133 A  
HETATM   17  C   UNL     1      -7.361  11.240  68.660  1.00  0.00    -0.109 A  
HETATM   18  N   UNL     1      -5.633  10.627  70.208  1.00  0.00    -0.065 NA 
HETATM   19  C   UNL     1      -5.880   9.353  69.888  1.00  0.00    -0.035 A  
HETATM   20  C   UNL     1      -7.483   9.865  68.341  1.00  0.00    -0.082 A  
BRANCH  12  21
HETATM   21  O   UNL     1      -6.322  15.183  69.521  1.00  0.00    -0.120 OA 
BRANCH  21  22
HETATM   22  C   UNL     1      -6.546  16.271  68.632  1.00  0.00    -0.135 C  
HETATM   23  C   UNL     1      -5.693  18.432  68.011  1.00  0.00    -0.165 C  
HETATM   24  C   UNL     1      -5.464  16.190  67.559  1.00  0.00    -0.128 C  
HETATM   25  O   UNL     1      -5.364  17.490  66.984  1.00  0.00    -0.120 OA 
HETATM   26  C   UNL     1      -6.320  17.670  69.172  1.00  0.00    -0.232 C  
ENDBRANCH  21  22
ENDBRANCH  12  21
BRANCH  20  27
HETATM   27  N   UNL     1      -8.398   9.460  67.328  1.00  0.00    -0.124 NA 
HETATM   28  H   UNL     1      -9.376   9.698  67.494  1.00  0.00     0.000 HD 
BRANCH  27  29
HETATM   29  C   UNL     1      -8.127   8.770  66.121  1.00  0.00    -0.107 A  
HETATM   30  C   UNL     1      -8.422   7.410  65.935  1.00  0.00    -0.155 A  
HETATM   31  C   UNL     1      -8.183   6.786  64.708  1.00  0.00    -0.052 A  
HETATM   32 CL   UNL     1      -8.515   5.100  64.540  1.00  0.00    -0.141 Cl 
HETATM   33  C   UNL     1      -7.675   7.517  63.641  1.00  0.00    -0.126 A  
HETATM   34  C   UNL     1      -7.424   8.873  63.781  1.00  0.00    -0.112 A  
HETATM   35  F   UNL     1      -7.442   6.932  62.459  1.00  0.00    -0.058 F  
HETATM   36  C   UNL     1      -7.657   9.498  65.011  1.00  0.00    -0.113 A  
ENDBRANCH  27  29
ENDBRANCH  20  27
ENDBRANCH   8  11
ENDBRANCH   6   7
ENDBRANCH   4   5
ENDBRANCH   2   4
TORSDOF 8
ENDMDL
MODEL      164
REMARK 921   NORMALIZED FREE ENERGY PREDICTED BY IDOCK:   -3.11 KCAL/MOL
REMARK 922        TOTAL FREE ENERGY PREDICTED BY IDOCK:   -6.10 KCAL/MOL
REMARK 923 INTER-LIGAND FREE ENERGY PREDICTED BY IDOCK:   -5.81 KCAL/MOL
REMARK 924 INTRA-LIGAND FREE ENERGY PREDICTED BY IDOCK:   -0.29 KCAL/MOL
REMARK 927      BINDING AFFINITY PREDICTED BY RF-SCORE:    0.00 PKD
ROOT
HETATM    1  C   UNL     1      -9.455  20.268  66.405  1.00  0.00    -0.301 C  
HETATM    2  N   UNL     1      -9.326  19.188  67.391  1.00  0.00    -0.301 NA 
HETATM    3  C   UNL     1      -9.131  19.785  68.721  1.00  0.00    -0.178 C  
ENDROOT
BRANCH   2   4
HETATM    4  C   UNL     1     -10.534  18.346  67.411  1.00  0.00    -0.415 C  
BRANCH   4   5
HETATM    5  C   UNL     1     -10.323  16.869  67.596  1.00  0.00    -0.317 C  
HETATM    6  C   UNL     1      -9.492  16.256  68.458  1.00  0.00    -0.219 C  
BRANCH   6   7
HETATM    7  C   UNL     1      -9.427  14.770  68.465  1.00  0.00    -0.214 C  
HETATM    8  N   UNL     1      -8.249  14.265  67.937  1.00  0.00    -0.143 N  
HETATM    9  O   UNL     1     -10.322  14.105  68.979  1.00  0.00    -0.223 OA 
HETATM   10  H   UNL     1      -7.588  14.908  67.501  1.00  0.00     0.000 HD 
BRANCH   8  11
HETATM   11  C   UNL     1      -7.935  12.886  67.982  1.00  0.00    -0.158 A  
HETATM   12  C   UNL     1      -6.664  12.419  68.319  1.00  0.00    -0.070 A  
HETATM   13  N   UNL     1      -9.303   8.227  67.444  1.00  0.00    -0.139 NA 
HETATM   14  C   UNL     1      -6.450  11.034  68.406  1.00  0.00    -0.057 A  
HETATM   15  C   UNL     1      -8.916  11.942  67.626  1.00  0.00    -0.169 A  
HETATM   16  C   UNL     1      -7.435  10.093  68.124  1.00  0.00    -0.083 A  
HETATM   17  C   UNL     1      -8.677  10.543  67.670  1.00  0.00    -0.121 A  
HETATM   18  N   UNL     1      -7.145   8.796  68.268  1.00  0.00    -0.077 NA 
HETATM   19  C   UNL     1      -8.106   7.924  67.948  1.00  0.00    -0.129 A  
HETATM   20  C   UNL     1      -9.591   9.531  67.287  1.00  0.00    -0.150 A  
BRANCH  12  21
HETATM   21  O   UNL     1      -5.524  13.161  68.429  1.00  0.00    -0.068 OA 
BRANCH  21  22
HETATM   22  C   UNL     1      -5.125  13.744  69.664  1.00  0.00    -0.084 C  
HETATM   23  C   UNL     1      -5.799  15.355  71.318  1.00  0.00     0.354 C  
HETATM   24  C   UNL     1      -6.020  13.140  70.743  1.00  0.00    -0.017 C  
HETATM   25  O   UNL     1      -5.985  14.039  71.849  1.00  0.00    -0.326 OA 
HETATM   26  C   UNL     1      -5.394  15.224  69.854  1.00  0.00    -0.107 C  
ENDBRANCH  21  22
ENDBRANCH  12  21
BRANCH  20  27
HETATM   27  N   UNL     1     -10.844   9.898  66.718  1.00  0.00    -0.087 NA 
HETATM   28  H   UNL     1     -11.643   9.331  67.002  1.00  0.00     0.000 HD 
BRANCH  27  29
HETATM   29  C   UNL     1     -11.126  10.947  65.808  1.00  0.00     0.122 A  
HETATM   30  C   UNL     1     -11.891  12.072  66.153  1.00  0.00    -0.225 A  
HETATM   31  C   UNL     1     -12.098  13.106  65.236  1.00  0.00    -0.429 A  
HETATM   32 CL   UNL     1     -13.087  14.448  65.687  1.00  0.00    -0.188 Cl 
HETATM   33  C   UNL     1     -11.522  13.044  63.973  1.00  0.00    -0.421 A  
HETATM   34  C   UNL     1     -10.719  11.969  63.625  1.00  0.00    -0.506 A  
HETATM   35  F   UNL     1     -11.711  14.028  63.084  1.00  0.00     0.026 F  
HETATM   36  C   UNL     1     -10.515  10.931  64.540  1.00  0.00    -0.393 A  
ENDBRANCH  27  29
ENDBRANCH  20  27
ENDBRANCH   8  11
ENDBRANCH   6   7
ENDBRANCH   4   5
ENDBRANCH   2   4
TORSDOF 8
ENDMDL
MODEL      165
REMARK 921   NORMALIZED FREE ENERGY PREDICTED BY IDOCK:   -3.09 KCAL/MOL
REMARK 922        TOTAL FREE ENERGY PREDICTED BY IDOCK:   -6.07 KCAL/MOL
REMARK 923 INTER-LIGAND FREE ENERGY PREDICTED BY IDOCK:   -4.86 KCAL/MOL
REMARK 924 INTRA-LIGAND FREE ENERGY PREDICTED BY IDOCK:   -1.21 KCAL/MOL
REMARK 927      BINDING AFFINITY PREDICTED BY RF-SCORE:    0.00 PKD
ROOT
HETATM    1  C   UNL     1      -6.085  14.671  71.111  1.00  0.00     0.039 C  
HETATM    2  N   UNL     1      -5.167  13.962  72.011  1.00  0.00    -0.188 NA 
HETATM    3  C   UNL     1      -5.608  14.178  73.398  1.00  0.00    -0.122 C  
ENDROOT
BRANCH   2   4
HETATM    4  C   UNL     1      -5.159  12.517  71.726  1.00  0.00    -0.043 C  
BRANCH   4   5
HETATM    5  C   UNL     1      -6.121  12.033  70.679  1.00  0.00     0.175 C  
HETATM    6  C   UNL     1      -6.584  10.783  70.499  1.00  0.00     0.083 C  
BRANCH   6   7
HETATM    7  C   UNL     1      -7.528  10.515  69.381  1.00  0.00    -0.141 C  
HETATM    8  N   UNL     1      -8.651  11.328  69.399  1.00  0.00    -0.339 N  
HETATM    9  O   UNL     1      -7.251   9.700  68.506  1.00  0.00    -0.069 OA 
HETATM   10  H   UNL     1      -8.800  11.947  70.196  1.00  0.00     0.000 HD 
BRANCH   8  11
HETATM   11  C   UNL     1      -9.597  11.327  68.347  1.00  0.00    -0.195 A  
HETATM   12  C   UNL     1     -10.393  10.218  68.057  1.00  0.00    -0.181 A  
HETATM   13  N   UNL     1     -11.786  13.636  64.638  1.00  0.00    -0.371 NA 
HETATM   14  C   UNL     1     -11.354  10.319  67.038  1.00  0.00     0.282 A  
HETATM   15  C   UNL     1      -9.713  12.461  67.522  1.00  0.00    -0.191 A  
HETATM   16  C   UNL     1     -11.524  11.462  66.263  1.00  0.00     0.050 A  
HETATM   17  C   UNL     1     -10.655  12.538  66.461  1.00  0.00    -0.265 A  
HETATM   18  N   UNL     1     -12.490  11.474  65.339  1.00  0.00     0.722 NA 
HETATM   19  C   UNL     1     -12.593  12.575  64.589  1.00  0.00    -0.426 A  
HETATM   20  C   UNL     1     -10.806  13.619  65.560  1.00  0.00    -0.294 A  
BRANCH  12  21
HETATM   21  O   UNL     1     -10.245   8.955  68.552  1.00  0.00    -0.188 OA 
BRANCH  21  22
HETATM   22  C   UNL     1     -11.292   8.299  69.258  1.00  0.00     0.455 C  
HETATM   23  C   UNL     1     -11.722   6.481  70.772  1.00  0.00    -0.366 C  
HETATM   24  C   UNL     1     -11.156   8.709  70.722  1.00  0.00    -0.255 C  
HETATM   25  O   UNL     1     -11.838   7.717  71.485  1.00  0.00    -0.276 OA 
HETATM   26  C   UNL     1     -11.218   6.789  69.367  1.00  0.00    -0.288 C  
ENDBRANCH  21  22
ENDBRANCH  12  21
BRANCH  20  27
HETATM   27  N   UNL     1      -9.899  14.715  65.622  1.00  0.00    -0.432 NA 
HETATM   28  H   UNL     1      -9.006  14.579  65.146  1.00  0.00     0.000 HD 
BRANCH  27  29
HETATM   29  C   UNL     1     -10.072  15.968  66.260  1.00  0.00    -0.313 A  
HETATM   30  C   UNL     1      -9.842  17.193  65.614  1.00  0.00     0.019 A  
HETATM   31  C   UNL     1     -10.077  18.404  66.269  1.00  0.00    -0.392 A  
HETATM   32 CL   UNL     1      -9.734  19.886  65.452  1.00  0.00     0.133 Cl 
HETATM   33  C   UNL     1     -10.572  18.410  67.567  1.00  0.00    -0.416 A  
HETATM   34  C   UNL     1     -10.856  17.216  68.211  1.00  0.00    -0.314 A  
HETATM   35  F   UNL     1     -10.802  19.564  68.208  1.00  0.00    -0.440 F  
HETATM   36  C   UNL     1     -10.617  16.002  67.558  1.00  0.00    -0.313 A  
ENDBRANCH  27  29
ENDBRANCH  20  27
ENDBRANCH   8  11
ENDBRANCH   6   7
ENDBRANCH   4   5
ENDBRANCH   2   4
TORSDOF 8
ENDMDL
MODEL      166
REMARK 921   NORMALIZED FREE ENERGY PREDICTED BY IDOCK:   -3.00 KCAL/MOL
REMARK 922        TOTAL FREE ENERGY PREDICTED BY IDOCK:   -5.95 KCAL/MOL
REMARK 923 INTER-LIGAND FREE ENERGY PREDICTED BY IDOCK:   -5.67 KCAL/MOL
REMARK 924 INTRA-LIGAND FREE ENERGY PREDICTED BY IDOCK:   -0.27 KCAL/MOL
REMARK 927      BINDING AFFINITY PREDICTED BY RF-SCORE:    0.00 PKD
ROOT
HETATM    1  C   UNL     1     -13.048   5.609  72.350  1.00  0.00     0.964 C  
HETATM    2  N   UNL     1     -11.947   6.550  72.107  1.00  0.00    -0.313 NA 
HETATM    3  C   UNL     1     -10.673   5.854  72.340  1.00  0.00    -0.232 C  
ENDROOT
BRANCH   2   4
HETATM    4  C   UNL     1     -11.978   7.051  70.722  1.00  0.00    -0.345 C  
BRANCH   4   5
HETATM    5  C   UNL     1     -11.278   8.354  70.461  1.00  0.00    -0.252 C  
HETATM    6  C   UNL     1     -10.370   8.627  69.507  1.00  0.00    -0.214 C  
BRANCH   6   7
HETATM    7  C   UNL     1      -9.785   9.993  69.435  1.00  0.00    -0.225 C  
HETATM    8  N   UNL     1      -8.447  10.003  69.074  1.00  0.00    -0.136 N  
HETATM    9  O   UNL     1     -10.486  10.986  69.606  1.00  0.00    -0.161 OA 
HETATM   10  H   UNL     1      -7.950   9.116  68.993  1.00  0.00     0.000 HD 
BRANCH   8  11
HETATM   11  C   UNL     1      -7.748  11.206  68.814  1.00  0.00    -0.136 A  
HETATM   12  C   UNL     1      -6.417  11.393  69.188  1.00  0.00    -0.085 A  
HETATM   13  N   UNL     1      -7.681  15.737  66.988  1.00  0.00    -0.222 NA 
HETATM   14  C   UNL     1      -5.774  12.592  68.835  1.00  0.00    -0.068 A  
HETATM   15  C   UNL     1      -8.423  12.279  68.204  1.00  0.00    -0.176 A  
HETATM   16  C   UNL     1      -6.415  13.631  68.168  1.00  0.00    -0.125 A  
HETATM   17  C   UNL     1      -7.779  13.507  67.894  1.00  0.00    -0.153 A  
HETATM   18  N   UNL     1      -5.709  14.719  67.846  1.00  0.00    -0.217 NA 
HETATM   19  C   UNL     1      -6.372  15.711  67.243  1.00  0.00    -0.021 A  
HETATM   20  C   UNL     1      -8.394  14.647  67.323  1.00  0.00    -0.213 A  
BRANCH  12  21
HETATM   21  O   UNL     1      -5.681  10.596  70.015  1.00  0.00    -0.051 OA 
BRANCH  21  22
HETATM   22  C   UNL     1      -6.262   9.941  71.137  1.00  0.00     0.017 C  
HETATM   23  C   UNL     1      -6.020   8.013  72.554  1.00  0.00    -0.046 C  
HETATM   24  C   UNL     1      -5.334  10.194  72.321  1.00  0.00     0.124 C  
HETATM   25  O   UNL     1      -5.613   9.177  73.280  1.00  0.00    -0.136 OA 
HETATM   26  C   UNL     1      -6.301   8.425  71.113  1.00  0.00    -0.039 C  
ENDBRANCH  21  22
ENDBRANCH  12  21
BRANCH  20  27
HETATM   27  N   UNL     1      -9.801  14.648  67.103  1.00  0.00    -0.234 NA 
HETATM   28  H   UNL     1     -10.359  15.137  67.803  1.00  0.00     0.000 HD 
BRANCH  27  29
HETATM   29  C   UNL     1     -10.526  14.058  66.038  1.00  0.00    -0.304 A  
HETATM   30  C   UNL     1      -9.995  13.052  65.216  1.00  0.00    -0.186 A  
HETATM   31  C   UNL     1     -10.768  12.466  64.210  1.00  0.00    -0.357 A  
HETATM   32 CL   UNL     1     -10.058  11.266  63.192  1.00  0.00    -0.384 Cl 
HETATM   33  C   UNL     1     -12.090  12.855  64.030  1.00  0.00    -0.455 A  
HETATM   34  C   UNL     1     -12.655  13.809  64.862  1.00  0.00    -0.380 A  
HETATM   35  F   UNL     1     -12.843  12.301  63.072  1.00  0.00    -0.542 F  
HETATM   36  C   UNL     1     -11.881  14.401  65.865  1.00  0.00    -0.371 A  
ENDBRANCH  27  29
ENDBRANCH  20  27
ENDBRANCH   8  11
ENDBRANCH   6   7
ENDBRANCH   4   5
ENDBRANCH   2   4
TORSDOF 8
ENDMDL
MODEL      167
REMARK 921   NORMALIZED FREE ENERGY PREDICTED BY IDOCK:   -3.00 KCAL/MOL
REMARK 922        TOTAL FREE ENERGY PREDICTED BY IDOCK:   -5.94 KCAL/MOL
REMARK 923 INTER-LIGAND FREE ENERGY PREDICTED BY IDOCK:   -4.79 KCAL/MOL
REMARK 924 INTRA-LIGAND FREE ENERGY PREDICTED BY IDOCK:   -1.15 KCAL/MOL
REMARK 927      BINDING AFFINITY PREDICTED BY RF-SCORE:    0.00 PKD
ROOT
HETATM    1  C   UNL     1      -9.980   1.542  63.650  1.00  0.00    -0.130 C  
HETATM    2  N   UNL     1     -10.342   2.757  62.908  1.00  0.00    -0.129 NA 
HETATM    3  C   UNL     1     -11.017   3.686  63.828  1.00  0.00    -0.083 C  
ENDROOT
BRANCH   2   4
HETATM    4  C   UNL     1      -9.145   3.412  62.353  1.00  0.00    -0.088 C  
BRANCH   4   5
HETATM    5  C   UNL     1      -8.560   4.539  63.156  1.00  0.00    -0.113 C  
HETATM    6  C   UNL     1      -7.909   4.464  64.330  1.00  0.00    -0.086 C  
BRANCH   6   7
HETATM    7  C   UNL     1      -7.420   5.717  64.967  1.00  0.00    -0.078 C  
HETATM    8  N   UNL     1      -7.850   5.876  66.275  1.00  0.00    -0.099 N  
HETATM    9  O   UNL     1      -6.645   6.461  64.374  1.00  0.00    -0.033 OA 
HETATM   10  H   UNL     1      -8.526   5.214  66.657  1.00  0.00     0.000 HD 
BRANCH   8  11
HETATM   11  C   UNL     1      -7.382   6.928  67.097  1.00  0.00    -0.090 A  
HETATM   12  C   UNL     1      -6.196   6.836  67.827  1.00  0.00    -0.040 A  
HETATM   13  N   UNL     1      -7.957  11.413  68.948  1.00  0.00    -0.122 NA 
HETATM   14  C   UNL     1      -5.766   7.949  68.568  1.00  0.00    -0.028 A  
HETATM   15  C   UNL     1      -8.156   8.095  67.234  1.00  0.00    -0.121 A  
HETATM   16  C   UNL     1      -6.491   9.134  68.652  1.00  0.00    -0.053 A  
HETATM   17  C   UNL     1      -7.738   9.198  68.025  1.00  0.00    -0.092 A  
HETATM   18  N   UNL     1      -5.982  10.150  69.355  1.00  0.00    -0.037 NA 
HETATM   19  C   UNL     1      -6.729  11.255  69.445  1.00  0.00    -0.123 A  
HETATM   20  C   UNL     1      -8.474  10.386  68.251  1.00  0.00    -0.123 A  
BRANCH  12  21
HETATM   21  O   UNL     1      -5.454   5.712  68.042  1.00  0.00    -0.007 OA 
BRANCH  21  22
HETATM   22  C   UNL     1      -5.531   4.985  69.263  1.00  0.00    -0.008 C  
HETATM   23  C   UNL     1      -6.875   3.379  70.445  1.00  0.00    -0.033 C  
HETATM   24  C   UNL     1      -5.144   3.545  68.941  1.00  0.00    -0.011 C  
HETATM   25  O   UNL     1      -5.681   2.738  69.987  1.00  0.00    -0.016 OA 
HETATM   26  C   UNL     1      -6.906   4.792  69.873  1.00  0.00    -0.048 C  
ENDBRANCH  21  22
ENDBRANCH  12  21
BRANCH  20  27
HETATM   27  N   UNL     1      -9.796  10.499  67.734  1.00  0.00    -0.163 NA 
HETATM   28  H   UNL     1     -10.543  10.178  68.352  1.00  0.00     0.000 HD 
BRANCH  27  29
HETATM   29  C   UNL     1     -10.211  11.000  66.475  1.00  0.00    -0.234 A  
HETATM   30  C   UNL     1      -9.721  10.505  65.257  1.00  0.00    -0.328 A  
HETATM   31  C   UNL     1     -10.199  10.996  64.039  1.00  0.00    -0.358 A  
HETATM   32 CL   UNL     1      -9.532  10.393  62.565  1.00  0.00    -0.311 Cl 
HETATM   33  C   UNL     1     -11.193  11.967  64.021  1.00  0.00    -0.396 A  
HETATM   34  C   UNL     1     -11.732  12.436  65.209  1.00  0.00    -0.437 A  
HETATM   35  F   UNL     1     -11.662  12.447  62.861  1.00  0.00    -0.385 F  
HETATM   36  C   UNL     1     -11.251  11.949  66.428  1.00  0.00    -0.387 A  
ENDBRANCH  27  29
ENDBRANCH  20  27
ENDBRANCH   8  11
ENDBRANCH   6   7
ENDBRANCH   4   5
ENDBRANCH   2   4
TORSDOF 8
ENDMDL
MODEL      168
REMARK 921   NORMALIZED FREE ENERGY PREDICTED BY IDOCK:   -2.94 KCAL/MOL
REMARK 922        TOTAL FREE ENERGY PREDICTED BY IDOCK:   -5.85 KCAL/MOL
REMARK 923 INTER-LIGAND FREE ENERGY PREDICTED BY IDOCK:   -5.07 KCAL/MOL
REMARK 924 INTRA-LIGAND FREE ENERGY PREDICTED BY IDOCK:   -0.78 KCAL/MOL
REMARK 927      BINDING AFFINITY PREDICTED BY RF-SCORE:    0.00 PKD
ROOT
HETATM    1  C   UNL     1      -7.107  14.950  71.607  1.00  0.00     2.193 C  
HETATM    2  N   UNL     1      -5.680  14.608  71.653  1.00  0.00    -0.040 NA 
HETATM    3  C   UNL     1      -5.525  13.328  72.361  1.00  0.00     0.190 C  
ENDROOT
BRANCH   2   4
HETATM    4  C   UNL     1      -5.125  14.478  70.294  1.00  0.00    -0.095 C  
BRANCH   4   5
HETATM    5  C   UNL     1      -6.046  13.928  69.241  1.00  0.00    -0.098 C  
HETATM    6  C   UNL     1      -6.043  12.695  68.705  1.00  0.00    -0.071 C  
BRANCH   6   7
HETATM    7  C   UNL     1      -7.043  12.361  67.655  1.00  0.00    -0.133 C  
HETATM    8  N   UNL     1      -8.340  12.705  67.998  1.00  0.00    -0.166 N  
HETATM    9  O   UNL     1      -6.688  11.901  66.574  1.00  0.00     0.000 OA 
HETATM   10  H   UNL     1      -8.529  13.047  68.941  1.00  0.00     0.000 HD 
BRANCH   8  11
HETATM   11  C   UNL     1      -9.413  12.599  67.082  1.00  0.00    -0.214 A  
HETATM   12  C   UNL     1     -10.020  11.380  66.778  1.00  0.00    -0.208 A  
HETATM   13  N   UNL     1     -12.517  14.713  63.956  1.00  0.00    -0.813 NA 
HETATM   14  C   UNL     1     -11.122  11.367  65.907  1.00  0.00    -0.225 A  
HETATM   15  C   UNL     1      -9.860  13.749  66.406  1.00  0.00    -0.305 A  
HETATM   16  C   UNL     1     -11.616  12.512  65.289  1.00  0.00    -0.364 A  
HETATM   17  C   UNL     1     -10.946  13.721  65.489  1.00  0.00    -0.299 A  
HETATM   18  N   UNL     1     -12.692  12.404  64.503  1.00  0.00    -0.676 NA 
HETATM   19  C   UNL     1     -13.109  13.519  63.895  1.00  0.00     0.985 A  
HETATM   20  C   UNL     1     -11.427  14.819  64.737  1.00  0.00    -0.410 A  
BRANCH  12  21
HETATM   21  O   UNL     1      -9.566  10.137  67.110  1.00  0.00    -0.162 OA 
BRANCH  21  22
HETATM   22  C   UNL     1     -10.444   9.120  67.581  1.00  0.00    -0.261 C  
HETATM   23  C   UNL     1     -10.466   6.981  68.681  1.00  0.00    -0.204 C  
HETATM   24  C   UNL     1     -10.480   9.241  69.102  1.00  0.00    -0.217 C  
HETATM   25  O   UNL     1     -10.922   7.981  69.599  1.00  0.00    -0.210 OA 
HETATM   26  C   UNL     1      -9.995   7.681  67.411  1.00  0.00    -0.252 C  
ENDBRANCH  21  22
ENDBRANCH  12  21
BRANCH  20  27
HETATM   27  N   UNL     1     -10.743  16.066  64.801  1.00  0.00    -0.768 NA 
HETATM   28  H   UNL     1     -10.317  16.383  63.929  1.00  0.00     0.000 HD 
BRANCH  27  29
HETATM   29  C   UNL     1     -10.576  16.924  65.916  1.00  0.00    -0.233 A  
HETATM   30  C   UNL     1     -10.791  16.508  67.239  1.00  0.00    -0.173 A  
HETATM   31  C   UNL     1     -10.563  17.377  68.310  1.00  0.00    -0.366 A  
HETATM   32 CL   UNL     1     -10.887  16.838  69.917  1.00  0.00    -0.234 Cl 
HETATM   33  C   UNL     1     -10.091  18.662  68.076  1.00  0.00    -0.375 A  
HETATM   34  C   UNL     1      -9.821  19.082  66.782  1.00  0.00    -0.395 A  
HETATM   35  F   UNL     1      -9.867  19.506  69.092  1.00  0.00    -0.449 F  
HETATM   36  C   UNL     1     -10.053  18.215  65.709  1.00  0.00    -0.028 A  
ENDBRANCH  27  29
ENDBRANCH  20  27
ENDBRANCH   8  11
ENDBRANCH   6   7
ENDBRANCH   4   5
ENDBRANCH   2   4
TORSDOF 8
ENDMDL
MODEL      169
REMARK 921   NORMALIZED FREE ENERGY PREDICTED BY IDOCK:   -2.85 KCAL/MOL
REMARK 922        TOTAL FREE ENERGY PREDICTED BY IDOCK:   -5.72 KCAL/MOL
REMARK 923 INTER-LIGAND FREE ENERGY PREDICTED BY IDOCK:   -5.14 KCAL/MOL
REMARK 924 INTRA-LIGAND FREE ENERGY PREDICTED BY IDOCK:   -0.58 KCAL/MOL
REMARK 927      BINDING AFFINITY PREDICTED BY RF-SCORE:    0.00 PKD
ROOT
HETATM    1  C   UNL     1     -12.985   5.309  72.399  1.00  0.00     1.339 C  
HETATM    2  N   UNL     1     -11.678   5.976  72.334  1.00  0.00    -0.305 NA 
HETATM    3  C   UNL     1     -10.671   5.098  72.948  1.00  0.00    -0.248 C  
ENDROOT
BRANCH   2   4
HETATM    4  C   UNL     1     -11.295   6.250  70.938  1.00  0.00    -0.325 C  
BRANCH   4   5
HETATM    5  C   UNL     1     -10.704   7.602  70.655  1.00  0.00    -0.237 C  
HETATM    6  C   UNL     1     -10.155   8.038  69.507  1.00  0.00    -0.196 C  
BRANCH   6   7
HETATM    7  C   UNL     1      -9.612   9.422  69.446  1.00  0.00    -0.173 C  
HETATM    8  N   UNL     1      -8.736   9.626  68.391  1.00  0.00    -0.119 N  
HETATM    9  O   UNL     1     -10.000  10.284  70.229  1.00  0.00    -0.132 OA 
HETATM   10  H   UNL     1      -8.452   8.828  67.822  1.00  0.00     0.000 HD 
BRANCH   8  11
HETATM   11  C   UNL     1      -8.222  10.906  68.078  1.00  0.00    -0.121 A  
HETATM   12  C   UNL     1      -6.867  11.128  67.827  1.00  0.00    -0.073 A  
HETATM   13  N   UNL     1      -8.951  15.682  67.342  1.00  0.00    -0.190 NA 
HETATM   14  C   UNL     1      -6.446  12.417  67.459  1.00  0.00    -0.146 A  
HETATM   15  C   UNL     1      -9.089  12.015  68.067  1.00  0.00    -0.188 A  
HETATM   16  C   UNL     1      -7.310  13.505  67.376  1.00  0.00    -0.109 A  
HETATM   17  C   UNL     1      -8.646  13.325  67.741  1.00  0.00    -0.184 A  
HETATM   18  N   UNL     1      -6.820  14.685  66.983  1.00  0.00     0.001 NA 
HETATM   19  C   UNL     1      -7.674  15.713  66.957  1.00  0.00    -0.222 A  
HETATM   20  C   UNL     1      -9.440  14.497  67.750  1.00  0.00    -0.210 A  
BRANCH  12  21
HETATM   21  O   UNL     1      -5.842  10.257  68.051  1.00  0.00    -0.041 OA 
BRANCH  21  22
HETATM   22  C   UNL     1      -5.452   9.881  69.367  1.00  0.00    -0.034 C  
HETATM   23  C   UNL     1      -6.302   8.951  71.415  1.00  0.00    -0.073 C  
HETATM   24  C   UNL     1      -5.394   8.357  69.389  1.00  0.00    -0.031 C  
HETATM   25  O   UNL     1      -5.499   7.966  70.756  1.00  0.00    -0.026 OA 
HETATM   26  C   UNL     1      -6.435  10.154  70.489  1.00  0.00    -0.116 C  
ENDBRANCH  21  22
ENDBRANCH  12  21
BRANCH  20  27
HETATM   27  N   UNL     1     -10.788  14.426  68.204  1.00  0.00    -0.239 NA 
HETATM   28  H   UNL     1     -11.478  14.148  67.505  1.00  0.00     0.000 HD 
BRANCH  27  29
HETATM   29  C   UNL     1     -11.297  14.692  69.500  1.00  0.00    -0.280 A  
HETATM   30  C   UNL     1     -11.916  13.714  70.293  1.00  0.00    -0.397 A  
HETATM   31  C   UNL     1     -12.356  14.013  71.586  1.00  0.00    -0.228 A  
HETATM   32 CL   UNL     1     -13.157  12.792  72.507  1.00  0.00    -0.305 Cl 
HETATM   33  C   UNL     1     -12.158  15.282  72.114  1.00  0.00    -0.396 A  
HETATM   34  C   UNL     1     -11.503  16.252  71.371  1.00  0.00    -0.361 A  
HETATM   35  F   UNL     1     -12.573  15.583  73.351  1.00  0.00    -0.420 F  
HETATM   36  C   UNL     1     -11.066  15.957  70.076  1.00  0.00    -0.356 A  
ENDBRANCH  27  29
ENDBRANCH  20  27
ENDBRANCH   8  11
ENDBRANCH   6   7
ENDBRANCH   4   5
ENDBRANCH   2   4
TORSDOF 8
ENDMDL
MODEL      170
REMARK 921   NORMALIZED FREE ENERGY PREDICTED BY IDOCK:   -2.80 KCAL/MOL
REMARK 922        TOTAL FREE ENERGY PREDICTED BY IDOCK:   -5.65 KCAL/MOL
REMARK 923 INTER-LIGAND FREE ENERGY PREDICTED BY IDOCK:   -6.87 KCAL/MOL
REMARK 924 INTRA-LIGAND FREE ENERGY PREDICTED BY IDOCK:    1.21 KCAL/MOL
REMARK 927      BINDING AFFINITY PREDICTED BY RF-SCORE:    0.00 PKD
ROOT
HETATM    1  C   UNL     1      -5.143  17.979  70.795  1.00  0.00    -0.271 C  
HETATM    2  N   UNL     1      -5.415  19.151  69.952  1.00  0.00    -0.210 NA 
HETATM    3  C   UNL     1      -5.142  18.795  68.551  1.00  0.00    -0.181 C  
ENDROOT
BRANCH   2   4
HETATM    4  C   UNL     1      -6.819  19.577  70.078  1.00  0.00    -0.040 C  
BRANCH   4   5
HETATM    5  C   UNL     1      -7.840  18.752  69.346  1.00  0.00     0.140 C  
HETATM    6  C   UNL     1      -8.021  17.421  69.404  1.00  0.00     0.301 C  
BRANCH   6   7
HETATM    7  C   UNL     1      -9.092  16.801  68.578  1.00  0.00    -0.241 C  
HETATM    8  N   UNL     1      -8.622  16.213  67.414  1.00  0.00    -0.176 N  
HETATM    9  O   UNL     1     -10.252  16.767  68.977  1.00  0.00    -0.274 OA 
HETATM   10  H   UNL     1      -7.641  16.334  67.160  1.00  0.00     0.000 HD 
BRANCH   8  11
HETATM   11  C   UNL     1      -9.460  15.451  66.565  1.00  0.00    -0.273 A  
HETATM   12  C   UNL     1     -10.290  16.038  65.609  1.00  0.00    -0.392 A  
HETATM   13  N   UNL     1     -11.162  11.109  65.110  1.00  0.00    -0.015 NA 
HETATM   14  C   UNL     1     -11.042  15.208  64.761  1.00  0.00    -0.395 A  
HETATM   15  C   UNL     1      -9.506  14.053  66.716  1.00  0.00    -0.292 A  
HETATM   16  C   UNL     1     -11.039  13.820  64.857  1.00  0.00    -0.362 A  
HETATM   17  C   UNL     1     -10.307  13.224  65.886  1.00  0.00    -0.293 A  
HETATM   18  N   UNL     1     -11.763  13.115  63.981  1.00  0.00    -0.413 NA 
HETATM   19  C   UNL     1     -11.766  11.787  64.133  1.00  0.00    -0.285 A  
HETATM   20  C   UNL     1     -10.445  11.819  65.999  1.00  0.00    -0.246 A  
BRANCH  12  21
HETATM   21  O   UNL     1     -10.590  17.363  65.492  1.00  0.00    -0.595 OA 
BRANCH  21  22
HETATM   22  C   UNL     1     -10.014  18.342  66.350  1.00  0.00    -0.380 C  
HETATM   23  C   UNL     1      -8.765  20.396  66.330  1.00  0.00    -0.056 C  
HETATM   24  C   UNL     1     -10.911  19.574  66.274  1.00  0.00    -0.327 C  
HETATM   25  O   UNL     1     -10.118  20.679  66.701  1.00  0.00    -0.327 OA 
HETATM   26  C   UNL     1      -8.676  18.926  65.940  1.00  0.00     0.145 C  
ENDBRANCH  21  22
ENDBRANCH  12  21
BRANCH  20  27
HETATM   27  N   UNL     1      -9.815  11.138  67.079  1.00  0.00    -0.183 NA 
HETATM   28  H   UNL     1      -9.742  11.663  67.951  1.00  0.00     0.000 HD 
BRANCH  27  29
HETATM   29  C   UNL     1      -9.277   9.828  67.102  1.00  0.00    -0.138 A  
HETATM   30  C   UNL     1     -10.041   8.693  67.414  1.00  0.00    -0.292 A  
HETATM   31  C   UNL     1      -9.477   7.415  67.374  1.00  0.00    -0.141 A  
HETATM   32 CL   UNL     1     -10.442   6.052  67.813  1.00  0.00    -0.258 Cl 
HETATM   33  C   UNL     1      -8.151   7.250  66.993  1.00  0.00    -0.117 A  
HETATM   34  C   UNL     1      -7.388   8.349  66.629  1.00  0.00    -0.082 A  
HETATM   35  F   UNL     1      -7.597   6.032  66.948  1.00  0.00    -0.088 F  
HETATM   36  C   UNL     1      -7.950   9.629  66.675  1.00  0.00    -0.109 A  
ENDBRANCH  27  29
ENDBRANCH  20  27
ENDBRANCH   8  11
ENDBRANCH   6   7
ENDBRANCH   4   5
ENDBRANCH   2   4
TORSDOF 8
ENDMDL
MODEL      171
REMARK 921   NORMALIZED FREE ENERGY PREDICTED BY IDOCK:   -2.79 KCAL/MOL
REMARK 922        TOTAL FREE ENERGY PREDICTED BY IDOCK:   -5.64 KCAL/MOL
REMARK 923 INTER-LIGAND FREE ENERGY PREDICTED BY IDOCK:   -5.04 KCAL/MOL
REMARK 924 INTRA-LIGAND FREE ENERGY PREDICTED BY IDOCK:   -0.60 KCAL/MOL
REMARK 927      BINDING AFFINITY PREDICTED BY RF-SCORE:    0.00 PKD
ROOT
HETATM    1  C   UNL     1     -10.903  20.369  65.333  1.00  0.00     0.349 C  
HETATM    2  N   UNL     1     -10.191  19.369  66.140  1.00  0.00    -0.456 NA 
HETATM    3  C   UNL     1     -10.355  19.708  67.561  1.00  0.00    -0.448 C  
ENDROOT
BRANCH   2   4
HETATM    4  C   UNL     1     -10.730  18.019  65.900  1.00  0.00    -0.116 C  
BRANCH   4   5
HETATM    5  C   UNL     1      -9.814  16.866  66.199  1.00  0.00    -0.318 C  
HETATM    6  C   UNL     1      -9.427  16.410  67.403  1.00  0.00    -0.227 C  
BRANCH   6   7
HETATM    7  C   UNL     1      -8.494  15.253  67.473  1.00  0.00    -0.177 C  
HETATM    8  N   UNL     1      -8.098  14.939  68.763  1.00  0.00    -0.154 N  
HETATM    9  O   UNL     1      -8.202  14.621  66.462  1.00  0.00     0.043 OA 
HETATM   10  H   UNL     1      -8.370  15.557  69.528  1.00  0.00     0.000 HD 
BRANCH   8  11
HETATM   11  C   UNL     1      -7.327  13.789  69.054  1.00  0.00    -0.036 A  
HETATM   12  C   UNL     1      -6.029  13.867  69.562  1.00  0.00    -0.105 A  
HETATM   13  N   UNL     1      -6.880   8.925  69.161  1.00  0.00    -0.054 NA 
HETATM   14  C   UNL     1      -5.354  12.678  69.886  1.00  0.00    -0.094 A  
HETATM   15  C   UNL     1      -7.855  12.515  68.776  1.00  0.00     0.031 A  
HETATM   16  C   UNL     1      -5.898  11.414  69.681  1.00  0.00    -0.087 A  
HETATM   17  C   UNL     1      -7.146  11.318  69.062  1.00  0.00    -0.116 A  
HETATM   18  N   UNL     1      -5.191  10.343  70.053  1.00  0.00    -0.038 NA 
HETATM   19  C   UNL     1      -5.731   9.146  69.801  1.00  0.00    -0.032 A  
HETATM   20  C   UNL     1      -7.585  10.003  68.774  1.00  0.00    -0.083 A  
BRANCH  12  21
HETATM   21  O   UNL     1      -5.249  14.983  69.643  1.00  0.00    -0.090 OA 
BRANCH  21  22
HETATM   22  C   UNL     1      -5.804  16.268  69.905  1.00  0.00    -0.187 C  
HETATM   23  C   UNL     1      -5.225  18.475  70.663  1.00  0.00    -0.257 C  
HETATM   24  C   UNL     1      -5.351  17.180  68.768  1.00  0.00    -0.142 C  
HETATM   25  O   UNL     1      -5.462  18.516  69.252  1.00  0.00    -0.194 OA 
HETATM   26  C   UNL     1      -5.278  17.020  71.112  1.00  0.00    -0.085 C  
ENDBRANCH  21  22
ENDBRANCH  12  21
BRANCH  20  27
HETATM   27  N   UNL     1      -8.799   9.811  68.055  1.00  0.00    -0.119 NA 
HETATM   28  H   UNL     1      -9.587   9.459  68.600  1.00  0.00     0.000 HD 
BRANCH  27  29
HETATM   29  C   UNL     1      -9.057  10.046  66.682  1.00  0.00    -0.147 A  
HETATM   30  C   UNL     1      -8.634   9.176  65.665  1.00  0.00    -0.178 A  
HETATM   31  C   UNL     1      -8.956   9.425  64.328  1.00  0.00    -0.160 A  
HETATM   32 CL   UNL     1      -8.373   8.354  63.106  1.00  0.00    -0.132 Cl 
HETATM   33  C   UNL     1      -9.730  10.529  63.992  1.00  0.00    -0.323 A  
HETATM   34  C   UNL     1     -10.205  11.375  64.981  1.00  0.00    -0.333 A  
HETATM   35  F   UNL     1     -10.048  10.779  62.715  1.00  0.00    -0.326 F  
HETATM   36  C   UNL     1      -9.878  11.131  66.319  1.00  0.00    -0.253 A  
ENDBRANCH  27  29
ENDBRANCH  20  27
ENDBRANCH   8  11
ENDBRANCH   6   7
ENDBRANCH   4   5
ENDBRANCH   2   4
TORSDOF 8
ENDMDL
MODEL      172
REMARK 921   NORMALIZED FREE ENERGY PREDICTED BY IDOCK:   -2.78 KCAL/MOL
REMARK 922        TOTAL FREE ENERGY PREDICTED BY IDOCK:   -5.62 KCAL/MOL
REMARK 923 INTER-LIGAND FREE ENERGY PREDICTED BY IDOCK:   -4.80 KCAL/MOL
REMARK 924 INTRA-LIGAND FREE ENERGY PREDICTED BY IDOCK:   -0.81 KCAL/MOL
REMARK 927      BINDING AFFINITY PREDICTED BY RF-SCORE:    0.00 PKD
ROOT
HETATM    1  C   UNL     1     -11.154  13.047  68.521  1.00  0.00    -0.266 C  
HETATM    2  N   UNL     1     -11.655  13.737  67.325  1.00  0.00    -0.341 NA 
HETATM    3  C   UNL     1     -10.855  14.953  67.114  1.00  0.00    -0.311 C  
ENDROOT
BRANCH   2   4
HETATM    4  C   UNL     1     -11.548  12.875  66.135  1.00  0.00    -0.372 C  
BRANCH   4   5
HETATM    5  C   UNL     1     -10.899  11.534  66.332  1.00  0.00    -0.334 C  
HETATM    6  C   UNL     1      -9.928  10.971  65.590  1.00  0.00    -0.299 C  
BRANCH   6   7
HETATM    7  C   UNL     1      -9.435   9.616  65.955  1.00  0.00    -0.225 C  
HETATM    8  N   UNL     1      -8.055   9.540  66.059  1.00  0.00    -0.110 N  
HETATM    9  O   UNL     1     -10.221   8.709  66.210  1.00  0.00    -0.264 OA 
HETATM   10  H   UNL     1      -7.493  10.347  65.787  1.00  0.00     0.000 HD 
BRANCH   8  11
HETATM   11  C   UNL     1      -7.400   8.378  66.532  1.00  0.00    -0.081 A  
HETATM   12  C   UNL     1      -6.964   7.364  65.677  1.00  0.00    -0.060 A  
HETATM   13  N   UNL     1      -5.651   5.738  70.253  1.00  0.00    -0.012 NA 
HETATM   14  C   UNL     1      -6.264   6.273  66.217  1.00  0.00    -0.037 A  
HETATM   15  C   UNL     1      -7.221   8.200  67.916  1.00  0.00    -0.091 A  
HETATM   16  C   UNL     1      -6.020   6.125  67.579  1.00  0.00    -0.017 A  
HETATM   17  C   UNL     1      -6.554   7.070  68.459  1.00  0.00    -0.055 A  
HETATM   18  N   UNL     1      -5.314   5.069  67.994  1.00  0.00    -0.010 NA 
HETATM   19  C   UNL     1      -5.138   4.942  69.313  1.00  0.00     0.000 A  
HETATM   20  C   UNL     1      -6.372   6.794  69.836  1.00  0.00    -0.039 A  
BRANCH  12  21
HETATM   21  O   UNL     1      -7.278   7.218  64.357  1.00  0.00    -0.065 OA 
BRANCH  21  22
HETATM   22  C   UNL     1      -8.406   6.461  63.934  1.00  0.00     0.133 C  
HETATM   23  C   UNL     1      -9.029   4.517  62.663  1.00  0.00    -0.127 C  
HETATM   24  C   UNL     1      -8.420   5.188  64.775  1.00  0.00    -0.150 C  
HETATM   25  O   UNL     1      -9.198   4.235  64.056  1.00  0.00    -0.146 OA 
HETATM   26  C   UNL     1      -8.372   5.886  62.531  1.00  0.00    -0.065 C  
ENDBRANCH  21  22
ENDBRANCH  12  21
BRANCH  20  27
HETATM   27  N   UNL     1      -6.968   7.649  70.806  1.00  0.00    -0.046 NA 
HETATM   28  H   UNL     1      -6.323   8.238  71.334  1.00  0.00     0.000 HD 
BRANCH  27  29
HETATM   29  C   UNL     1      -8.339   7.789  71.135  1.00  0.00    -0.111 A  
HETATM   30  C   UNL     1      -9.341   6.963  70.601  1.00  0.00    -0.162 A  
HETATM   31  C   UNL     1     -10.674   7.107  70.995  1.00  0.00    -0.232 A  
HETATM   32 CL   UNL     1     -11.879   6.103  70.275  1.00  0.00    -0.173 Cl 
HETATM   33  C   UNL     1     -11.020   8.056  71.949  1.00  0.00    -0.263 A  
HETATM   34  C   UNL     1     -10.043   8.849  72.530  1.00  0.00     0.087 A  
HETATM   35  F   UNL     1     -12.293   8.205  72.337  1.00  0.00    -0.343 F  
HETATM   36  C   UNL     1      -8.710   8.711  72.133  1.00  0.00    -0.217 A  
ENDBRANCH  27  29
ENDBRANCH  20  27
ENDBRANCH   8  11
ENDBRANCH   6   7
ENDBRANCH   4   5
ENDBRANCH   2   4
TORSDOF 8
ENDMDL
MODEL      173
REMARK 921   NORMALIZED FREE ENERGY PREDICTED BY IDOCK:   -2.77 KCAL/MOL
REMARK 922        TOTAL FREE ENERGY PREDICTED BY IDOCK:   -5.61 KCAL/MOL
REMARK 923 INTER-LIGAND FREE ENERGY PREDICTED BY IDOCK:   -4.95 KCAL/MOL
REMARK 924 INTRA-LIGAND FREE ENERGY PREDICTED BY IDOCK:   -0.66 KCAL/MOL
REMARK 927      BINDING AFFINITY PREDICTED BY RF-SCORE:    0.00 PKD
ROOT
HETATM    1  C   UNL     1     -12.786  12.208  64.440  1.00  0.00    -0.115 C  
HETATM    2  N   UNL     1     -11.634  12.507  63.580  1.00  0.00    -0.464 NA 
HETATM    3  C   UNL     1     -10.829  13.557  64.222  1.00  0.00    -0.322 C  
ENDROOT
BRANCH   2   4
HETATM    4  C   UNL     1     -10.799  11.311  63.382  1.00  0.00    -0.230 C  
BRANCH   4   5
HETATM    5  C   UNL     1      -9.912  10.911  64.528  1.00  0.00    -0.376 C  
HETATM    6  C   UNL     1      -9.667   9.671  64.988  1.00  0.00    -0.234 C  
BRANCH   6   7
HETATM    7  C   UNL     1      -8.760   9.500  66.154  1.00  0.00    -0.145 C  
HETATM    8  N   UNL     1      -9.425   9.456  67.370  1.00  0.00    -0.130 N  
HETATM    9  O   UNL     1      -7.554   9.334  65.994  1.00  0.00    -0.094 OA 
HETATM   10  H   UNL     1     -10.427   9.644  67.392  1.00  0.00     0.000 HD 
BRANCH   8  11
HETATM   11  C   UNL     1      -8.757   9.159  68.581  1.00  0.00    -0.129 A  
HETATM   12  C   UNL     1      -8.131  10.141  69.351  1.00  0.00    -0.160 A  
HETATM   13  N   UNL     1      -7.320   5.889  71.915  1.00  0.00    -0.092 NA 
HETATM   14  C   UNL     1      -7.546   9.775  70.575  1.00  0.00    -0.110 A  
HETATM   15  C   UNL     1      -8.668   7.822  69.011  1.00  0.00    -0.135 A  
HETATM   16  C   UNL     1      -7.516   8.464  71.042  1.00  0.00    -0.075 A  
HETATM   17  C   UNL     1      -8.033   7.454  70.227  1.00  0.00    -0.107 A  
HETATM   18  N   UNL     1      -6.967   8.220  72.235  1.00  0.00    -0.088 NA 
HETATM   19  C   UNL     1      -6.921   6.943  72.629  1.00  0.00    -0.070 A  
HETATM   20  C   UNL     1      -7.861   6.133  70.709  1.00  0.00    -0.103 A  
BRANCH  12  21
HETATM   21  O   UNL     1      -7.872  11.427  68.980  1.00  0.00    -0.120 OA 
BRANCH  21  22
HETATM   22  C   UNL     1      -6.547  11.884  68.731  1.00  0.00    -0.080 C  
HETATM   23  C   UNL     1      -5.307  13.739  67.836  1.00  0.00    -0.086 C  
HETATM   24  C   UNL     1      -6.246  12.950  69.780  1.00  0.00    -0.105 C  
HETATM   25  O   UNL     1      -5.178  13.739  69.261  1.00  0.00    -0.081 OA 
HETATM   26  C   UNL     1      -6.306  12.656  67.448  1.00  0.00    -0.152 C  
ENDBRANCH  21  22
ENDBRANCH  12  21
BRANCH  20  27
HETATM   27  N   UNL     1      -8.266   5.034  69.899  1.00  0.00    -0.074 NA 
HETATM   28  H   UNL     1      -8.421   4.154  70.391  1.00  0.00     0.000 HD 
BRANCH  27  29
HETATM   29  C   UNL     1      -8.483   5.003  68.498  1.00  0.00    -0.091 A  
HETATM   30  C   UNL     1      -7.446   4.824  67.569  1.00  0.00    -0.079 A  
HETATM   31  C   UNL     1      -7.717   4.750  66.200  1.00  0.00    -0.091 A  
HETATM   32 CL   UNL     1      -6.406   4.578  65.090  1.00  0.00    -0.034 Cl 
HETATM   33  C   UNL     1      -9.027   4.824  65.743  1.00  0.00    -0.138 A  
HETATM   34  C   UNL     1     -10.073   4.949  66.643  1.00  0.00    -0.280 A  
HETATM   35  F   UNL     1      -9.301   4.753  64.434  1.00  0.00    -0.157 F  
HETATM   36  C   UNL     1      -9.804   5.029  68.013  1.00  0.00    -0.202 A  
ENDBRANCH  27  29
ENDBRANCH  20  27
ENDBRANCH   8  11
ENDBRANCH   6   7
ENDBRANCH   4   5
ENDBRANCH   2   4
TORSDOF 8
ENDMDL
MODEL      174
REMARK 921   NORMALIZED FREE ENERGY PREDICTED BY IDOCK:   -2.69 KCAL/MOL
REMARK 922        TOTAL FREE ENERGY PREDICTED BY IDOCK:   -5.49 KCAL/MOL
REMARK 923 INTER-LIGAND FREE ENERGY PREDICTED BY IDOCK:   -3.97 KCAL/MOL
REMARK 924 INTRA-LIGAND FREE ENERGY PREDICTED BY IDOCK:   -1.52 KCAL/MOL
REMARK 927      BINDING AFFINITY PREDICTED BY RF-SCORE:    0.00 PKD
ROOT
HETATM    1  C   UNL     1      -9.891   4.015  66.087  1.00  0.00    -0.162 C  
HETATM    2  N   UNL     1      -9.389   3.581  64.777  1.00  0.00    -0.144 NA 
HETATM    3  C   UNL     1     -10.402   3.894  63.758  1.00  0.00    -0.195 C  
ENDROOT
BRANCH   2   4
HETATM    4  C   UNL     1      -8.133   4.274  64.439  1.00  0.00    -0.095 C  
BRANCH   4   5
HETATM    5  C   UNL     1      -7.511   5.108  65.523  1.00  0.00    -0.077 C  
HETATM    6  C   UNL     1      -7.216   6.419  65.488  1.00  0.00    -0.070 C  
BRANCH   6   7
HETATM    7  C   UNL     1      -6.584   7.050  66.678  1.00  0.00    -0.052 C  
HETATM    8  N   UNL     1      -7.493   7.416  67.658  1.00  0.00    -0.095 N  
HETATM    9  O   UNL     1      -5.363   7.137  66.768  1.00  0.00    -0.021 OA 
HETATM   10  H   UNL     1      -8.491   7.333  67.462  1.00  0.00     0.000 HD 
BRANCH   8  11
HETATM   11  C   UNL     1      -7.081   7.900  68.922  1.00  0.00    -0.074 A  
HETATM   12  C   UNL     1      -6.745   9.238  69.137  1.00  0.00    -0.050 A  
HETATM   13  N   UNL     1      -6.082   7.083  73.634  1.00  0.00    -0.061 NA 
HETATM   14  C   UNL     1      -6.409   9.654  70.436  1.00  0.00    -0.081 A  
HETATM   15  C   UNL     1      -6.951   7.002  69.997  1.00  0.00    -0.062 A  
HETATM   16  C   UNL     1      -6.347   8.784  71.521  1.00  0.00    -0.071 A  
HETATM   17  C   UNL     1      -6.564   7.423  71.298  1.00  0.00    -0.043 A  
HETATM   18  N   UNL     1      -6.051   9.281  72.726  1.00  0.00    -0.301 NA 
HETATM   19  C   UNL     1      -5.961   8.407  73.733  1.00  0.00    -0.112 A  
HETATM   20  C   UNL     1      -6.367   6.581  72.419  1.00  0.00    -0.054 A  
BRANCH  12  21
HETATM   21  O   UNL     1      -6.545  10.193  68.184  1.00  0.00    -0.058 OA 
BRANCH  21  22
HETATM   22  C   UNL     1      -7.628  10.916  67.609  1.00  0.00    -0.096 C  
HETATM   23  C   UNL     1      -9.328  12.535  68.128  1.00  0.00    -0.210 C  
HETATM   24  C   UNL     1      -7.147  12.353  67.426  1.00  0.00    -0.152 C  
HETATM   25  O   UNL     1      -8.316  13.163  67.334  1.00  0.00    -0.170 OA 
HETATM   26  C   UNL     1      -8.859  11.125  68.468  1.00  0.00    -0.161 C  
ENDBRANCH  21  22
ENDBRANCH  12  21
BRANCH  20  27
HETATM   27  N   UNL     1      -6.467   5.169  72.261  1.00  0.00    -0.042 NA 
HETATM   28  H   UNL     1      -5.594   4.682  72.060  1.00  0.00     0.000 HD 
BRANCH  27  29
HETATM   29  C   UNL     1      -7.622   4.352  72.348  1.00  0.00    -0.079 A  
HETATM   30  C   UNL     1      -8.878   4.843  72.737  1.00  0.00    -0.123 A  
HETATM   31  C   UNL     1      -9.999   4.008  72.757  1.00  0.00    -0.150 A  
HETATM   32 CL   UNL     1     -11.513   4.643  73.290  1.00  0.00    -0.394 Cl 
HETATM   33  C   UNL     1      -9.887   2.681  72.362  1.00  0.00    -0.154 A  
HETATM   34  C   UNL     1      -8.670   2.184  71.923  1.00  0.00    -0.099 A  
HETATM   35  F   UNL     1     -10.953   1.870  72.375  1.00  0.00    -0.212 F  
HETATM   36  C   UNL     1      -7.546   3.017  71.908  1.00  0.00    -0.052 A  
ENDBRANCH  27  29
ENDBRANCH  20  27
ENDBRANCH   8  11
ENDBRANCH   6   7
ENDBRANCH   4   5
ENDBRANCH   2   4
TORSDOF 8
ENDMDL
MODEL      175
REMARK 921   NORMALIZED FREE ENERGY PREDICTED BY IDOCK:   -2.65 KCAL/MOL
REMARK 922        TOTAL FREE ENERGY PREDICTED BY IDOCK:   -5.44 KCAL/MOL
REMARK 923 INTER-LIGAND FREE ENERGY PREDICTED BY IDOCK:   -4.18 KCAL/MOL
REMARK 924 INTRA-LIGAND FREE ENERGY PREDICTED BY IDOCK:   -1.26 KCAL/MOL
REMARK 927      BINDING AFFINITY PREDICTED BY RF-SCORE:    0.00 PKD
ROOT
HETATM    1  C   UNL     1      -9.904  13.364  68.438  1.00  0.00    -0.216 C  
HETATM    2  N   UNL     1      -8.757  14.250  68.205  1.00  0.00    -0.167 NA 
HETATM    3  C   UNL     1      -8.965  15.497  68.956  1.00  0.00    -0.237 C  
ENDROOT
BRANCH   2   4
HETATM    4  C   UNL     1      -7.504  13.618  68.653  1.00  0.00    -0.113 C  
BRANCH   4   5
HETATM    5  C   UNL     1      -7.492  12.117  68.718  1.00  0.00    -0.075 C  
HETATM    6  C   UNL     1      -6.739  11.331  69.508  1.00  0.00    -0.128 C  
BRANCH   6   7
HETATM    7  C   UNL     1      -6.877   9.853  69.399  1.00  0.00    -0.060 C  
HETATM    8  N   UNL     1      -8.182   9.433  69.199  1.00  0.00    -0.108 N  
HETATM    9  O   UNL     1      -5.887   9.128  69.409  1.00  0.00    -0.034 OA 
HETATM   10  H   UNL     1      -8.936  10.119  69.247  1.00  0.00     0.000 HD 
BRANCH   8  11
HETATM   11  C   UNL     1      -8.504   8.081  68.931  1.00  0.00    -0.131 A  
HETATM   12  C   UNL     1      -9.160   7.270  69.858  1.00  0.00    -0.141 A  
HETATM   13  N   UNL     1      -8.427   4.246  65.904  1.00  0.00    -0.113 NA 
HETATM   14  C   UNL     1      -9.502   5.958  69.491  1.00  0.00    -0.166 A  
HETATM   15  C   UNL     1      -8.106   7.506  67.710  1.00  0.00    -0.119 A  
HETATM   16  C   UNL     1      -9.175   5.404  68.257  1.00  0.00    -0.111 A  
HETATM   17  C   UNL     1      -8.414   6.163  67.365  1.00  0.00    -0.107 A  
HETATM   18  N   UNL     1      -9.574   4.157  67.987  1.00  0.00    -0.162 NA 
HETATM   19  C   UNL     1      -9.204   3.647  66.808  1.00  0.00    -0.181 A  
HETATM   20  C   UNL     1      -8.015   5.496  66.181  1.00  0.00    -0.105 A  
BRANCH  12  21
HETATM   21  O   UNL     1      -9.383   7.550  71.174  1.00  0.00    -0.151 OA 
BRANCH  21  22
HETATM   22  C   UNL     1      -9.555   6.519  72.141  1.00  0.00    -0.148 C  
HETATM   23  C   UNL     1      -9.354   6.059  74.492  1.00  0.00    -0.169 C  
HETATM   24  C   UNL     1     -10.826   6.854  72.916  1.00  0.00    -0.285 C  
HETATM   25  O   UNL     1     -10.741   6.154  74.155  1.00  0.00    -0.189 OA 
HETATM   26  C   UNL     1      -8.538   6.440  73.263  1.00  0.00    -0.124 C  
ENDBRANCH  21  22
ENDBRANCH  12  21
BRANCH  20  27
HETATM   27  N   UNL     1      -7.153   6.158  65.261  1.00  0.00    -0.063 NA 
HETATM   28  H   UNL     1      -6.323   5.637  64.978  1.00  0.00     0.000 HD 
BRANCH  27  29
HETATM   29  C   UNL     1      -7.298   7.446  64.688  1.00  0.00    -0.082 A  
HETATM   30  C   UNL     1      -6.264   8.396  64.671  1.00  0.00    -0.065 A  
HETATM   31  C   UNL     1      -6.439   9.634  64.048  1.00  0.00    -0.111 A  
HETATM   32 CL   UNL     1      -5.157  10.790  64.094  1.00  0.00    -0.159 Cl 
HETATM   33  C   UNL     1      -7.636   9.931  63.409  1.00  0.00    -0.139 A  
HETATM   34  C   UNL     1      -8.655   8.992  63.367  1.00  0.00    -0.145 A  
HETATM   35  F   UNL     1      -7.818  11.114  62.807  1.00  0.00    -0.084 F  
HETATM   36  C   UNL     1      -8.484   7.754  63.994  1.00  0.00     0.209 A  
ENDBRANCH  27  29
ENDBRANCH  20  27
ENDBRANCH   8  11
ENDBRANCH   6   7
ENDBRANCH   4   5
ENDBRANCH   2   4
TORSDOF 8
ENDMDL
MODEL      176
REMARK 921   NORMALIZED FREE ENERGY PREDICTED BY IDOCK:   -2.49 KCAL/MOL
REMARK 922        TOTAL FREE ENERGY PREDICTED BY IDOCK:   -5.19 KCAL/MOL
REMARK 923 INTER-LIGAND FREE ENERGY PREDICTED BY IDOCK:   -5.17 KCAL/MOL
REMARK 924 INTRA-LIGAND FREE ENERGY PREDICTED BY IDOCK:   -0.02 KCAL/MOL
REMARK 927      BINDING AFFINITY PREDICTED BY RF-SCORE:    0.00 PKD
ROOT
HETATM    1  C   UNL     1     -13.648  11.598  63.578  1.00  0.00     1.259 C  
HETATM    2  N   UNL     1     -12.440  12.058  64.274  1.00  0.00    -0.331 NA 
HETATM    3  C   UNL     1     -11.435  12.440  63.270  1.00  0.00    -0.351 C  
ENDROOT
BRANCH   2   4
HETATM    4  C   UNL     1     -12.735  13.220  65.130  1.00  0.00    -0.402 C  
BRANCH   4   5
HETATM    5  C   UNL     1     -11.554  13.999  65.638  1.00  0.00    -0.332 C  
HETATM    6  C   UNL     1     -11.183  15.247  65.301  1.00  0.00    -0.338 C  
BRANCH   6   7
HETATM    7  C   UNL     1      -9.961  15.829  65.918  1.00  0.00    -0.352 C  
HETATM    8  N   UNL     1     -10.047  15.963  67.294  1.00  0.00    -0.255 N  
HETATM    9  O   UNL     1      -8.968  16.071  65.237  1.00  0.00     0.055 OA 
HETATM   10  H   UNL     1     -10.935  15.767  67.756  1.00  0.00     0.000 HD 
BRANCH   8  11
HETATM   11  C   UNL     1      -8.941  16.364  68.081  1.00  0.00    -0.197 A  
HETATM   12  C   UNL     1      -8.467  17.676  68.092  1.00  0.00    -0.260 A  
HETATM   13  N   UNL     1      -5.398  15.253  71.257  1.00  0.00    -0.092 NA 
HETATM   14  C   UNL     1      -7.405  18.008  68.950  1.00  0.00    -0.249 A  
HETATM   15  C   UNL     1      -8.252  15.403  68.844  1.00  0.00    -0.192 A  
HETATM   16  C   UNL     1      -6.764  17.078  69.762  1.00  0.00     0.070 A  
HETATM   17  C   UNL     1      -7.148  15.738  69.673  1.00  0.00    -0.150 A  
HETATM   18  N   UNL     1      -5.785  17.497  70.570  1.00  0.00    -0.157 NA 
HETATM   19  C   UNL     1      -5.167  16.566  71.303  1.00  0.00    -0.012 A  
HETATM   20  C   UNL     1      -6.375  14.829  70.435  1.00  0.00    -0.135 A  
BRANCH  12  21
HETATM   21  O   UNL     1      -8.815  18.677  67.234  1.00  0.00    -0.269 OA 
BRANCH  21  22
HETATM   22  C   UNL     1      -8.020  19.002  66.099  1.00  0.00    -0.255 C  
HETATM   23  C   UNL     1      -5.921  19.988  65.461  1.00  0.00    -0.189 C  
HETATM   24  C   UNL     1      -6.882  17.986  66.056  1.00  0.00    -0.297 C  
HETATM   25  O   UNL     1      -5.846  18.572  65.272  1.00  0.00    -0.207 OA 
HETATM   26  C   UNL     1      -7.248  20.307  66.140  1.00  0.00    -0.291 C  
ENDBRANCH  21  22
ENDBRANCH  12  21
BRANCH  20  27
HETATM   27  N   UNL     1      -6.629  13.432  70.328  1.00  0.00    -0.365 NA 
HETATM   28  H   UNL     1      -6.756  12.936  71.211  1.00  0.00     0.000 HD 
BRANCH  27  29
HETATM   29  C   UNL     1      -6.729  12.641  69.157  1.00  0.00    -0.086 A  
HETATM   30  C   UNL     1      -7.954  12.184  68.645  1.00  0.00    -0.063 A  
HETATM   31  C   UNL     1      -8.005  11.449  67.457  1.00  0.00    -0.127 A  
HETATM   32 CL   UNL     1      -9.528  10.867  66.891  1.00  0.00    -0.193 Cl 
HETATM   33  C   UNL     1      -6.838  11.185  66.750  1.00  0.00    -0.134 A  
HETATM   34  C   UNL     1      -5.622  11.669  67.206  1.00  0.00    -0.104 A  
HETATM   35  F   UNL     1      -6.872  10.483  65.610  1.00  0.00    -0.118 F  
HETATM   36  C   UNL     1      -5.568  12.399  68.397  1.00  0.00    -0.057 A  
ENDBRANCH  27  29
ENDBRANCH  20  27
ENDBRANCH   8  11
ENDBRANCH   6   7
ENDBRANCH   4   5
ENDBRANCH   2   4
TORSDOF 8
ENDMDL
MODEL      177
REMARK 921   NORMALIZED FREE ENERGY PREDICTED BY IDOCK:   -2.48 KCAL/MOL
REMARK 922        TOTAL FREE ENERGY PREDICTED BY IDOCK:   -5.18 KCAL/MOL
REMARK 923 INTER-LIGAND FREE ENERGY PREDICTED BY IDOCK:   -4.43 KCAL/MOL
REMARK 924 INTRA-LIGAND FREE ENERGY PREDICTED BY IDOCK:   -0.75 KCAL/MOL
REMARK 927      BINDING AFFINITY PREDICTED BY RF-SCORE:    0.00 PKD
ROOT
HETATM    1  C   UNL     1     -10.137   3.770  65.205  1.00  0.00    -0.059 C  
HETATM    2  N   UNL     1      -9.552   4.957  65.841  1.00  0.00    -0.166 NA 
HETATM    3  C   UNL     1      -8.674   4.518  66.937  1.00  0.00    -0.111 C  
ENDROOT
BRANCH   2   4
HETATM    4  C   UNL     1      -8.763   5.738  64.873  1.00  0.00     0.005 C  
BRANCH   4   5
HETATM    5  C   UNL     1      -8.380   7.132  65.286  1.00  0.00    -0.101 C  
HETATM    6  C   UNL     1      -8.893   8.293  64.842  1.00  0.00     0.075 C  
BRANCH   6   7
HETATM    7  C   UNL     1      -8.354   9.572  65.377  1.00  0.00    -0.139 C  
HETATM    8  N   UNL     1      -8.659   9.784  66.712  1.00  0.00    -0.127 N  
HETATM    9  O   UNL     1      -7.643  10.294  64.684  1.00  0.00    -0.146 OA 
HETATM   10  H   UNL     1      -9.292   9.137  67.184  1.00  0.00     0.000 HD 
BRANCH   8  11
HETATM   11  C   UNL     1      -8.122  10.871  67.443  1.00  0.00    -0.114 A  
HETATM   12  C   UNL     1      -8.373  12.200  67.101  1.00  0.00    -0.183 A  
HETATM   13  N   UNL     1      -5.383  12.531  71.133  1.00  0.00    -0.272 NA 
HETATM   14  C   UNL     1      -7.856  13.221  67.916  1.00  0.00    -0.152 A  
HETATM   15  C   UNL     1      -7.258  10.616  68.525  1.00  0.00    -0.086 A  
HETATM   16  C   UNL     1      -7.059  12.975  69.030  1.00  0.00    -0.026 A  
HETATM   17  C   UNL     1      -6.700  11.656  69.315  1.00  0.00    -0.115 A  
HETATM   18  N   UNL     1      -6.643  14.013  69.763  1.00  0.00    -0.113 NA 
HETATM   19  C   UNL     1      -5.846  13.737  70.799  1.00  0.00    -0.188 A  
HETATM   20  C   UNL     1      -5.791  11.488  70.388  1.00  0.00    -0.155 A  
BRANCH  12  21
HETATM   21  O   UNL     1      -8.948  12.652  65.950  1.00  0.00     0.084 OA 
BRANCH  21  22
HETATM   22  C   UNL     1     -10.283  13.146  65.922  1.00  0.00    -0.291 C  
HETATM   23  C   UNL     1     -11.758  14.712  66.995  1.00  0.00    -0.362 C  
HETATM   24  C   UNL     1     -10.223  14.535  65.294  1.00  0.00    -0.402 C  
HETATM   25  O   UNL     1     -11.406  15.217  65.703  1.00  0.00    -0.332 OA 
HETATM   26  C   UNL     1     -10.939  13.454  67.254  1.00  0.00    -0.286 C  
ENDBRANCH  21  22
ENDBRANCH  12  21
BRANCH  20  27
HETATM   27  N   UNL     1      -5.292  10.189  70.686  1.00  0.00    -0.052 NA 
HETATM   28  H   UNL     1      -4.442   9.916  70.192  1.00  0.00     0.000 HD 
BRANCH  27  29
HETATM   29  C   UNL     1      -5.822   9.224  71.579  1.00  0.00    -0.074 A  
HETATM   30  C   UNL     1      -6.659   8.177  71.164  1.00  0.00    -0.043 A  
HETATM   31  C   UNL     1      -7.115   7.220  72.074  1.00  0.00    -0.067 A  
HETATM   32 CL   UNL     1      -8.183   5.978  71.529  1.00  0.00    -0.121 Cl 
HETATM   33  C   UNL     1      -6.718   7.278  73.404  1.00  0.00    -0.065 A  
HETATM   34  C   UNL     1      -5.850   8.271  73.830  1.00  0.00    -0.096 A  
HETATM   35  F   UNL     1      -7.146   6.367  74.288  1.00  0.00    -0.087 F  
HETATM   36  C   UNL     1      -5.397   9.233  72.921  1.00  0.00    -0.069 A  
ENDBRANCH  27  29
ENDBRANCH  20  27
ENDBRANCH   8  11
ENDBRANCH   6   7
ENDBRANCH   4   5
ENDBRANCH   2   4
TORSDOF 8
ENDMDL
MODEL      178
REMARK 921   NORMALIZED FREE ENERGY PREDICTED BY IDOCK:   -2.41 KCAL/MOL
REMARK 922        TOTAL FREE ENERGY PREDICTED BY IDOCK:   -5.08 KCAL/MOL
REMARK 923 INTER-LIGAND FREE ENERGY PREDICTED BY IDOCK:   -4.37 KCAL/MOL
REMARK 924 INTRA-LIGAND FREE ENERGY PREDICTED BY IDOCK:   -0.70 KCAL/MOL
REMARK 927      BINDING AFFINITY PREDICTED BY RF-SCORE:    0.00 PKD
ROOT
HETATM    1  C   UNL     1      -9.517  12.218  68.131  1.00  0.00    -0.213 C  
HETATM    2  N   UNL     1      -8.328  13.080  68.158  1.00  0.00    -0.158 NA 
HETATM    3  C   UNL     1      -8.703  14.380  68.733  1.00  0.00    -0.129 C  
ENDROOT
BRANCH   2   4
HETATM    4  C   UNL     1      -7.261  12.479  68.975  1.00  0.00     0.002 C  
BRANCH   4   5
HETATM    5  C   UNL     1      -7.318  10.990  69.168  1.00  0.00    -0.121 C  
HETATM    6  C   UNL     1      -6.899  10.279  70.230  1.00  0.00    -0.145 C  
BRANCH   6   7
HETATM    7  C   UNL     1      -7.038   8.798  70.208  1.00  0.00    -0.045 C  
HETATM    8  N   UNL     1      -8.277   8.365  69.764  1.00  0.00    -0.117 N  
HETATM    9  O   UNL     1      -6.086   8.074  70.488  1.00  0.00    -0.033 OA 
HETATM   10  H   UNL     1      -9.010   9.054  69.594  1.00  0.00     0.000 HD 
BRANCH   8  11
HETATM   11  C   UNL     1      -8.558   6.997  69.537  1.00  0.00    -0.134 A  
HETATM   12  C   UNL     1      -9.281   6.221  70.445  1.00  0.00    -0.154 A  
HETATM   13  N   UNL     1      -8.180   3.021  66.723  1.00  0.00    -0.087 NA 
HETATM   14  C   UNL     1      -9.575   4.887  70.116  1.00  0.00    -0.263 A  
HETATM   15  C   UNL     1      -8.052   6.369  68.384  1.00  0.00    -0.113 A  
HETATM   16  C   UNL     1      -9.138   4.279  68.943  1.00  0.00    -0.128 A  
HETATM   17  C   UNL     1      -8.313   5.006  68.082  1.00  0.00    -0.096 A  
HETATM   18  N   UNL     1      -9.498   3.014  68.703  1.00  0.00    -0.171 NA 
HETATM   19  C   UNL     1      -9.024   2.454  67.586  1.00  0.00    -0.154 A  
HETATM   20  C   UNL     1      -7.807   4.289  66.970  1.00  0.00    -0.097 A  
BRANCH  12  21
HETATM   21  O   UNL     1      -9.618   6.561  71.722  1.00  0.00    -0.154 OA 
BRANCH  21  22
HETATM   22  C   UNL     1     -10.895   7.101  72.042  1.00  0.00    -0.222 C  
HETATM   23  C   UNL     1     -13.148   7.283  71.221  1.00  0.00    -0.307 C  
HETATM   24  C   UNL     1     -11.773   5.927  72.468  1.00  0.00    -0.236 C  
HETATM   25  O   UNL     1     -13.124   6.353  72.308  1.00  0.00    -0.066 OA 
HETATM   26  C   UNL     1     -11.711   7.680  70.903  1.00  0.00    -0.291 C  
ENDBRANCH  21  22
ENDBRANCH  12  21
BRANCH  20  27
HETATM   27  N   UNL     1      -6.879   4.920  66.094  1.00  0.00    -0.057 NA 
HETATM   28  H   UNL     1      -5.926   4.554  66.120  1.00  0.00     0.000 HD 
BRANCH  27  29
HETATM   29  C   UNL     1      -7.104   5.988  65.191  1.00  0.00    -0.064 A  
HETATM   30  C   UNL     1      -8.070   6.983  65.409  1.00  0.00    -0.133 A  
HETATM   31  C   UNL     1      -8.220   8.045  64.514  1.00  0.00    -0.094 A  
HETATM   32 CL   UNL     1      -9.454   9.219  64.797  1.00  0.00    -0.108 Cl 
HETATM   33  C   UNL     1      -7.389   8.144  63.405  1.00  0.00    -0.103 A  
HETATM   34  C   UNL     1      -6.393   7.204  63.193  1.00  0.00    -0.052 A  
HETATM   35  F   UNL     1      -7.520   9.157  62.538  1.00  0.00    -0.103 F  
HETATM   36  C   UNL     1      -6.245   6.137  64.085  1.00  0.00    -0.029 A  
ENDBRANCH  27  29
ENDBRANCH  20  27
ENDBRANCH   8  11
ENDBRANCH   6   7
ENDBRANCH   4   5
ENDBRANCH   2   4
TORSDOF 8
ENDMDL
MODEL      179
REMARK 921   NORMALIZED FREE ENERGY PREDICTED BY IDOCK:   -2.38 KCAL/MOL
REMARK 922        TOTAL FREE ENERGY PREDICTED BY IDOCK:   -5.04 KCAL/MOL
REMARK 923 INTER-LIGAND FREE ENERGY PREDICTED BY IDOCK:   -4.11 KCAL/MOL
REMARK 924 INTRA-LIGAND FREE ENERGY PREDICTED BY IDOCK:   -0.93 KCAL/MOL
REMARK 927      BINDING AFFINITY PREDICTED BY RF-SCORE:    0.00 PKD
ROOT
HETATM    1  C   UNL     1     -10.007   1.589  63.668  1.00  0.00    -0.130 C  
HETATM    2  N   UNL     1     -10.369   2.852  63.012  1.00  0.00    -0.140 NA 
HETATM    3  C   UNL     1     -11.020   3.726  64.000  1.00  0.00    -0.054 C  
ENDROOT
BRANCH   2   4
HETATM    4  C   UNL     1      -9.175   3.530  62.479  1.00  0.00    -0.090 C  
BRANCH   4   5
HETATM    5  C   UNL     1      -8.541   4.568  63.362  1.00  0.00    -0.118 C  
HETATM    6  C   UNL     1      -7.922   4.381  64.541  1.00  0.00    -0.091 C  
BRANCH   6   7
HETATM    7  C   UNL     1      -7.372   5.560  65.263  1.00  0.00    -0.072 C  
HETATM    8  N   UNL     1      -7.851   5.688  66.557  1.00  0.00    -0.100 N  
HETATM    9  O   UNL     1      -6.516   6.271  64.745  1.00  0.00    -0.033 OA 
HETATM   10  H   UNL     1      -8.592   5.063  66.875  1.00  0.00     0.000 HD 
BRANCH   8  11
HETATM   11  C   UNL     1      -7.345   6.660  67.453  1.00  0.00    -0.095 A  
HETATM   12  C   UNL     1      -6.234   6.424  68.264  1.00  0.00    -0.036 A  
HETATM   13  N   UNL     1      -7.612  11.118  69.435  1.00  0.00    -0.067 NA 
HETATM   14  C   UNL     1      -5.754   7.462  69.079  1.00  0.00    -0.019 A  
HETATM   15  C   UNL     1      -8.008   7.895  67.580  1.00  0.00    -0.123 A  
HETATM   16  C   UNL     1      -6.362   8.711  69.156  1.00  0.00    -0.043 A  
HETATM   17  C   UNL     1      -7.544   8.923  68.442  1.00  0.00    -0.091 A  
HETATM   18  N   UNL     1      -5.810   9.647  69.935  1.00  0.00    -0.039 NA 
HETATM   19  C   UNL     1      -6.448  10.819  70.014  1.00  0.00    -0.151 A  
HETATM   20  C   UNL     1      -8.174  10.172  68.661  1.00  0.00    -0.111 A  
BRANCH  12  21
HETATM   21  O   UNL     1      -5.627   5.222  68.488  1.00  0.00    -0.013 OA 
BRANCH  21  22
HETATM   22  C   UNL     1      -5.953   4.416  69.615  1.00  0.00    -0.018 C  
HETATM   23  C   UNL     1      -7.614   2.892  70.452  1.00  0.00    -0.043 C  
HETATM   24  C   UNL     1      -5.679   2.970  69.213  1.00  0.00    -0.022 C  
HETATM   25  O   UNL     1      -6.441   2.152  70.098  1.00  0.00    -0.027 OA 
HETATM   26  C   UNL     1      -7.413   4.339  70.016  1.00  0.00    -0.049 C  
ENDBRANCH  21  22
ENDBRANCH  12  21
BRANCH  20  27
HETATM   27  N   UNL     1      -9.434  10.437  68.053  1.00  0.00    -0.142 NA 
HETATM   28  H   UNL     1      -9.993   9.616  67.817  1.00  0.00     0.000 HD 
BRANCH  27  29
HETATM   29  C   UNL     1     -10.013  11.690  67.733  1.00  0.00    -0.181 A  
HETATM   30  C   UNL     1     -10.684  12.485  68.675  1.00  0.00    -0.263 A  
HETATM   31  C   UNL     1     -11.194  13.737  68.323  1.00  0.00    -0.273 A  
HETATM   32 CL   UNL     1     -12.055  14.659  69.502  1.00  0.00    -0.344 Cl 
HETATM   33  C   UNL     1     -11.016  14.225  67.035  1.00  0.00    -0.303 A  
HETATM   34  C   UNL     1     -10.312  13.484  66.099  1.00  0.00    -0.296 A  
HETATM   35  F   UNL     1     -11.499  15.424  66.683  1.00  0.00    -0.292 F  
HETATM   36  C   UNL     1      -9.806  12.227  66.448  1.00  0.00    -0.242 A  
ENDBRANCH  27  29
ENDBRANCH  20  27
ENDBRANCH   8  11
ENDBRANCH   6   7
ENDBRANCH   4   5
ENDBRANCH   2   4
TORSDOF 8
ENDMDL
MODEL      180
REMARK 921   NORMALIZED FREE ENERGY PREDICTED BY IDOCK:   -2.20 KCAL/MOL
REMARK 922        TOTAL FREE ENERGY PREDICTED BY IDOCK:   -4.77 KCAL/MOL
REMARK 923 INTER-LIGAND FREE ENERGY PREDICTED BY IDOCK:   -4.07 KCAL/MOL
REMARK 924 INTRA-LIGAND FREE ENERGY PREDICTED BY IDOCK:   -0.70 KCAL/MOL
REMARK 927      BINDING AFFINITY PREDICTED BY RF-SCORE:    0.00 PKD
ROOT
HETATM    1  C   UNL     1     -10.284   1.468  63.630  1.00  0.00    -0.118 C  
HETATM    2  N   UNL     1     -10.100   2.670  62.806  1.00  0.00    -0.097 NA 
HETATM    3  C   UNL     1     -10.872   3.771  63.401  1.00  0.00    -0.134 C  
ENDROOT
BRANCH   2   4
HETATM    4  C   UNL     1      -8.679   3.054  62.744  1.00  0.00    -0.085 C  
BRANCH   4   5
HETATM    5  C   UNL     1      -8.141   3.831  63.913  1.00  0.00    -0.089 C  
HETATM    6  C   UNL     1      -7.855   3.375  65.145  1.00  0.00    -0.082 C  
BRANCH   6   7
HETATM    7  C   UNL     1      -7.340   4.327  66.166  1.00  0.00    -0.076 C  
HETATM    8  N   UNL     1      -8.201   4.508  67.237  1.00  0.00    -0.101 N  
HETATM    9  O   UNL     1      -6.218   4.813  66.062  1.00  0.00    -0.033 OA 
HETATM   10  H   UNL     1      -9.129   4.085  67.203  1.00  0.00     0.000 HD 
BRANCH   8  11
HETATM   11  C   UNL     1      -7.835   5.263  68.377  1.00  0.00    -0.087 A  
HETATM   12  C   UNL     1      -7.055   4.733  69.406  1.00  0.00    -0.051 A  
HETATM   13  N   UNL     1      -7.985   9.449  70.893  1.00  0.00    -0.301 NA 
HETATM   14  C   UNL     1      -6.680   5.567  70.472  1.00  0.00    -0.047 A  
HETATM   15  C   UNL     1      -8.311   6.580  68.515  1.00  0.00    -0.121 A  
HETATM   16  C   UNL     1      -7.088   6.893  70.581  1.00  0.00    -0.068 A  
HETATM   17  C   UNL     1      -7.966   7.402  69.621  1.00  0.00    -0.126 A  
HETATM   18  N   UNL     1      -6.650   7.617  71.616  1.00  0.00    -0.042 NA 
HETATM   19  C   UNL     1      -7.098   8.873  71.706  1.00  0.00    -0.004 A  
HETATM   20  C   UNL     1      -8.435   8.717  69.858  1.00  0.00    -0.129 A  
BRANCH  12  21
HETATM   21  O   UNL     1      -6.729   3.422  69.591  1.00  0.00    -0.033 OA 
BRANCH  21  22
HETATM   22  C   UNL     1      -7.589   2.526  70.286  1.00  0.00    -0.043 C  
HETATM   23  C   UNL     1      -9.813   2.326  71.178  1.00  0.00    -0.036 C  
HETATM   24  C   UNL     1      -8.587   1.994  69.262  1.00  0.00    -0.060 C  
HETATM   25  O   UNL     1      -9.711   1.520  70.000  1.00  0.00    -0.060 OA 
HETATM   26  C   UNL     1      -8.521   3.120  71.324  1.00  0.00    -0.093 C  
ENDBRANCH  21  22
ENDBRANCH  12  21
BRANCH  20  27
HETATM   27  N   UNL     1      -9.410   9.280  68.987  1.00  0.00    -0.149 NA 
HETATM   28  H   UNL     1     -10.253   8.722  68.846  1.00  0.00     0.000 HD 
BRANCH  27  29
HETATM   29  C   UNL     1      -9.363  10.513  68.290  1.00  0.00    -0.156 A  
HETATM   30  C   UNL     1     -10.504  11.291  68.036  1.00  0.00    -0.215 A  
HETATM   31  C   UNL     1     -10.399  12.526  67.389  1.00  0.00    -0.216 A  
HETATM   32 CL   UNL     1     -11.834  13.426  67.054  1.00  0.00    -0.428 Cl 
HETATM   33  C   UNL     1      -9.153  13.013  67.014  1.00  0.00    -0.230 A  
HETATM   34  C   UNL     1      -8.006  12.289  67.299  1.00  0.00    -0.177 A  
HETATM   35  F   UNL     1      -9.038  14.195  66.394  1.00  0.00    -0.266 F  
HETATM   36  C   UNL     1      -8.109  11.051  67.941  1.00  0.00    -0.114 A  
ENDBRANCH  27  29
ENDBRANCH  20  27
ENDBRANCH   8  11
ENDBRANCH   6   7
ENDBRANCH   4   5
ENDBRANCH   2   4
TORSDOF 8
ENDMDL
MODEL      181
REMARK 921   NORMALIZED FREE ENERGY PREDICTED BY IDOCK:   -2.09 KCAL/MOL
REMARK 922        TOTAL FREE ENERGY PREDICTED BY IDOCK:   -4.61 KCAL/MOL
REMARK 923 INTER-LIGAND FREE ENERGY PREDICTED BY IDOCK:   -4.35 KCAL/MOL
REMARK 924 INTRA-LIGAND FREE ENERGY PREDICTED BY IDOCK:   -0.26 KCAL/MOL
REMARK 927      BINDING AFFINITY PREDICTED BY RF-SCORE:    0.00 PKD
ROOT
HETATM    1  C   UNL     1      -9.566   1.504  63.483  1.00  0.00    -0.110 C  
HETATM    2  N   UNL     1      -9.851   2.775  62.806  1.00  0.00    -0.092 NA 
HETATM    3  C   UNL     1     -10.966   3.438  63.499  1.00  0.00    -0.104 C  
ENDROOT
BRANCH   2   4
HETATM    4  C   UNL     1      -8.674   3.660  62.828  1.00  0.00    -0.090 C  
BRANCH   4   5
HETATM    5  C   UNL     1      -8.489   4.504  64.058  1.00  0.00    -0.121 C  
HETATM    6  C   UNL     1      -7.864   4.171  65.201  1.00  0.00    -0.089 C  
BRANCH   6   7
HETATM    7  C   UNL     1      -7.809   5.162  66.310  1.00  0.00    -0.103 C  
HETATM    8  N   UNL     1      -8.547   4.789  67.421  1.00  0.00    -0.104 N  
HETATM    9  O   UNL     1      -7.095   6.157  66.227  1.00  0.00    -0.065 OA 
HETATM   10  H   UNL     1      -9.136   3.958  67.368  1.00  0.00     0.000 HD 
BRANCH   8  11
HETATM   11  C   UNL     1      -8.511   5.525  68.629  1.00  0.00    -0.104 A  
HETATM   12  C   UNL     1      -7.773   5.108  69.738  1.00  0.00    -0.071 A  
HETATM   13  N   UNL     1      -9.920   9.397  71.256  1.00  0.00    -0.261 NA 
HETATM   14  C   UNL     1      -7.736   5.929  70.878  1.00  0.00    -0.098 A  
HETATM   15  C   UNL     1      -9.284   6.695  68.749  1.00  0.00    -0.129 A  
HETATM   16  C   UNL     1      -8.441   7.124  70.978  1.00  0.00    -0.129 A  
HETATM   17  C   UNL     1      -9.278   7.495  69.923  1.00  0.00    -0.147 A  
HETATM   18  N   UNL     1      -8.315   7.853  72.091  1.00  0.00    -0.120 NA 
HETATM   19  C   UNL     1      -9.041   8.973  72.164  1.00  0.00     0.208 A  
HETATM   20  C   UNL     1     -10.057   8.657  70.141  1.00  0.00    -0.185 A  
BRANCH  12  21
HETATM   21  O   UNL     1      -7.188   3.889  69.917  1.00  0.00    -0.042 OA 
BRANCH  21  22
HETATM   22  C   UNL     1      -7.920   2.771  70.405  1.00  0.00    -0.042 C  
HETATM   23  C   UNL     1      -9.318   2.054  72.226  1.00  0.00    -0.086 C  
HETATM   24  C   UNL     1      -9.396   3.076  70.168  1.00  0.00    -0.158 C  
HETATM   25  O   UNL     1     -10.130   2.245  71.064  1.00  0.00     0.032 OA 
HETATM   26  C   UNL     1      -7.906   2.528  71.902  1.00  0.00    -0.052 C  
ENDBRANCH  21  22
ENDBRANCH  12  21
BRANCH  20  27
HETATM   27  N   UNL     1     -11.012   9.054  69.162  1.00  0.00    -0.426 NA 
HETATM   28  H   UNL     1     -11.989   8.874  69.397  1.00  0.00     0.000 HD 
BRANCH  27  29
HETATM   29  C   UNL     1     -10.784   9.666  67.904  1.00  0.00    -0.247 A  
HETATM   30  C   UNL     1      -9.906   9.138  66.945  1.00  0.00    -0.280 A  
HETATM   31  C   UNL     1      -9.752   9.751  65.699  1.00  0.00    -0.288 A  
HETATM   32 CL   UNL     1      -8.625   9.094  64.569  1.00  0.00    -0.198 Cl 
HETATM   33  C   UNL     1     -10.495  10.882  65.382  1.00  0.00    -0.223 A  
HETATM   34  C   UNL     1     -11.407  11.394  66.291  1.00  0.00    -0.140 A  
HETATM   35  F   UNL     1     -10.360  11.479  64.191  1.00  0.00    -0.274 F  
HETATM   36  C   UNL     1     -11.558  10.785  67.541  1.00  0.00    -0.011 A  
ENDBRANCH  27  29
ENDBRANCH  20  27
ENDBRANCH   8  11
ENDBRANCH   6   7
ENDBRANCH   4   5
ENDBRANCH   2   4
TORSDOF 8
ENDMDL
MODEL      182
REMARK 921   NORMALIZED FREE ENERGY PREDICTED BY IDOCK:   -2.02 KCAL/MOL
REMARK 922        TOTAL FREE ENERGY PREDICTED BY IDOCK:   -4.51 KCAL/MOL
REMARK 923 INTER-LIGAND FREE ENERGY PREDICTED BY IDOCK:   -5.06 KCAL/MOL
REMARK 924 INTRA-LIGAND FREE ENERGY PREDICTED BY IDOCK:    0.55 KCAL/MOL
REMARK 927      BINDING AFFINITY PREDICTED BY RF-SCORE:    0.00 PKD
ROOT
HETATM    1  C   UNL     1      -6.244   3.355  71.455  1.00  0.00    -0.015 C  
HETATM    2  N   UNL     1      -7.356   4.234  71.071  1.00  0.00    -0.043 NA 
HETATM    3  C   UNL     1      -8.363   4.214  72.142  1.00  0.00    -0.102 C  
ENDROOT
BRANCH   2   4
HETATM    4  C   UNL     1      -6.890   5.617  70.871  1.00  0.00    -0.057 C  
BRANCH   4   5
HETATM    5  C   UNL     1      -7.678   6.461  69.909  1.00  0.00    -0.109 C  
HETATM    6  C   UNL     1      -8.970   6.824  69.998  1.00  0.00    -0.141 C  
BRANCH   6   7
HETATM    7  C   UNL     1      -9.561   7.659  68.917  1.00  0.00    -0.150 C  
HETATM    8  N   UNL     1      -8.625   8.409  68.223  1.00  0.00    -0.138 N  
HETATM    9  O   UNL     1     -10.758   7.589  68.654  1.00  0.00    -0.171 OA 
HETATM   10  H   UNL     1      -7.659   8.422  68.552  1.00  0.00     0.000 HD 
BRANCH   8  11
HETATM   11  C   UNL     1      -8.966   9.157  67.071  1.00  0.00    -0.123 A  
HETATM   12  C   UNL     1     -10.070  10.010  67.033  1.00  0.00    -0.219 A  
HETATM   13  N   UNL     1      -8.062  10.418  62.438  1.00  0.00    -0.155 NA 
HETATM   14  C   UNL     1     -10.303  10.768  65.874  1.00  0.00    -0.302 A  
HETATM   15  C   UNL     1      -8.203   9.006  65.899  1.00  0.00    -0.118 A  
HETATM   16  C   UNL     1      -9.511  10.677  64.733  1.00  0.00    -0.256 A  
HETATM   17  C   UNL     1      -8.475   9.741  64.714  1.00  0.00    -0.172 A  
HETATM   18  N   UNL     1      -9.793  11.466  63.691  1.00  0.00    -0.314 NA 
HETATM   19  C   UNL     1      -9.034  11.318  62.601  1.00  0.00    -0.265 A  
HETATM   20  C   UNL     1      -7.787   9.616  63.482  1.00  0.00    -0.136 A  
BRANCH  12  21
HETATM   21  O   UNL     1     -11.074  10.088  67.954  1.00  0.00    -0.275 OA 
BRANCH  21  22
HETATM   22  C   UNL     1     -11.616  11.337  68.367  1.00  0.00    -0.308 C  
HETATM   23  C   UNL     1     -11.551  12.945  70.154  1.00  0.00    -0.054 C  
HETATM   24  C   UNL     1     -10.513  12.376  68.184  1.00  0.00    -0.219 C  
HETATM   25  O   UNL     1     -10.848  13.476  69.026  1.00  0.00    -0.246 OA 
HETATM   26  C   UNL     1     -11.935  11.504  69.840  1.00  0.00    -0.426 C  
ENDBRANCH  21  22
ENDBRANCH  12  21
BRANCH  20  27
HETATM   27  N   UNL     1      -6.782   8.617  63.339  1.00  0.00    -0.089 NA 
HETATM   28  H   UNL     1      -5.832   8.961  63.201  1.00  0.00     0.000 HD 
BRANCH  27  29
HETATM   29  C   UNL     1      -6.930   7.208  63.363  1.00  0.00    -0.062 A  
HETATM   30  C   UNL     1      -8.122   6.559  63.005  1.00  0.00    -0.047 A  
HETATM   31  C   UNL     1      -8.203   5.164  62.996  1.00  0.00    -0.109 A  
HETATM   32 CL   UNL     1      -9.703   4.408  62.595  1.00  0.00    -0.118 Cl 
HETATM   33  C   UNL     1      -7.088   4.398  63.316  1.00  0.00    -0.044 A  
HETATM   34  C   UNL     1      -5.885   5.014  63.624  1.00  0.00    -0.017 A  
HETATM   35  F   UNL     1      -7.150   3.060  63.311  1.00  0.00    -0.039 F  
HETATM   36  C   UNL     1      -5.804   6.410  63.639  1.00  0.00    -0.023 A  
ENDBRANCH  27  29
ENDBRANCH  20  27
ENDBRANCH   8  11
ENDBRANCH   6   7
ENDBRANCH   4   5
ENDBRANCH   2   4
TORSDOF 8
ENDMDL
MODEL      183
REMARK 921   NORMALIZED FREE ENERGY PREDICTED BY IDOCK:   -1.91 KCAL/MOL
REMARK 922        TOTAL FREE ENERGY PREDICTED BY IDOCK:   -4.35 KCAL/MOL
REMARK 923 INTER-LIGAND FREE ENERGY PREDICTED BY IDOCK:   -6.51 KCAL/MOL
REMARK 924 INTRA-LIGAND FREE ENERGY PREDICTED BY IDOCK:    2.16 KCAL/MOL
REMARK 927      BINDING AFFINITY PREDICTED BY RF-SCORE:    0.00 PKD
ROOT
HETATM    1  C   UNL     1     -12.828  14.722  72.104  1.00  0.00    -0.331 C  
HETATM    2  N   UNL     1     -13.135  13.713  71.082  1.00  0.00    -0.275 NA 
HETATM    3  C   UNL     1     -12.133  13.813  70.009  1.00  0.00    -0.349 C  
ENDROOT
BRANCH   2   4
HETATM    4  C   UNL     1     -13.098  12.356  71.652  1.00  0.00    -0.307 C  
BRANCH   4   5
HETATM    5  C   UNL     1     -12.522  11.275  70.782  1.00  0.00    -0.471 C  
HETATM    6  C   UNL     1     -11.680  11.414  69.743  1.00  0.00    -0.418 C  
BRANCH   6   7
HETATM    7  C   UNL     1     -11.241  10.201  69.002  1.00  0.00    -0.173 C  
HETATM    8  N   UNL     1     -10.966   9.120  69.824  1.00  0.00    -0.334 N  
HETATM    9  O   UNL     1     -11.221  10.188  67.775  1.00  0.00    -0.289 OA 
HETATM   10  H   UNL     1     -10.978   9.253  70.836  1.00  0.00     0.000 HD 
BRANCH   8  11
HETATM   11  C   UNL     1     -10.671   7.837  69.306  1.00  0.00    -0.147 A  
HETATM   12  C   UNL     1     -10.593   6.702  70.115  1.00  0.00    -0.221 A  
HETATM   13  N   UNL     1      -9.604   4.968  65.498  1.00  0.00    -0.130 NA 
HETATM   14  C   UNL     1     -10.360   5.454  69.515  1.00  0.00    -0.350 A  
HETATM   15  C   UNL     1     -10.390   7.694  67.934  1.00  0.00    -0.270 A  
HETATM   16  C   UNL     1     -10.152   5.294  68.148  1.00  0.00    -0.151 A  
HETATM   17  C   UNL     1     -10.107   6.434  67.342  1.00  0.00    -0.198 A  
HETATM   18  N   UNL     1      -9.971   4.060  67.666  1.00  0.00    -0.034 NA 
HETATM   19  C   UNL     1      -9.734   3.954  66.355  1.00  0.00    -0.162 A  
HETATM   20  C   UNL     1      -9.773   6.210  65.985  1.00  0.00     0.087 A  
BRANCH  12  21
HETATM   21  O   UNL     1     -10.562   6.673  71.478  1.00  0.00    -0.218 OA 
BRANCH  21  22
HETATM   22  C   UNL     1     -11.702   7.008  72.262  1.00  0.00    -0.255 C  
HETATM   23  C   UNL     1     -13.341   8.735  72.600  1.00  0.00    -0.286 C  
HETATM   24  C   UNL     1     -12.919   6.849  71.356  1.00  0.00    -0.280 C  
HETATM   25  O   UNL     1     -13.961   7.629  71.936  1.00  0.00    -0.340 OA 
HETATM   26  C   UNL     1     -11.846   8.453  72.697  1.00  0.00    -0.360 C  
ENDBRANCH  21  22
ENDBRANCH  12  21
BRANCH  20  27
HETATM   27  N   UNL     1      -9.605   7.322  65.112  1.00  0.00     0.620 NA 
HETATM   28  H   UNL     1     -10.363   7.482  64.447  1.00  0.00     0.000 HD 
BRANCH  27  29
HETATM   29  C   UNL     1      -8.525   8.237  65.046  1.00  0.00    -0.123 A  
HETATM   30  C   UNL     1      -8.193   9.105  66.098  1.00  0.00    -0.111 A  
HETATM   31  C   UNL     1      -7.087   9.953  66.005  1.00  0.00    -0.105 A  
HETATM   32 CL   UNL     1      -6.745  11.039  67.303  1.00  0.00    -0.080 Cl 
HETATM   33  C   UNL     1      -6.280   9.926  64.874  1.00  0.00    -0.105 A  
HETATM   34  C   UNL     1      -6.554   9.041  63.843  1.00  0.00    -0.088 A  
HETATM   35  F   UNL     1      -5.215  10.732  64.771  1.00  0.00    -0.121 F  
HETATM   36  C   UNL     1      -7.665   8.195  63.932  1.00  0.00    -0.138 A  
ENDBRANCH  27  29
ENDBRANCH  20  27
ENDBRANCH   8  11
ENDBRANCH   6   7
ENDBRANCH   4   5
ENDBRANCH   2   4
TORSDOF 8
ENDMDL
MODEL      184
REMARK 921   NORMALIZED FREE ENERGY PREDICTED BY IDOCK:   -1.88 KCAL/MOL
REMARK 922        TOTAL FREE ENERGY PREDICTED BY IDOCK:   -4.30 KCAL/MOL
REMARK 923 INTER-LIGAND FREE ENERGY PREDICTED BY IDOCK:   -4.53 KCAL/MOL
REMARK 924 INTRA-LIGAND FREE ENERGY PREDICTED BY IDOCK:    0.23 KCAL/MOL
REMARK 927      BINDING AFFINITY PREDICTED BY RF-SCORE:    0.00 PKD
ROOT
HETATM    1  C   UNL     1     -11.452  19.971  66.609  1.00  0.00     1.040 C  
HETATM    2  N   UNL     1     -10.633  19.398  65.534  1.00  0.00    -0.480 NA 
HETATM    3  C   UNL     1      -9.216  19.507  65.913  1.00  0.00    -0.071 C  
ENDROOT
BRANCH   2   4
HETATM    4  C   UNL     1     -10.966  17.980  65.315  1.00  0.00     0.533 C  
BRANCH   4   5
HETATM    5  C   UNL     1     -10.342  16.989  66.257  1.00  0.00    -0.309 C  
HETATM    6  C   UNL     1     -10.518  16.892  67.587  1.00  0.00    -0.332 C  
BRANCH   6   7
HETATM    7  C   UNL     1      -9.785  15.836  68.338  1.00  0.00    -0.203 C  
HETATM    8  N   UNL     1      -8.407  15.949  68.247  1.00  0.00    -0.161 N  
HETATM    9  O   UNL     1     -10.392  15.018  69.023  1.00  0.00    -0.228 OA 
HETATM   10  H   UNL     1      -8.008  16.645  67.617  1.00  0.00     0.000 HD 
BRANCH   8  11
HETATM   11  C   UNL     1      -7.535  15.129  69.002  1.00  0.00    -0.161 A  
HETATM   12  C   UNL     1      -6.594  15.654  69.888  1.00  0.00    -0.117 A  
HETATM   13  N   UNL     1      -5.924  10.679  70.216  1.00  0.00    -0.097 NA 
HETATM   14  C   UNL     1      -5.809  14.771  70.649  1.00  0.00    -0.149 A  
HETATM   15  C   UNL     1      -7.571  13.734  68.822  1.00  0.00    -0.099 A  
HETATM   16  C   UNL     1      -5.889  13.387  70.529  1.00  0.00    -0.159 A  
HETATM   17  C   UNL     1      -6.741  12.849  69.561  1.00  0.00     0.031 A  
HETATM   18  N   UNL     1      -5.125  12.628  71.321  1.00  0.00    -0.155 NA 
HETATM   19  C   UNL     1      -5.202  11.306  71.146  1.00  0.00    -0.096 A  
HETATM   20  C   UNL     1      -6.683  11.442  69.410  1.00  0.00    -0.122 A  
BRANCH  12  21
HETATM   21  O   UNL     1      -6.219  16.961  70.001  1.00  0.00    -0.212 OA 
BRANCH  21  22
HETATM   22  C   UNL     1      -6.585  17.933  69.028  1.00  0.00    -0.247 C  
HETATM   23  C   UNL     1      -6.682  20.305  68.647  1.00  0.00    -0.259 C  
HETATM   24  C   UNL     1      -5.285  18.490  68.455  1.00  0.00    -0.173 C  
HETATM   25  O   UNL     1      -5.604  19.755  67.882  1.00  0.00    -0.197 OA 
HETATM   26  C   UNL     1      -7.253  19.199  69.527  1.00  0.00    -0.126 C  
ENDBRANCH  21  22
ENDBRANCH  12  21
BRANCH  20  27
HETATM   27  N   UNL     1      -7.441  10.817  68.380  1.00  0.00    -0.091 NA 
HETATM   28  H   UNL     1      -7.010  10.000  67.945  1.00  0.00     0.000 HD 
BRANCH  27  29
HETATM   29  C   UNL     1      -8.716  11.180  67.878  1.00  0.00    -0.136 A  
HETATM   30  C   UNL     1      -8.890  11.989  66.745  1.00  0.00    -0.198 A  
HETATM   31  C   UNL     1     -10.168  12.277  66.259  1.00  0.00    -0.229 A  
HETATM   32 CL   UNL     1     -10.335  13.317  64.891  1.00  0.00    -0.364 Cl 
HETATM   33  C   UNL     1     -11.288  11.739  66.880  1.00  0.00    -0.320 A  
HETATM   34  C   UNL     1     -11.142  10.895  67.970  1.00  0.00    -0.351 A  
HETATM   35  F   UNL     1     -12.519  12.006  66.426  1.00  0.00    -0.115 F  
HETATM   36  C   UNL     1      -9.864  10.609  68.461  1.00  0.00    -0.175 A  
ENDBRANCH  27  29
ENDBRANCH  20  27
ENDBRANCH   8  11
ENDBRANCH   6   7
ENDBRANCH   4   5
ENDBRANCH   2   4
TORSDOF 8
ENDMDL
MODEL      185
REMARK 921   NORMALIZED FREE ENERGY PREDICTED BY IDOCK:   -1.83 KCAL/MOL
REMARK 922        TOTAL FREE ENERGY PREDICTED BY IDOCK:   -4.22 KCAL/MOL
REMARK 923 INTER-LIGAND FREE ENERGY PREDICTED BY IDOCK:   -3.90 KCAL/MOL
REMARK 924 INTRA-LIGAND FREE ENERGY PREDICTED BY IDOCK:   -0.32 KCAL/MOL
REMARK 927      BINDING AFFINITY PREDICTED BY RF-SCORE:    0.00 PKD
ROOT
HETATM    1  C   UNL     1      -7.842  16.660  69.577  1.00  0.00     0.220 C  
HETATM    2  N   UNL     1      -7.229  17.086  68.312  1.00  0.00    -0.189 NA 
HETATM    3  C   UNL     1      -6.368  18.249  68.576  1.00  0.00    -0.213 C  
ENDROOT
BRANCH   2   4
HETATM    4  C   UNL     1      -6.416  16.005  67.730  1.00  0.00    -0.157 C  
BRANCH   4   5
HETATM    5  C   UNL     1      -7.083  14.666  67.583  1.00  0.00    -0.203 C  
HETATM    6  C   UNL     1      -6.555  13.452  67.821  1.00  0.00    -0.168 C  
BRANCH   6   7
HETATM    7  C   UNL     1      -7.394  12.243  67.595  1.00  0.00    -0.127 C  
HETATM    8  N   UNL     1      -6.782  11.288  66.798  1.00  0.00    -0.133 N  
HETATM    9  O   UNL     1      -8.480  12.120  68.152  1.00  0.00    -0.162 OA 
HETATM   10  H   UNL     1      -5.891  11.511  66.354  1.00  0.00     0.000 HD 
BRANCH   8  11
HETATM   11  C   UNL     1      -7.355  10.012  66.581  1.00  0.00    -0.103 A  
HETATM   12  C   UNL     1      -8.480   9.824  65.778  1.00  0.00    -0.133 A  
HETATM   13  N   UNL     1      -7.356   5.194  67.392  1.00  0.00    -0.081 NA 
HETATM   14  C   UNL     1      -8.949   8.518  65.560  1.00  0.00    -0.182 A  
HETATM   15  C   UNL     1      -6.812   8.891  67.236  1.00  0.00    -0.077 A  
HETATM   16  C   UNL     1      -8.374   7.395  66.147  1.00  0.00    -0.139 A  
HETATM   17  C   UNL     1      -7.322   7.579  67.048  1.00  0.00    -0.094 A  
HETATM   18  N   UNL     1      -8.870   6.190  65.851  1.00  0.00    -0.154 NA 
HETATM   19  C   UNL     1      -8.316   5.141  66.468  1.00  0.00    -0.108 A  
HETATM   20  C   UNL     1      -6.864   6.408  67.700  1.00  0.00    -0.076 A  
BRANCH  12  21
HETATM   21  O   UNL     1      -9.303  10.794  65.284  1.00  0.00    -0.190 OA 
BRANCH  21  22
HETATM   22  C   UNL     1     -10.674  10.875  65.656  1.00  0.00    -0.108 C  
HETATM   23  C   UNL     1     -12.130  11.625  67.417  1.00  0.00     0.341 C  
HETATM   24  C   UNL     1     -11.086  12.335  65.496  1.00  0.00    -0.307 C  
HETATM   25  O   UNL     1     -12.244  12.521  66.306  1.00  0.00    -0.600 OA 
HETATM   26  C   UNL     1     -11.015  10.631  67.114  1.00  0.00    -0.312 C  
ENDBRANCH  21  22
ENDBRANCH  12  21
BRANCH  20  27
HETATM   27  N   UNL     1      -5.864   6.513  68.708  1.00  0.00    -0.020 NA 
HETATM   28  H   UNL     1      -4.958   6.104  68.478  1.00  0.00     0.000 HD 
BRANCH  27  29
HETATM   29  C   UNL     1      -5.963   7.111  69.989  1.00  0.00    -0.024 A  
HETATM   30  C   UNL     1      -5.640   6.434  71.175  1.00  0.00    -0.026 A  
HETATM   31  C   UNL     1      -5.704   7.083  72.411  1.00  0.00    -0.038 A  
HETATM   32 CL   UNL     1      -5.346   6.197  73.849  1.00  0.00    -0.039 Cl 
HETATM   33  C   UNL     1      -6.063   8.424  72.476  1.00  0.00    -0.072 A  
HETATM   34  C   UNL     1      -6.337   9.130  71.315  1.00  0.00    -0.078 A  
HETATM   35  F   UNL     1      -6.129   9.060  73.653  1.00  0.00    -0.118 F  
HETATM   36  C   UNL     1      -6.278   8.480  70.078  1.00  0.00    -0.034 A  
ENDBRANCH  27  29
ENDBRANCH  20  27
ENDBRANCH   8  11
ENDBRANCH   6   7
ENDBRANCH   4   5
ENDBRANCH   2   4
TORSDOF 8
ENDMDL
MODEL      186
REMARK 921   NORMALIZED FREE ENERGY PREDICTED BY IDOCK:   -1.82 KCAL/MOL
REMARK 922        TOTAL FREE ENERGY PREDICTED BY IDOCK:   -4.20 KCAL/MOL
REMARK 923 INTER-LIGAND FREE ENERGY PREDICTED BY IDOCK:   -7.08 KCAL/MOL
REMARK 924 INTRA-LIGAND FREE ENERGY PREDICTED BY IDOCK:    2.88 KCAL/MOL
REMARK 927      BINDING AFFINITY PREDICTED BY RF-SCORE:    0.00 PKD
ROOT
HETATM    1  C   UNL     1      -9.763   5.032  68.132  1.00  0.00    -0.148 C  
HETATM    2  N   UNL     1     -10.495   6.274  67.852  1.00  0.00    -0.200 NA 
HETATM    3  C   UNL     1     -10.443   7.130  69.048  1.00  0.00    -0.211 C  
ENDROOT
BRANCH   2   4
HETATM    4  C   UNL     1      -9.896   6.995  66.716  1.00  0.00    -0.186 C  
BRANCH   4   5
HETATM    5  C   UNL     1      -9.915   8.496  66.785  1.00  0.00    -0.351 C  
HETATM    6  C   UNL     1     -10.744   9.340  66.146  1.00  0.00     0.465 C  
BRANCH   6   7
HETATM    7  C   UNL     1     -10.578  10.805  66.346  1.00  0.00    -0.203 C  
HETATM    8  N   UNL     1      -9.595  11.129  67.268  1.00  0.00    -0.165 N  
HETATM    9  O   UNL     1     -11.217  11.608  65.673  1.00  0.00    -0.292 OA 
HETATM   10  H   UNL     1      -9.150  10.381  67.800  1.00  0.00     0.000 HD 
BRANCH   8  11
HETATM   11  C   UNL     1      -9.188  12.465  67.495  1.00  0.00    -0.183 A  
HETATM   12  C   UNL     1      -7.876  12.893  67.290  1.00  0.00    -0.131 A  
HETATM   13  N   UNL     1     -10.266  17.028  68.872  1.00  0.00    -0.305 NA 
HETATM   14  C   UNL     1      -7.567  14.251  67.476  1.00  0.00    -0.202 A  
HETATM   15  C   UNL     1     -10.119  13.395  67.996  1.00  0.00    -0.241 A  
HETATM   16  C   UNL     1      -8.499  15.192  67.903  1.00  0.00    -0.149 A  
HETATM   17  C   UNL     1      -9.786  14.756  68.227  1.00  0.00    -0.218 A  
HETATM   18  N   UNL     1      -8.117  16.468  68.017  1.00  0.00    -0.164 NA 
HETATM   19  C   UNL     1      -9.031  17.332  68.470  1.00  0.00    -0.273 A  
HETATM   20  C   UNL     1     -10.646  15.742  68.769  1.00  0.00    -0.239 A  
BRANCH  12  21
HETATM   21  O   UNL     1      -6.784  12.104  67.074  1.00  0.00    -0.140 OA 
BRANCH  21  22
HETATM   22  C   UNL     1      -6.889  10.840  66.429  1.00  0.00    -0.135 C  
HETATM   23  C   UNL     1      -7.232   9.820  64.279  1.00  0.00    -0.129 C  
HETATM   24  C   UNL     1      -5.586  10.630  65.663  1.00  0.00    -0.133 C  
HETATM   25  O   UNL     1      -5.860   9.661  64.654  1.00  0.00    -0.072 OA 
HETATM   26  C   UNL     1      -7.909  10.709  65.315  1.00  0.00    -0.041 C  
ENDBRANCH  21  22
ENDBRANCH  12  21
BRANCH  20  27
HETATM   27  N   UNL     1     -11.943  15.367  69.222  1.00  0.00    -0.470 NA 
HETATM   28  H   UNL     1     -12.715  15.941  68.880  1.00  0.00     0.000 HD 
BRANCH  27  29
HETATM   29  C   UNL     1     -12.303  14.302  70.084  1.00  0.00    -0.353 A  
HETATM   30  C   UNL     1     -12.076  12.953  69.768  1.00  0.00    -0.312 A  
HETATM   31  C   UNL     1     -12.401  11.940  70.674  1.00  0.00    -0.313 A  
HETATM   32 CL   UNL     1     -12.150  10.293  70.224  1.00  0.00    -0.341 Cl 
HETATM   33  C   UNL     1     -12.931  12.261  71.918  1.00  0.00    -0.305 A  
HETATM   34  C   UNL     1     -13.117  13.587  72.276  1.00  0.00    -0.488 A  
HETATM   35  F   UNL     1     -13.247  11.301  72.797  1.00  0.00    -0.053 F  
HETATM   36  C   UNL     1     -12.796  14.602  71.368  1.00  0.00    -0.400 A  
ENDBRANCH  27  29
ENDBRANCH  20  27
ENDBRANCH   8  11
ENDBRANCH   6   7
ENDBRANCH   4   5
ENDBRANCH   2   4
TORSDOF 8
ENDMDL
MODEL      187
REMARK 921   NORMALIZED FREE ENERGY PREDICTED BY IDOCK:   -1.79 KCAL/MOL
REMARK 922        TOTAL FREE ENERGY PREDICTED BY IDOCK:   -4.16 KCAL/MOL
REMARK 923 INTER-LIGAND FREE ENERGY PREDICTED BY IDOCK:   -4.19 KCAL/MOL
REMARK 924 INTRA-LIGAND FREE ENERGY PREDICTED BY IDOCK:    0.02 KCAL/MOL
REMARK 927      BINDING AFFINITY PREDICTED BY RF-SCORE:    0.00 PKD
ROOT
HETATM    1  C   UNL     1     -11.020  13.502  69.037  1.00  0.00    -0.225 C  
HETATM    2  N   UNL     1     -12.052  12.996  68.123  1.00  0.00    -0.250 NA 
HETATM    3  C   UNL     1     -12.157  13.913  66.978  1.00  0.00    -0.415 C  
ENDROOT
BRANCH   2   4
HETATM    4  C   UNL     1     -11.709  11.650  67.634  1.00  0.00    -0.228 C  
BRANCH   4   5
HETATM    5  C   UNL     1     -11.182  10.678  68.652  1.00  0.00    -0.337 C  
HETATM    6  C   UNL     1      -9.898  10.383  68.923  1.00  0.00    -0.206 C  
BRANCH   6   7
HETATM    7  C   UNL     1      -9.595   9.370  69.970  1.00  0.00    -0.226 C  
HETATM    8  N   UNL     1     -10.373   8.227  69.875  1.00  0.00    -0.213 N  
HETATM    9  O   UNL     1      -8.677   9.545  70.766  1.00  0.00    -0.204 OA 
HETATM   10  H   UNL     1     -11.136   8.203  69.198  1.00  0.00     0.000 HD 
BRANCH   8  11
HETATM   11  C   UNL     1     -10.144   7.092  70.689  1.00  0.00    -0.191 A  
HETATM   12  C   UNL     1     -11.148   6.511  71.464  1.00  0.00    -0.265 A  
HETATM   13  N   UNL     1      -7.099   3.679  72.408  1.00  0.00    -0.045 NA 
HETATM   14  C   UNL     1     -10.857   5.347  72.194  1.00  0.00    -0.275 A  
HETATM   15  C   UNL     1      -8.847   6.551  70.769  1.00  0.00    -0.144 A  
HETATM   16  C   UNL     1      -9.594   4.764  72.222  1.00  0.00    -0.150 A  
HETATM   17  C   UNL     1      -8.549   5.401  71.547  1.00  0.00    -0.131 A  
HETATM   18  N   UNL     1      -9.423   3.636  72.919  1.00  0.00    -0.113 NA 
HETATM   19  C   UNL     1      -8.186   3.131  72.954  1.00  0.00    -0.079 A  
HETATM   20  C   UNL     1      -7.269   4.821  71.717  1.00  0.00    -0.062 A  
BRANCH  12  21
HETATM   21  O   UNL     1     -12.378   7.037  71.733  1.00  0.00    -0.327 OA 
BRANCH  21  22
HETATM   22  C   UNL     1     -12.694   8.394  71.443  1.00  0.00    -0.262 C  
HETATM   23  C   UNL     1     -14.241  10.151  71.993  1.00  0.00     0.485 C  
HETATM   24  C   UNL     1     -12.246   9.215  72.649  1.00  0.00     0.089 C  
HETATM   25  O   UNL     1     -12.977  10.438  72.601  1.00  0.00     0.088 OA 
HETATM   26  C   UNL     1     -14.162   8.765  71.363  1.00  0.00    -0.293 C  
ENDBRANCH  21  22
ENDBRANCH  12  21
BRANCH  20  27
HETATM   27  N   UNL     1      -6.130   5.459  71.149  1.00  0.00    -0.028 NA 
HETATM   28  H   UNL     1      -5.346   5.613  71.784  1.00  0.00     0.000 HD 
BRANCH  27  29
HETATM   29  C   UNL     1      -5.943   5.909  69.818  1.00  0.00    -0.025 A  
HETATM   30  C   UNL     1      -5.915   5.041  68.715  1.00  0.00    -0.021 A  
HETATM   31  C   UNL     1      -5.779   5.538  67.416  1.00  0.00    -0.013 A  
HETATM   32 CL   UNL     1      -5.701   4.430  66.094  1.00  0.00    -0.021 Cl 
HETATM   33  C   UNL     1      -5.699   6.907  67.198  1.00  0.00    -0.017 A  
HETATM   34  C   UNL     1      -5.776   7.789  68.265  1.00  0.00    -0.032 A  
HETATM   35  F   UNL     1      -5.569   7.398  65.958  1.00  0.00    -0.028 F  
HETATM   36  C   UNL     1      -5.906   7.294  69.566  1.00  0.00    -0.023 A  
ENDBRANCH  27  29
ENDBRANCH  20  27
ENDBRANCH   8  11
ENDBRANCH   6   7
ENDBRANCH   4   5
ENDBRANCH   2   4
TORSDOF 8
ENDMDL
MODEL      188
REMARK 921   NORMALIZED FREE ENERGY PREDICTED BY IDOCK:   -1.62 KCAL/MOL
REMARK 922        TOTAL FREE ENERGY PREDICTED BY IDOCK:   -3.92 KCAL/MOL
REMARK 923 INTER-LIGAND FREE ENERGY PREDICTED BY IDOCK:   -4.25 KCAL/MOL
REMARK 924 INTRA-LIGAND FREE ENERGY PREDICTED BY IDOCK:    0.32 KCAL/MOL
REMARK 927      BINDING AFFINITY PREDICTED BY RF-SCORE:    0.00 PKD
ROOT
HETATM    1  C   UNL     1     -12.694  11.525  63.459  1.00  0.00     0.074 C  
HETATM    2  N   UNL     1     -12.009  12.654  64.101  1.00  0.00    -0.392 NA 
HETATM    3  C   UNL     1     -12.822  13.114  65.237  1.00  0.00    -0.266 C  
ENDROOT
BRANCH   2   4
HETATM    4  C   UNL     1     -10.678  12.255  64.590  1.00  0.00    -0.308 C  
BRANCH   4   5
HETATM    5  C   UNL     1      -9.874  13.312  65.293  1.00  0.00    -0.097 C  
HETATM    6  C   UNL     1      -9.562  13.378  66.599  1.00  0.00    -0.272 C  
BRANCH   6   7
HETATM    7  C   UNL     1      -8.760  14.530  67.093  1.00  0.00    -0.219 C  
HETATM    8  N   UNL     1      -8.553  14.512  68.463  1.00  0.00    -0.171 N  
HETATM    9  O   UNL     1      -8.282  15.344  66.309  1.00  0.00    -0.087 OA 
HETATM   10  H   UNL     1      -9.030  13.808  69.026  1.00  0.00     0.000 HD 
BRANCH   8  11
HETATM   11  C   UNL     1      -7.699  15.440  69.106  1.00  0.00    -0.207 A  
HETATM   12  C   UNL     1      -6.592  15.043  69.857  1.00  0.00    -0.170 A  
HETATM   13  N   UNL     1      -6.536  20.063  70.179  1.00  0.00    -0.344 NA 
HETATM   14  C   UNL     1      -5.757  16.027  70.410  1.00  0.00    -0.104 A  
HETATM   15  C   UNL     1      -7.995  16.814  69.037  1.00  0.00    -0.188 A  
HETATM   16  C   UNL     1      -6.003  17.391  70.286  1.00  0.00    -0.013 A  
HETATM   17  C   UNL     1      -7.171  17.802  69.639  1.00  0.00     0.334 A  
HETATM   18  N   UNL     1      -5.131  18.252  70.818  1.00  0.00    -0.259 NA 
HETATM   19  C   UNL     1      -5.425  19.552  70.713  1.00  0.00    -0.248 A  
HETATM   20  C   UNL     1      -7.420  19.196  69.655  1.00  0.00     0.139 A  
BRANCH  12  21
HETATM   21  O   UNL     1      -6.296  13.775  70.266  1.00  0.00    -0.123 OA 
BRANCH  21  22
HETATM   22  C   UNL     1      -5.631  12.849  69.415  1.00  0.00    -0.084 C  
HETATM   23  C   UNL     1      -5.981  11.413  67.518  1.00  0.00    -0.064 C  
HETATM   24  C   UNL     1      -5.400  13.563  68.086  1.00  0.00    -0.107 C  
HETATM   25  O   UNL     1      -5.209  12.545  67.107  1.00  0.00    -0.285 OA 
HETATM   26  C   UNL     1      -6.415  11.632  68.963  1.00  0.00    -0.082 C  
ENDBRANCH  21  22
ENDBRANCH  12  21
BRANCH  20  27
HETATM   27  N   UNL     1      -8.636  19.696  69.108  1.00  0.00    -0.153 NA 
HETATM   28  H   UNL     1      -9.073  20.460  69.624  1.00  0.00     0.000 HD 
BRANCH  27  29
HETATM   29  C   UNL     1      -9.319  19.272  67.941  1.00  0.00    -0.316 A  
HETATM   30  C   UNL     1     -10.076  18.091  67.885  1.00  0.00    -0.360 A  
HETATM   31  C   UNL     1     -10.773  17.741  66.725  1.00  0.00    -0.139 A  
HETATM   32 CL   UNL     1     -11.652  16.256  66.685  1.00  0.00     0.600 Cl 
HETATM   33  C   UNL     1     -10.747  18.578  65.617  1.00  0.00    -0.053 A  
HETATM   34  C   UNL     1     -10.049  19.775  65.662  1.00  0.00    -0.288 A  
HETATM   35  F   UNL     1     -11.411  18.257  64.498  1.00  0.00     0.518 F  
HETATM   36  C   UNL     1      -9.346  20.124  66.820  1.00  0.00    -0.513 A  
ENDBRANCH  27  29
ENDBRANCH  20  27
ENDBRANCH   8  11
ENDBRANCH   6   7
ENDBRANCH   4   5
ENDBRANCH   2   4
TORSDOF 8
ENDMDL
MODEL      189
REMARK 921   NORMALIZED FREE ENERGY PREDICTED BY IDOCK:   -1.42 KCAL/MOL
REMARK 922        TOTAL FREE ENERGY PREDICTED BY IDOCK:   -3.63 KCAL/MOL
REMARK 923 INTER-LIGAND FREE ENERGY PREDICTED BY IDOCK:   -3.75 KCAL/MOL
REMARK 924 INTRA-LIGAND FREE ENERGY PREDICTED BY IDOCK:    0.13 KCAL/MOL
REMARK 927      BINDING AFFINITY PREDICTED BY RF-SCORE:    0.00 PKD
ROOT
HETATM    1  C   UNL     1     -11.376  19.931  66.637  1.00  0.00     0.582 C  
HETATM    2  N   UNL     1     -10.540  19.303  65.606  1.00  0.00    -0.506 NA 
HETATM    3  C   UNL     1      -9.131  19.407  66.014  1.00  0.00    -0.168 C  
ENDROOT
BRANCH   2   4
HETATM    4  C   UNL     1     -10.890  17.882  65.436  1.00  0.00     0.206 C  
BRANCH   4   5
HETATM    5  C   UNL     1     -10.282  16.918  66.415  1.00  0.00    -0.326 C  
HETATM    6  C   UNL     1     -10.438  16.890  67.751  1.00  0.00    -0.340 C  
BRANCH   6   7
HETATM    7  C   UNL     1      -9.727  15.848  68.539  1.00  0.00    -0.211 C  
HETATM    8  N   UNL     1      -8.348  15.979  68.511  1.00  0.00    -0.181 N  
HETATM    9  O   UNL     1     -10.352  15.025  69.201  1.00  0.00    -0.234 OA 
HETATM   10  H   UNL     1      -7.930  16.677  67.895  1.00  0.00     0.000 HD 
BRANCH   8  11
HETATM   11  C   UNL     1      -7.499  15.175  69.308  1.00  0.00    -0.193 A  
HETATM   12  C   UNL     1      -6.536  15.718  70.159  1.00  0.00     0.009 A  
HETATM   13  N   UNL     1      -6.034  10.750  70.775  1.00  0.00    -0.295 NA 
HETATM   14  C   UNL     1      -5.778  14.854  70.967  1.00  0.00    -0.052 A  
HETATM   15  C   UNL     1      -7.584  13.773  69.211  1.00  0.00     0.198 A  
HETATM   16  C   UNL     1      -5.905  13.469  70.929  1.00  0.00    -0.150 A  
HETATM   17  C   UNL     1      -6.780  12.905  69.997  1.00  0.00     0.345 A  
HETATM   18  N   UNL     1      -5.163  12.732  71.761  1.00  0.00    -0.359 NA 
HETATM   19  C   UNL     1      -5.286  11.405  71.664  1.00  0.00     0.081 A  
HETATM   20  C   UNL     1      -6.772  11.491  69.928  1.00  0.00     0.005 A  
BRANCH  12  21
HETATM   21  O   UNL     1      -6.116  17.015  70.194  1.00  0.00    -0.201 OA 
BRANCH  21  22
HETATM   22  C   UNL     1      -6.377  17.917  69.125  1.00  0.00    -0.236 C  
HETATM   23  C   UNL     1      -5.634  19.987  68.152  1.00  0.00    -0.208 C  
HETATM   24  C   UNL     1      -5.263  17.719  68.102  1.00  0.00    -0.142 C  
HETATM   25  O   UNL     1      -5.223  18.905  67.311  1.00  0.00    -0.154 OA 
HETATM   26  C   UNL     1      -6.248  19.400  69.417  1.00  0.00    -0.332 C  
ENDBRANCH  21  22
ENDBRANCH  12  21
BRANCH  20  27
HETATM   27  N   UNL     1      -7.557  10.833  68.939  1.00  0.00    -0.112 NA 
HETATM   28  H   UNL     1      -7.970  11.436  68.227  1.00  0.00     0.000 HD 
BRANCH  27  29
HETATM   29  C   UNL     1      -7.839   9.450  68.814  1.00  0.00    -0.084 A  
HETATM   30  C   UNL     1      -6.844   8.483  68.602  1.00  0.00    -0.063 A  
HETATM   31  C   UNL     1      -7.168   7.125  68.536  1.00  0.00    -0.094 A  
HETATM   32 CL   UNL     1      -5.918   5.975  68.225  1.00  0.00    -0.019 Cl 
HETATM   33  C   UNL     1      -8.483   6.712  68.710  1.00  0.00    -0.123 A  
HETATM   34  C   UNL     1      -9.477   7.642  68.972  1.00  0.00    -0.150 A  
HETATM   35  F   UNL     1      -8.807   5.414  68.651  1.00  0.00    -0.103 F  
HETATM   36  C   UNL     1      -9.156   9.002  69.033  1.00  0.00    -0.143 A  
ENDBRANCH  27  29
ENDBRANCH  20  27
ENDBRANCH   8  11
ENDBRANCH   6   7
ENDBRANCH   4   5
ENDBRANCH   2   4
TORSDOF 8
ENDMDL
MODEL      190
REMARK 921   NORMALIZED FREE ENERGY PREDICTED BY IDOCK:   -1.27 KCAL/MOL
REMARK 922        TOTAL FREE ENERGY PREDICTED BY IDOCK:   -3.40 KCAL/MOL
REMARK 923 INTER-LIGAND FREE ENERGY PREDICTED BY IDOCK:   -4.33 KCAL/MOL
REMARK 924 INTRA-LIGAND FREE ENERGY PREDICTED BY IDOCK:    0.93 KCAL/MOL
REMARK 927      BINDING AFFINITY PREDICTED BY RF-SCORE:    0.00 PKD
ROOT
HETATM    1  C   UNL     1     -13.526  10.357  70.481  1.00  0.00     0.271 C  
HETATM    2  N   UNL     1     -12.206  10.301  71.120  1.00  0.00    -0.364 NA 
HETATM    3  C   UNL     1     -11.858   8.891  71.357  1.00  0.00    -0.317 C  
ENDROOT
BRANCH   2   4
HETATM    4  C   UNL     1     -11.178  10.915  70.263  1.00  0.00    -0.188 C  
BRANCH   4   5
HETATM    5  C   UNL     1     -10.369   9.981  69.407  1.00  0.00    -0.245 C  
HETATM    6  C   UNL     1     -10.783   8.860  68.790  1.00  0.00    -0.123 C  
BRANCH   6   7
HETATM    7  C   UNL     1      -9.805   8.069  67.997  1.00  0.00    -0.167 C  
HETATM    8  N   UNL     1     -10.229   6.777  67.726  1.00  0.00    -0.156 N  
HETATM    9  O   UNL     1      -8.774   8.585  67.576  1.00  0.00    -0.133 OA 
HETATM   10  H   UNL     1     -11.088   6.438  68.159  1.00  0.00     0.000 HD 
BRANCH   8  11
HETATM   11  C   UNL     1      -9.507   5.913  66.869  1.00  0.00    -0.135 A  
HETATM   12  C   UNL     1      -9.534   4.525  67.010  1.00  0.00    -0.169 A  
HETATM   13  N   UNL     1      -6.485   5.286  63.081  1.00  0.00    -0.025 NA 
HETATM   14  C   UNL     1      -8.843   3.734  66.078  1.00  0.00    -0.126 A  
HETATM   15  C   UNL     1      -8.687   6.463  65.866  1.00  0.00    -0.152 A  
HETATM   16  C   UNL     1      -8.086   4.268  65.039  1.00  0.00    -0.098 A  
HETATM   17  C   UNL     1      -7.952   5.656  64.956  1.00  0.00    -0.115 A  
HETATM   18  N   UNL     1      -7.492   3.432  64.182  1.00  0.00    -0.072 NA 
HETATM   19  C   UNL     1      -6.741   3.984  63.223  1.00  0.00    -0.035 A  
HETATM   20  C   UNL     1      -7.073   6.126  63.951  1.00  0.00    -0.056 A  
BRANCH  12  21
HETATM   21  O   UNL     1     -10.037   3.821  68.064  1.00  0.00     0.087 OA 
BRANCH  21  22
HETATM   22  C   UNL     1      -9.201   3.335  69.108  1.00  0.00    -0.157 C  
HETATM   23  C   UNL     1      -6.908   2.845  69.643  1.00  0.00    -0.034 C  
HETATM   24  C   UNL     1      -8.459   4.542  69.674  1.00  0.00    -0.069 C  
HETATM   25  O   UNL     1      -7.303   4.034  70.335  1.00  0.00    -0.041 OA 
HETATM   26  C   UNL     1      -8.045   2.437  68.713  1.00  0.00    -0.066 C  
ENDBRANCH  21  22
ENDBRANCH  12  21
BRANCH  20  27
HETATM   27  N   UNL     1      -6.797   7.520  63.858  1.00  0.00    -0.052 NA 
HETATM   28  H   UNL     1      -5.810   7.777  63.846  1.00  0.00     0.000 HD 
BRANCH  27  29
HETATM   29  C   UNL     1      -7.715   8.597  63.781  1.00  0.00    -0.136 A  
HETATM   30  C   UNL     1      -7.835   9.572  64.783  1.00  0.00    -0.120 A  
HETATM   31  C   UNL     1      -8.719  10.645  64.637  1.00  0.00    -0.152 A  
HETATM   32 CL   UNL     1      -8.870  11.793  65.917  1.00  0.00    -0.076 Cl 
HETATM   33  C   UNL     1      -9.473  10.774  63.478  1.00  0.00    -0.299 A  
HETATM   34  C   UNL     1      -9.336   9.854  62.450  1.00  0.00    -0.270 A  
HETATM   35  F   UNL     1     -10.324  11.797  63.323  1.00  0.00    -0.355 F  
HETATM   36  C   UNL     1      -8.455   8.777  62.597  1.00  0.00    -0.183 A  
ENDBRANCH  27  29
ENDBRANCH  20  27
ENDBRANCH   8  11
ENDBRANCH   6   7
ENDBRANCH   4   5
ENDBRANCH   2   4
TORSDOF 8
ENDMDL
MODEL      191
REMARK 921   NORMALIZED FREE ENERGY PREDICTED BY IDOCK:   -0.87 KCAL/MOL
REMARK 922        TOTAL FREE ENERGY PREDICTED BY IDOCK:   -2.81 KCAL/MOL
REMARK 923 INTER-LIGAND FREE ENERGY PREDICTED BY IDOCK:   -3.30 KCAL/MOL
REMARK 924 INTRA-LIGAND FREE ENERGY PREDICTED BY IDOCK:    0.49 KCAL/MOL
REMARK 927      BINDING AFFINITY PREDICTED BY RF-SCORE:    0.00 PKD
ROOT
HETATM    1  C   UNL     1     -11.266  20.702  65.041  1.00  0.00     1.428 C  
HETATM    2  N   UNL     1     -10.230  19.710  65.355  1.00  0.00    -0.287 NA 
HETATM    3  C   UNL     1      -9.459  20.186  66.514  1.00  0.00    -0.374 C  
ENDROOT
BRANCH   2   4
HETATM    4  C   UNL     1     -10.831  18.405  65.677  1.00  0.00     0.086 C  
BRANCH   4   5
HETATM    5  C   UNL     1      -9.888  17.319  66.113  1.00  0.00    -0.269 C  
HETATM    6  C   UNL     1      -9.073  17.314  67.182  1.00  0.00    -0.234 C  
BRANCH   6   7
HETATM    7  C   UNL     1      -8.203  16.131  67.423  1.00  0.00    -0.163 C  
HETATM    8  N   UNL     1      -7.822  15.985  68.747  1.00  0.00    -0.177 N  
HETATM    9  O   UNL     1      -7.945  15.346  66.515  1.00  0.00    -0.137 OA 
HETATM   10  H   UNL     1      -8.061  16.719  69.414  1.00  0.00     0.000 HD 
BRANCH   8  11
HETATM   11  C   UNL     1      -7.113  14.849  69.204  1.00  0.00    -0.148 A  
HETATM   12  C   UNL     1      -5.924  14.950  69.928  1.00  0.00    -0.132 A  
HETATM   13  N   UNL     1      -6.689   9.993  69.541  1.00  0.00    -0.052 NA 
HETATM   14  C   UNL     1      -5.315  13.776  70.403  1.00  0.00    -0.116 A  
HETATM   15  C   UNL     1      -7.584  13.563  68.879  1.00  0.00    -0.002 A  
HETATM   16  C   UNL     1      -5.814  12.503  70.146  1.00  0.00    -0.160 A  
HETATM   17  C   UNL     1      -6.936  12.380  69.322  1.00  0.00     0.021 A  
HETATM   18  N   UNL     1      -5.183  11.448  70.670  1.00  0.00    -0.105 NA 
HETATM   19  C   UNL     1      -5.670  10.241  70.365  1.00  0.00    -0.078 A  
HETATM   20  C   UNL     1      -7.317  11.054  69.004  1.00  0.00    -0.123 A  
BRANCH  12  21
HETATM   21  O   UNL     1      -5.171  16.073  70.109  1.00  0.00    -0.134 OA 
BRANCH  21  22
HETATM   22  C   UNL     1      -5.761  17.328  70.430  1.00  0.00    -0.119 C  
HETATM   23  C   UNL     1      -5.272  19.468  71.411  1.00  0.00    -0.338 C  
HETATM   24  C   UNL     1      -5.232  18.334  69.412  1.00  0.00    -0.194 C  
HETATM   25  O   UNL     1      -5.397  19.624  69.994  1.00  0.00    -0.197 OA 
HETATM   26  C   UNL     1      -5.343  17.980  71.733  1.00  0.00     0.258 C  
ENDBRANCH  21  22
ENDBRANCH  12  21
BRANCH  20  27
HETATM   27  N   UNL     1      -8.387  10.833  68.090  1.00  0.00    -0.116 NA 
HETATM   28  H   UNL     1      -8.632  11.624  67.494  1.00  0.00     0.000 HD 
BRANCH  27  29
HETATM   29  C   UNL     1      -9.156   9.658  67.900  1.00  0.00    -0.125 A  
HETATM   30  C   UNL     1      -9.373   8.714  68.916  1.00  0.00    -0.145 A  
HETATM   31  C   UNL     1     -10.182   7.596  68.695  1.00  0.00    -0.199 A  
HETATM   32 CL   UNL     1     -10.381   6.436  69.958  1.00  0.00    -0.229 Cl 
HETATM   33  C   UNL     1     -10.808   7.421  67.467  1.00  0.00    -0.187 A  
HETATM   34  C   UNL     1     -10.653   8.364  66.464  1.00  0.00     0.078 A  
HETATM   35  F   UNL     1     -11.587   6.355  67.241  1.00  0.00    -0.340 F  
HETATM   36  C   UNL     1      -9.839   9.481  66.682  1.00  0.00    -0.293 A  
ENDBRANCH  27  29
ENDBRANCH  20  27
ENDBRANCH   8  11
ENDBRANCH   6   7
ENDBRANCH   4   5
ENDBRANCH   2   4
TORSDOF 8
ENDMDL
MODEL      192
REMARK 921   NORMALIZED FREE ENERGY PREDICTED BY IDOCK:   -0.78 KCAL/MOL
REMARK 922        TOTAL FREE ENERGY PREDICTED BY IDOCK:   -2.68 KCAL/MOL
REMARK 923 INTER-LIGAND FREE ENERGY PREDICTED BY IDOCK:   -2.92 KCAL/MOL
REMARK 924 INTRA-LIGAND FREE ENERGY PREDICTED BY IDOCK:    0.24 KCAL/MOL
REMARK 927      BINDING AFFINITY PREDICTED BY RF-SCORE:    0.00 PKD
ROOT
HETATM    1  C   UNL     1     -13.532  10.513  70.514  1.00  0.00     0.325 C  
HETATM    2  N   UNL     1     -12.522  10.355  71.569  1.00  0.00    -0.398 NA 
HETATM    3  C   UNL     1     -12.469   8.938  71.960  1.00  0.00    -0.392 C  
ENDROOT
BRANCH   2   4
HETATM    4  C   UNL     1     -11.193  10.774  71.093  1.00  0.00     0.704 C  
BRANCH   4   5
HETATM    5  C   UNL     1     -10.234   9.679  70.722  1.00  0.00    -0.330 C  
HETATM    6  C   UNL     1     -10.482   8.579  69.988  1.00  0.00    -0.226 C  
BRANCH   6   7
HETATM    7  C   UNL     1      -9.382   7.606  69.751  1.00  0.00    -0.150 C  
HETATM    8  N   UNL     1      -9.807   6.421  69.171  1.00  0.00    -0.138 N  
HETATM    9  O   UNL     1      -8.215   7.907  69.987  1.00  0.00    -0.115 OA 
HETATM   10  H   UNL     1     -10.808   6.260  69.053  1.00  0.00     0.000 HD 
BRANCH   8  11
HETATM   11  C   UNL     1      -8.898   5.427  68.738  1.00  0.00    -0.103 A  
HETATM   12  C   UNL     1      -8.828   4.166  69.332  1.00  0.00    -0.094 A  
HETATM   13  N   UNL     1      -5.312   4.008  65.738  1.00  0.00    -0.009 NA 
HETATM   14  C   UNL     1      -7.944   3.212  68.802  1.00  0.00    -0.064 A  
HETATM   15  C   UNL     1      -7.989   5.725  67.706  1.00  0.00    -0.098 A  
HETATM   16  C   UNL     1      -7.091   3.477  67.734  1.00  0.00    -0.051 A  
HETATM   17  C   UNL     1      -7.064   4.770  67.207  1.00  0.00    -0.069 A  
HETATM   18  N   UNL     1      -6.310   2.493  67.278  1.00  0.00    -0.031 NA 
HETATM   19  C   UNL     1      -5.476   2.799  66.279  1.00  0.00    -0.017 A  
HETATM   20  C   UNL     1      -6.089   5.001  66.206  1.00  0.00    -0.027 A  
BRANCH  12  21
HETATM   21  O   UNL     1      -9.420   3.780  70.499  1.00  0.00    -0.154 OA 
BRANCH  21  22
HETATM   22  C   UNL     1      -9.982   4.724  71.404  1.00  0.00    -0.197 C  
HETATM   23  C   UNL     1     -10.924   4.926  73.607  1.00  0.00    -0.318 C  
HETATM   24  C   UNL     1      -8.926   4.989  72.473  1.00  0.00    -0.129 C  
HETATM   25  O   UNL     1      -9.617   5.509  73.605  1.00  0.00    -0.137 OA 
HETATM   26  C   UNL     1     -11.151   4.265  72.253  1.00  0.00     0.279 C  
ENDBRANCH  21  22
ENDBRANCH  12  21
BRANCH  20  27
HETATM   27  N   UNL     1      -5.921   6.314  65.682  1.00  0.00    -0.025 NA 
HETATM   28  H   UNL     1      -5.039   6.773  65.911  1.00  0.00     0.000 HD 
BRANCH  27  29
HETATM   29  C   UNL     1      -6.818   7.067  64.884  1.00  0.00    -0.047 A  
HETATM   30  C   UNL     1      -7.293   8.334  65.257  1.00  0.00    -0.081 A  
HETATM   31  C   UNL     1      -8.136   9.060  64.412  1.00  0.00    -0.146 A  
HETATM   32 CL   UNL     1      -8.735  10.594  64.932  1.00  0.00    -0.191 Cl 
HETATM   33  C   UNL     1      -8.494   8.544  63.172  1.00  0.00    -0.056 A  
HETATM   34  C   UNL     1      -7.997   7.318  62.758  1.00  0.00    -0.113 A  
HETATM   35  F   UNL     1      -9.301   9.229  62.351  1.00  0.00    -0.270 F  
HETATM   36  C   UNL     1      -7.157   6.588  63.604  1.00  0.00    -0.055 A  
ENDBRANCH  27  29
ENDBRANCH  20  27
ENDBRANCH   8  11
ENDBRANCH   6   7
ENDBRANCH   4   5
ENDBRANCH   2   4
TORSDOF 8
ENDMDL
MODEL      193
REMARK 921   NORMALIZED FREE ENERGY PREDICTED BY IDOCK:   -0.55 KCAL/MOL
REMARK 922        TOTAL FREE ENERGY PREDICTED BY IDOCK:   -2.34 KCAL/MOL
REMARK 923 INTER-LIGAND FREE ENERGY PREDICTED BY IDOCK:   -2.90 KCAL/MOL
REMARK 924 INTRA-LIGAND FREE ENERGY PREDICTED BY IDOCK:    0.56 KCAL/MOL
REMARK 927      BINDING AFFINITY PREDICTED BY RF-SCORE:    0.00 PKD
ROOT
HETATM    1  C   UNL     1      -5.347  18.380  71.825  1.00  0.00     0.038 C  
HETATM    2  N   UNL     1      -5.637  19.807  72.020  1.00  0.00    -0.438 NA 
HETATM    3  C   UNL     1      -5.138  20.551  70.854  1.00  0.00    -0.247 C  
ENDROOT
BRANCH   2   4
HETATM    4  C   UNL     1      -7.086  20.036  72.156  1.00  0.00     1.304 C  
BRANCH   4   5
HETATM    5  C   UNL     1      -7.956  19.526  71.043  1.00  0.00     2.521 C  
HETATM    6  C   UNL     1      -7.594  19.234  69.781  1.00  0.00     0.253 C  
BRANCH   6   7
HETATM    7  C   UNL     1      -8.627  18.751  68.826  1.00  0.00    -0.281 C  
HETATM    8  N   UNL     1      -8.301  17.549  68.219  1.00  0.00    -0.256 N  
HETATM    9  O   UNL     1      -9.687  19.355  68.689  1.00  0.00    -0.383 OA 
HETATM   10  H   UNL     1      -7.374  17.151  68.376  1.00  0.00     0.000 HD 
BRANCH   8  11
HETATM   11  C   UNL     1      -9.211  16.855  67.387  1.00  0.00    -0.222 A  
HETATM   12  C   UNL     1      -9.504  17.270  66.088  1.00  0.00    -0.179 A  
HETATM   13  N   UNL     1     -12.337  13.160  66.714  1.00  0.00    -0.328 NA 
HETATM   14  C   UNL     1     -10.370  16.489  65.303  1.00  0.00    -0.162 A  
HETATM   15  C   UNL     1      -9.893  15.733  67.895  1.00  0.00    -0.217 A  
HETATM   16  C   UNL     1     -10.993  15.338  65.775  1.00  0.00    -0.338 A  
HETATM   17  C   UNL     1     -10.804  14.976  67.111  1.00  0.00    -0.314 A  
HETATM   18  N   UNL     1     -11.774  14.643  64.941  1.00  0.00    -0.388 NA 
HETATM   19  C   UNL     1     -12.387  13.568  65.445  1.00  0.00    -0.478 A  
HETATM   20  C   UNL     1     -11.562  13.866  67.556  1.00  0.00    -0.360 A  
BRANCH  12  21
HETATM   21  O   UNL     1      -9.166  18.461  65.515  1.00  0.00    -0.037 OA 
BRANCH  21  22
HETATM   22  C   UNL     1      -7.922  19.097  65.787  1.00  0.00     0.042 C  
HETATM   23  C   UNL     1      -5.759  19.541  64.833  1.00  0.00    -0.217 C  
HETATM   24  C   UNL     1      -7.896  20.380  64.961  1.00  0.00     0.747 C  
HETATM   25  O   UNL     1      -6.526  20.749  64.830  1.00  0.00    -0.275 OA 
HETATM   26  C   UNL     1      -6.665  18.405  65.296  1.00  0.00    -0.063 C  
ENDBRANCH  21  22
ENDBRANCH  12  21
BRANCH  20  27
HETATM   27  N   UNL     1     -11.509  13.487  68.928  1.00  0.00    -0.283 NA 
HETATM   28  H   UNL     1     -11.496  14.256  69.599  1.00  0.00     0.000 HD 
BRANCH  27  29
HETATM   29  C   UNL     1     -11.473  12.184  69.482  1.00  0.00    -0.265 A  
HETATM   30  C   UNL     1     -10.483  11.243  69.158  1.00  0.00    -0.191 A  
HETATM   31  C   UNL     1     -10.460   9.987  69.770  1.00  0.00    -0.256 A  
HETATM   32 CL   UNL     1      -9.253   8.844  69.306  1.00  0.00    -0.144 Cl 
HETATM   33  C   UNL     1     -11.408   9.664  70.734  1.00  0.00    -0.340 A  
HETATM   34  C   UNL     1     -12.365  10.593  71.110  1.00  0.00    -0.505 A  
HETATM   35  F   UNL     1     -11.398   8.464  71.330  1.00  0.00    -0.261 F  
HETATM   36  C   UNL     1     -12.393  11.848  70.494  1.00  0.00    -0.372 A  
ENDBRANCH  27  29
ENDBRANCH  20  27
ENDBRANCH   8  11
ENDBRANCH   6   7
ENDBRANCH   4   5
ENDBRANCH   2   4
TORSDOF 8
ENDMDL
MODEL      194
REMARK 921   NORMALIZED FREE ENERGY PREDICTED BY IDOCK:   -0.47 KCAL/MOL
REMARK 922        TOTAL FREE ENERGY PREDICTED BY IDOCK:   -2.22 KCAL/MOL
REMARK 923 INTER-LIGAND FREE ENERGY PREDICTED BY IDOCK:   -1.73 KCAL/MOL
REMARK 924 INTRA-LIGAND FREE ENERGY PREDICTED BY IDOCK:   -0.50 KCAL/MOL
REMARK 927      BINDING AFFINITY PREDICTED BY RF-SCORE:    0.00 PKD
ROOT
HETATM    1  C   UNL     1     -11.447  17.855  72.692  1.00  0.00     2.372 C  
HETATM    2  N   UNL     1     -12.085  17.161  71.566  1.00  0.00     1.762 NA 
HETATM    3  C   UNL     1     -11.043  16.479  70.784  1.00  0.00     0.011 C  
ENDROOT
BRANCH   2   4
HETATM    4  C   UNL     1     -13.060  16.166  72.044  1.00  0.00     0.040 C  
BRANCH   4   5
HETATM    5  C   UNL     1     -12.919  14.772  71.502  1.00  0.00    -0.410 C  
HETATM    6  C   UNL     1     -12.647  13.645  72.184  1.00  0.00    -0.164 C  
BRANCH   6   7
HETATM    7  C   UNL     1     -12.537  12.360  71.442  1.00  0.00    -0.193 C  
HETATM    8  N   UNL     1     -11.985  12.497  70.178  1.00  0.00    -0.458 N  
HETATM    9  O   UNL     1     -12.842  11.298  71.977  1.00  0.00    -0.368 OA 
HETATM   10  H   UNL     1     -11.802  13.434  69.817  1.00  0.00     0.000 HD 
BRANCH   8  11
HETATM   11  C   UNL     1     -11.667  11.379  69.371  1.00  0.00    -0.338 A  
HETATM   12  C   UNL     1     -11.861  11.374  67.989  1.00  0.00    -0.202 A  
HETATM   13  N   UNL     1      -9.979   6.812  68.967  1.00  0.00    -0.152 NA 
HETATM   14  C   UNL     1     -11.458  10.249  67.251  1.00  0.00     0.389 A  
HETATM   15  C   UNL     1     -11.186  10.204  69.978  1.00  0.00    -0.361 A  
HETATM   16  C   UNL     1     -10.915   9.109  67.836  1.00  0.00     0.031 A  
HETATM   17  C   UNL     1     -10.826   9.052  69.229  1.00  0.00    -0.131 A  
HETATM   18  N   UNL     1     -10.531   8.102  67.045  1.00  0.00    -0.332 NA 
HETATM   19  C   UNL     1     -10.053   7.010  67.650  1.00  0.00    -0.172 A  
HETATM   20  C   UNL     1     -10.378   7.820  69.763  1.00  0.00    -0.221 A  
BRANCH  12  21
HETATM   21  O   UNL     1     -12.556  12.292  67.259  1.00  0.00     0.196 OA 
BRANCH  21  22
HETATM   22  C   UNL     1     -12.000  12.908  66.103  1.00  0.00    -0.429 C  
HETATM   23  C   UNL     1     -11.510  15.055  65.136  1.00  0.00    -0.339 C  
HETATM   24  C   UNL     1     -10.625  13.435  66.506  1.00  0.00    -0.287 C  
HETATM   25  O   UNL     1     -10.286  14.447  65.562  1.00  0.00    -0.321 OA 
HETATM   26  C   UNL     1     -12.665  14.175  65.601  1.00  0.00    -0.469 C  
ENDBRANCH  21  22
ENDBRANCH  12  21
BRANCH  20  27
HETATM   27  N   UNL     1     -10.351   7.637  71.175  1.00  0.00    -0.200 NA 
HETATM   28  H   UNL     1     -11.248   7.730  71.651  1.00  0.00     0.000 HD 
BRANCH  27  29
HETATM   29  C   UNL     1      -9.241   7.341  72.005  1.00  0.00    -0.132 A  
HETATM   30  C   UNL     1      -7.993   6.942  71.499  1.00  0.00    -0.104 A  
HETATM   31  C   UNL     1      -6.914   6.711  72.356  1.00  0.00    -0.068 A  
HETATM   32 CL   UNL     1      -5.412   6.175  71.695  1.00  0.00    -0.025 Cl 
HETATM   33  C   UNL     1      -7.057   6.903  73.725  1.00  0.00    -0.074 A  
HETATM   34  C   UNL     1      -8.262   7.346  74.245  1.00  0.00    -0.220 A  
HETATM   35  F   UNL     1      -6.031   6.686  74.558  1.00  0.00    -0.066 F  
HETATM   36  C   UNL     1      -9.346   7.572  73.390  1.00  0.00    -0.291 A  
ENDBRANCH  27  29
ENDBRANCH  20  27
ENDBRANCH   8  11
ENDBRANCH   6   7
ENDBRANCH   4   5
ENDBRANCH   2   4
TORSDOF 8
ENDMDL
MODEL      195
REMARK 921   NORMALIZED FREE ENERGY PREDICTED BY IDOCK:    0.45 KCAL/MOL
REMARK 922        TOTAL FREE ENERGY PREDICTED BY IDOCK:   -0.88 KCAL/MOL
REMARK 923 INTER-LIGAND FREE ENERGY PREDICTED BY IDOCK:   -0.92 KCAL/MOL
REMARK 924 INTRA-LIGAND FREE ENERGY PREDICTED BY IDOCK:    0.04 KCAL/MOL
REMARK 927      BINDING AFFINITY PREDICTED BY RF-SCORE:    0.00 PKD
ROOT
HETATM    1  C   UNL     1      -6.706  17.929  70.677  1.00  0.00     1.754 C  
HETATM    2  N   UNL     1      -7.188  17.134  69.540  1.00  0.00    -0.030 NA 
HETATM    3  C   UNL     1      -7.050  17.935  68.314  1.00  0.00    -0.232 C  
ENDROOT
BRANCH   2   4
HETATM    4  C   UNL     1      -6.409  15.893  69.397  1.00  0.00    -0.160 C  
BRANCH   4   5
HETATM    5  C   UNL     1      -7.069  14.765  68.655  1.00  0.00    -0.112 C  
HETATM    6  C   UNL     1      -6.742  13.461  68.676  1.00  0.00    -0.095 C  
BRANCH   6   7
HETATM    7  C   UNL     1      -7.526  12.506  67.847  1.00  0.00    -0.120 C  
HETATM    8  N   UNL     1      -6.957  12.253  66.609  1.00  0.00    -0.336 N  
HETATM    9  O   UNL     1      -8.529  11.960  68.297  1.00  0.00    -0.152 OA 
HETATM   10  H   UNL     1      -6.141  12.792  66.320  1.00  0.00     0.000 HD 
BRANCH   8  11
HETATM   11  C   UNL     1      -7.473  11.269  65.732  1.00  0.00     0.275 A  
HETATM   12  C   UNL     1      -8.443  11.558  64.771  1.00  0.00     0.691 A  
HETATM   13  N   UNL     1      -7.566   6.641  64.168  1.00  0.00    -0.098 NA 
HETATM   14  C   UNL     1      -8.856  10.541  63.895  1.00  0.00    -0.203 A  
HETATM   15  C   UNL     1      -7.038   9.937  65.856  1.00  0.00    -0.107 A  
HETATM   16  C   UNL     1      -8.378   9.235  63.965  1.00  0.00    -0.178 A  
HETATM   17  C   UNL     1      -7.497   8.903  64.997  1.00  0.00    -0.097 A  
HETATM   18  N   UNL     1      -8.806   8.346  63.064  1.00  0.00     0.208 NA 
HETATM   19  C   UNL     1      -8.355   7.094  63.192  1.00  0.00     0.171 A  
HETATM   20  C   UNL     1      -7.145   7.534  65.082  1.00  0.00    -0.063 A  
BRANCH  12  21
HETATM   21  O   UNL     1      -9.179  12.702  64.672  1.00  0.00     0.482 OA 
BRANCH  21  22
HETATM   22  C   UNL     1     -10.391  12.752  63.928  1.00  0.00    -0.324 C  
HETATM   23  C   UNL     1     -12.640  11.902  63.888  1.00  0.00    -0.340 C  
HETATM   24  C   UNL     1     -11.361  13.617  64.728  1.00  0.00    -0.354 C  
HETATM   25  O   UNL     1     -12.671  13.278  64.279  1.00  0.00    -0.642 OA 
HETATM   26  C   UNL     1     -11.182  11.465  63.799  1.00  0.00    -0.375 C  
ENDBRANCH  21  22
ENDBRANCH  12  21
BRANCH  20  27
HETATM   27  N   UNL     1      -6.332   7.086  66.161  1.00  0.00    -0.048 NA 
HETATM   28  H   UNL     1      -5.388   7.472  66.196  1.00  0.00     0.000 HD 
BRANCH  27  29
HETATM   29  C   UNL     1      -6.661   6.173  67.194  1.00  0.00    -0.057 A  
HETATM   30  C   UNL     1      -6.657   4.781  67.013  1.00  0.00    -0.050 A  
HETATM   31  C   UNL     1      -6.940   3.919  68.077  1.00  0.00    -0.051 A  
HETATM   32 CL   UNL     1      -6.972   2.216  67.797  1.00  0.00    -0.042 Cl 
HETATM   33  C   UNL     1      -7.202   4.434  69.340  1.00  0.00    -0.051 A  
HETATM   34  C   UNL     1      -7.161   5.802  69.558  1.00  0.00    -0.066 A  
HETATM   35  F   UNL     1      -7.474   3.621  70.370  1.00  0.00    -0.040 F  
HETATM   36  C   UNL     1      -6.884   6.666  68.494  1.00  0.00    -0.070 A  
ENDBRANCH  27  29
ENDBRANCH  20  27
ENDBRANCH   8  11
ENDBRANCH   6   7
ENDBRANCH   4   5
ENDBRANCH   2   4
TORSDOF 8
ENDMDL
MODEL      196
REMARK 921   NORMALIZED FREE ENERGY PREDICTED BY IDOCK:    0.59 KCAL/MOL
REMARK 922        TOTAL FREE ENERGY PREDICTED BY IDOCK:   -0.67 KCAL/MOL
REMARK 923 INTER-LIGAND FREE ENERGY PREDICTED BY IDOCK:    0.65 KCAL/MOL
REMARK 924 INTRA-LIGAND FREE ENERGY PREDICTED BY IDOCK:   -1.32 KCAL/MOL
REMARK 927      BINDING AFFINITY PREDICTED BY RF-SCORE:    0.00 PKD
ROOT
HETATM    1  C   UNL     1     -13.623  11.747  64.416  1.00  0.00     2.040 C  
HETATM    2  N   UNL     1     -12.661  12.825  64.149  1.00  0.00    -0.702 NA 
HETATM    3  C   UNL     1     -12.993  13.440  62.855  1.00  0.00     1.553 C  
ENDROOT
BRANCH   2   4
HETATM    4  C   UNL     1     -12.716  13.853  65.202  1.00  0.00    -0.398 C  
BRANCH   4   5
HETATM    5  C   UNL     1     -11.438  14.123  65.946  1.00  0.00    -0.338 C  
HETATM    6  C   UNL     1     -10.664  15.221  65.884  1.00  0.00    -0.340 C  
BRANCH   6   7
HETATM    7  C   UNL     1      -9.422  15.276  66.702  1.00  0.00    -0.259 C  
HETATM    8  N   UNL     1      -9.642  15.075  68.055  1.00  0.00    -0.206 N  
HETATM    9  O   UNL     1      -8.325  15.406  66.168  1.00  0.00    -0.066 OA 
HETATM   10  H   UNL     1     -10.602  15.015  68.397  1.00  0.00     0.000 HD 
BRANCH   8  11
HETATM   11  C   UNL     1      -8.578  14.950  68.979  1.00  0.00    -0.170 A  
HETATM   12  C   UNL     1      -7.963  16.057  69.567  1.00  0.00    -0.043 A  
HETATM   13  N   UNL     1      -5.497  12.127  71.512  1.00  0.00    -0.377 NA 
HETATM   14  C   UNL     1      -6.957  15.847  70.525  1.00  0.00     0.983 A  
HETATM   15  C   UNL     1      -8.075  13.672  69.286  1.00  0.00     0.475 A  
HETATM   16  C   UNL     1      -6.503  14.582  70.886  1.00  0.00     0.160 A  
HETATM   17  C   UNL     1      -7.024  13.470  70.220  1.00  0.00     0.738 A  
HETATM   18  N   UNL     1      -5.565  14.483  71.833  1.00  0.00    -0.098 NA 
HETATM   19  C   UNL     1      -5.127  13.254  72.122  1.00  0.00    -0.105 A  
HETATM   20  C   UNL     1      -6.433  12.227  70.551  1.00  0.00     0.675 A  
BRANCH  12  21
HETATM   21  O   UNL     1      -8.115  17.363  69.205  1.00  0.00    -0.149 OA 
BRANCH  21  22
HETATM   22  C   UNL     1      -7.202  18.007  68.323  1.00  0.00    -0.248 C  
HETATM   23  C   UNL     1      -7.046  19.772  66.697  1.00  0.00    -0.227 C  
HETATM   24  C   UNL     1      -6.864  19.356  68.951  1.00  0.00    -0.335 C  
HETATM   25  O   UNL     1      -6.382  20.185  67.896  1.00  0.00    -0.222 OA 
HETATM   26  C   UNL     1      -7.730  18.437  66.968  1.00  0.00    -0.234 C  
ENDBRANCH  21  22
ENDBRANCH  12  21
BRANCH  20  27
HETATM   27  N   UNL     1      -6.830  11.054  69.849  1.00  0.00    -0.274 NA 
HETATM   28  H   UNL     1      -6.639  11.051  68.847  1.00  0.00     0.000 HD 
BRANCH  27  29
HETATM   29  C   UNL     1      -7.457   9.890  70.360  1.00  0.00    -0.122 A  
HETATM   30  C   UNL     1      -8.829   9.635  70.215  1.00  0.00    -0.253 A  
HETATM   31  C   UNL     1      -9.392   8.448  70.693  1.00  0.00    -0.160 A  
HETATM   32 CL   UNL     1     -11.093   8.198  70.536  1.00  0.00    -0.255 Cl 
HETATM   33  C   UNL     1      -8.588   7.488  71.295  1.00  0.00    -0.121 A  
HETATM   34  C   UNL     1      -7.221   7.692  71.405  1.00  0.00    -0.066 A  
HETATM   35  F   UNL     1      -9.112   6.345  71.757  1.00  0.00    -0.142 F  
HETATM   36  C   UNL     1      -6.657   8.882  70.932  1.00  0.00    -0.061 A  
ENDBRANCH  27  29
ENDBRANCH  20  27
ENDBRANCH   8  11
ENDBRANCH   6   7
ENDBRANCH   4   5
ENDBRANCH   2   4
TORSDOF 8
ENDMDL
MODEL      197
REMARK 921   NORMALIZED FREE ENERGY PREDICTED BY IDOCK:    0.79 KCAL/MOL
REMARK 922        TOTAL FREE ENERGY PREDICTED BY IDOCK:   -0.39 KCAL/MOL
REMARK 923 INTER-LIGAND FREE ENERGY PREDICTED BY IDOCK:   -2.95 KCAL/MOL
REMARK 924 INTRA-LIGAND FREE ENERGY PREDICTED BY IDOCK:    2.57 KCAL/MOL
REMARK 927      BINDING AFFINITY PREDICTED BY RF-SCORE:    0.00 PKD
ROOT
HETATM    1  C   UNL     1     -13.194   5.537  72.450  1.00  0.00     1.219 C  
HETATM    2  N   UNL     1     -12.161   6.548  72.189  1.00  0.00    -0.300 NA 
HETATM    3  C   UNL     1     -10.841   5.904  72.275  1.00  0.00    -0.245 C  
ENDROOT
BRANCH   2   4
HETATM    4  C   UNL     1     -12.325   7.135  70.848  1.00  0.00    -0.292 C  
BRANCH   4   5
HETATM    5  C   UNL     1     -11.505   8.357  70.543  1.00  0.00    -0.189 C  
HETATM    6  C   UNL     1     -10.537   8.491  69.619  1.00  0.00    -0.221 C  
BRANCH   6   7
HETATM    7  C   UNL     1      -9.835   9.797  69.493  1.00  0.00    -0.214 C  
HETATM    8  N   UNL     1      -8.462   9.674  69.349  1.00  0.00    -0.142 N  
HETATM    9  O   UNL     1     -10.468  10.847  69.442  1.00  0.00    -0.219 OA 
HETATM   10  H   UNL     1      -8.035   8.753  69.445  1.00  0.00     0.000 HD 
BRANCH   8  11
HETATM   11  C   UNL     1      -7.633  10.788  69.074  1.00  0.00    -0.126 A  
HETATM   12  C   UNL     1      -6.272  10.802  69.384  1.00  0.00    -0.059 A  
HETATM   13  N   UNL     1      -7.093  15.316  67.321  1.00  0.00    -0.190 NA 
HETATM   14  C   UNL     1      -5.504  11.920  69.020  1.00  0.00    -0.051 A  
HETATM   15  C   UNL     1      -8.199  11.949  68.516  1.00  0.00    -0.126 A  
HETATM   16  C   UNL     1      -6.043  13.045  68.402  1.00  0.00    -0.081 A  
HETATM   17  C   UNL     1      -7.423  13.095  68.194  1.00  0.00    -0.131 A  
HETATM   18  N   UNL     1      -5.224  14.045  68.063  1.00  0.00    -0.147 NA 
HETATM   19  C   UNL     1      -5.787  15.124  67.510  1.00  0.00     0.038 A  
HETATM   20  C   UNL     1      -7.919  14.315  67.674  1.00  0.00    -0.180 A  
BRANCH  12  21
HETATM   21  O   UNL     1      -5.602   9.902  70.161  1.00  0.00    -0.039 OA 
BRANCH  21  22
HETATM   22  C   UNL     1      -5.971   9.658  71.513  1.00  0.00     0.006 C  
HETATM   23  C   UNL     1      -5.138   8.764  73.584  1.00  0.00    -0.072 C  
HETATM   24  C   UNL     1      -5.253  10.706  72.359  1.00  0.00     0.252 C  
HETATM   25  O   UNL     1      -5.204  10.190  73.687  1.00  0.00    -0.323 OA 
HETATM   26  C   UNL     1      -5.473   8.375  72.149  1.00  0.00    -0.041 C  
ENDBRANCH  21  22
ENDBRANCH  12  21
BRANCH  20  27
HETATM   27  N   UNL     1      -9.323  14.493  67.523  1.00  0.00    -0.189 NA 
HETATM   28  H   UNL     1      -9.616  15.055  66.723  1.00  0.00     0.000 HD 
BRANCH  27  29
HETATM   29  C   UNL     1     -10.368  13.991  68.339  1.00  0.00    -0.251 A  
HETATM   30  C   UNL     1     -10.836  14.662  69.480  1.00  0.00    -0.238 A  
HETATM   31  C   UNL     1     -11.904  14.152  70.223  1.00  0.00    -0.303 A  
HETATM   32 CL   UNL     1     -12.414  14.985  71.647  1.00  0.00    -0.376 Cl 
HETATM   33  C   UNL     1     -12.537  12.983  69.822  1.00  0.00     0.224 A  
HETATM   34  C   UNL     1     -12.129  12.329  68.670  1.00  0.00    -0.139 A  
HETATM   35  F   UNL     1     -13.563  12.483  70.524  1.00  0.00     0.473 F  
HETATM   36  C   UNL     1     -11.057  12.834  67.928  1.00  0.00    -0.281 A  
ENDBRANCH  27  29
ENDBRANCH  20  27
ENDBRANCH   8  11
ENDBRANCH   6   7
ENDBRANCH   4   5
ENDBRANCH   2   4
TORSDOF 8
ENDMDL
MODEL      198
REMARK 921   NORMALIZED FREE ENERGY PREDICTED BY IDOCK:    1.97 KCAL/MOL
REMARK 922        TOTAL FREE ENERGY PREDICTED BY IDOCK:    1.36 KCAL/MOL
REMARK 923 INTER-LIGAND FREE ENERGY PREDICTED BY IDOCK:   -1.85 KCAL/MOL
REMARK 924 INTRA-LIGAND FREE ENERGY PREDICTED BY IDOCK:    3.20 KCAL/MOL
REMARK 927      BINDING AFFINITY PREDICTED BY RF-SCORE:    0.00 PKD
ROOT
HETATM    1  C   UNL     1      -9.626  13.912  65.833  1.00  0.00    -0.145 C  
HETATM    2  N   UNL     1      -9.664  13.607  67.269  1.00  0.00    -0.237 NA 
HETATM    3  C   UNL     1     -10.252  14.755  67.977  1.00  0.00    -0.226 C  
ENDROOT
BRANCH   2   4
HETATM    4  C   UNL     1     -10.478  12.408  67.531  1.00  0.00    -0.215 C  
BRANCH   4   5
HETATM    5  C   UNL     1      -9.778  11.249  68.183  1.00  0.00    -0.188 C  
HETATM    6  C   UNL     1      -9.444  10.070  67.629  1.00  0.00    -0.163 C  
BRANCH   6   7
HETATM    7  C   UNL     1      -8.762   9.046  68.465  1.00  0.00    -0.133 C  
HETATM    8  N   UNL     1      -8.550   7.846  67.805  1.00  0.00    -0.128 N  
HETATM    9  O   UNL     1      -8.371   9.318  69.596  1.00  0.00    -0.120 OA 
HETATM   10  H   UNL     1      -8.952   7.714  66.877  1.00  0.00     0.000 HD 
BRANCH   8  11
HETATM   11  C   UNL     1      -7.794   6.796  68.379  1.00  0.00    -0.114 A  
HETATM   12  C   UNL     1      -6.442   6.603  68.090  1.00  0.00    -0.053 A  
HETATM   13  N   UNL     1      -7.532   2.898  71.313  1.00  0.00    -0.036 NA 
HETATM   14  C   UNL     1      -5.745   5.578  68.751  1.00  0.00    -0.015 A  
HETATM   15  C   UNL     1      -8.427   5.875  69.233  1.00  0.00    -0.113 A  
HETATM   16  C   UNL     1      -6.348   4.706  69.652  1.00  0.00    -0.027 A  
HETATM   17  C   UNL     1      -7.726   4.811  69.861  1.00  0.00    -0.055 A  
HETATM   18  N   UNL     1      -5.593   3.784  70.256  1.00  0.00    -0.012 NA 
HETATM   19  C   UNL     1      -6.219   2.940  71.083  1.00  0.00    -0.018 A  
HETATM   20  C   UNL     1      -8.294   3.818  70.695  1.00  0.00    -0.068 A  
BRANCH  12  21
HETATM   21  O   UNL     1      -5.725   7.207  67.098  1.00  0.00    -0.023 OA 
BRANCH  21  22
HETATM   22  C   UNL     1      -6.119   8.456  66.542  1.00  0.00    -0.053 C  
HETATM   23  C   UNL     1      -5.283  10.338  65.299  1.00  0.00    -0.085 C  
HETATM   24  C   UNL     1      -6.214   8.252  65.032  1.00  0.00    -0.049 C  
HETATM   25  O   UNL     1      -6.112   9.546  64.442  1.00  0.00    -0.075 OA 
HETATM   26  C   UNL     1      -5.125   9.598  66.623  1.00  0.00    -0.040 C  
ENDBRANCH  21  22
ENDBRANCH  12  21
BRANCH  20  27
HETATM   27  N   UNL     1      -9.705   3.786  70.884  1.00  0.00    -0.188 NA 
HETATM   28  H   UNL     1     -10.115   2.859  71.008  1.00  0.00     0.000 HD 
BRANCH  27  29
HETATM   29  C   UNL     1     -10.615   4.872  70.921  1.00  0.00    -0.007 A  
HETATM   30  C   UNL     1     -10.602   5.912  69.979  1.00  0.00    -0.364 A  
HETATM   31  C   UNL     1     -11.553   6.935  70.028  1.00  0.00    -0.246 A  
HETATM   32 CL   UNL     1     -11.468   8.221  68.878  1.00  0.00     0.658 Cl 
HETATM   33  C   UNL     1     -12.546   6.917  70.998  1.00  0.00    -0.265 A  
HETATM   34  C   UNL     1     -12.614   5.874  71.908  1.00  0.00     0.474 A  
HETATM   35  F   UNL     1     -13.465   7.890  71.057  1.00  0.00    -0.247 F  
HETATM   36  C   UNL     1     -11.660   4.853  71.865  1.00  0.00     0.732 A  
ENDBRANCH  27  29
ENDBRANCH  20  27
ENDBRANCH   8  11
ENDBRANCH   6   7
ENDBRANCH   4   5
ENDBRANCH   2   4
TORSDOF 8
ENDMDL
MODEL      199
REMARK 921   NORMALIZED FREE ENERGY PREDICTED BY IDOCK:    2.11 KCAL/MOL
REMARK 922        TOTAL FREE ENERGY PREDICTED BY IDOCK:    1.56 KCAL/MOL
REMARK 923 INTER-LIGAND FREE ENERGY PREDICTED BY IDOCK:   -1.34 KCAL/MOL
REMARK 924 INTRA-LIGAND FREE ENERGY PREDICTED BY IDOCK:    2.90 KCAL/MOL
REMARK 927      BINDING AFFINITY PREDICTED BY RF-SCORE:    0.00 PKD
ROOT
HETATM    1  C   UNL     1      -7.898  16.724  69.810  1.00  0.00     0.783 C  
HETATM    2  N   UNL     1      -7.075  17.283  68.731  1.00  0.00    -0.227 NA 
HETATM    3  C   UNL     1      -6.302  18.414  69.266  1.00  0.00    -0.260 C  
ENDROOT
BRANCH   2   4
HETATM    4  C   UNL     1      -6.145  16.271  68.199  1.00  0.00    -0.118 C  
BRANCH   4   5
HETATM    5  C   UNL     1      -6.762  15.070  67.542  1.00  0.00    -0.178 C  
HETATM    6  C   UNL     1      -6.446  13.775  67.726  1.00  0.00    -0.178 C  
BRANCH   6   7
HETATM    7  C   UNL     1      -7.180  12.736  66.955  1.00  0.00     0.292 C  
HETATM    8  N   UNL     1      -6.353  11.770  66.402  1.00  0.00    -0.344 N  
HETATM    9  O   UNL     1      -8.407  12.734  66.913  1.00  0.00    -0.155 OA 
HETATM   10  H   UNL     1      -5.342  11.890  66.466  1.00  0.00     0.000 HD 
BRANCH   8  11
HETATM   11  C   UNL     1      -6.867  10.622  65.754  1.00  0.00    -0.098 A  
HETATM   12  C   UNL     1      -7.827  10.700  64.745  1.00  0.00     0.067 A  
HETATM   13  N   UNL     1      -6.971   5.766  65.225  1.00  0.00    -0.062 NA 
HETATM   14  C   UNL     1      -8.238   9.519  64.105  1.00  0.00    -0.159 A  
HETATM   15  C   UNL     1      -6.440   9.347  66.167  1.00  0.00    -0.069 A  
HETATM   16  C   UNL     1      -7.768   8.258  64.460  1.00  0.00    -0.123 A  
HETATM   17  C   UNL     1      -6.897   8.153  65.547  1.00  0.00    -0.062 A  
HETATM   18  N   UNL     1      -8.193   7.196  63.768  1.00  0.00     0.012 NA 
HETATM   19  C   UNL     1      -7.750   6.000  64.167  1.00  0.00    -0.108 A  
HETATM   20  C   UNL     1      -6.554   6.834  65.929  1.00  0.00    -0.051 A  
BRANCH  12  21
HETATM   21  O   UNL     1      -8.556  11.799  64.394  1.00  0.00     0.657 OA 
BRANCH  21  22
HETATM   22  C   UNL     1      -9.952  11.888  64.659  1.00  0.00    -0.230 C  
HETATM   23  C   UNL     1     -12.052  12.469  63.641  1.00  0.00    -0.554 C  
HETATM   24  C   UNL     1     -10.609  10.707  63.951  1.00  0.00     0.104 C  
HETATM   25  O   UNL     1     -11.983  11.047  63.785  1.00  0.00     0.488 OA 
HETATM   26  C   UNL     1     -10.703  13.054  64.045  1.00  0.00    -0.387 C  
ENDBRANCH  21  22
ENDBRANCH  12  21
BRANCH  20  27
HETATM   27  N   UNL     1      -5.752   6.626  67.087  1.00  0.00    -0.013 NA 
HETATM   28  H   UNL     1      -4.996   5.948  66.987  1.00  0.00     0.000 HD 
BRANCH  27  29
HETATM   29  C   UNL     1      -5.866   7.239  68.360  1.00  0.00    -0.023 A  
HETATM   30  C   UNL     1      -6.532   8.457  68.565  1.00  0.00    -0.055 A  
HETATM   31  C   UNL     1      -6.662   8.996  69.847  1.00  0.00    -0.046 A  
HETATM   32 CL   UNL     1      -7.447  10.521  70.046  1.00  0.00    -0.107 Cl 
HETATM   33  C   UNL     1      -6.155   8.313  70.945  1.00  0.00    -0.033 A  
HETATM   34  C   UNL     1      -5.538   7.083  70.777  1.00  0.00    -0.027 A  
HETATM   35  F   UNL     1      -6.273   8.816  72.181  1.00  0.00    -0.064 F  
HETATM   36  C   UNL     1      -5.402   6.545  69.494  1.00  0.00    -0.014 A  
ENDBRANCH  27  29
ENDBRANCH  20  27
ENDBRANCH   8  11
ENDBRANCH   6   7
ENDBRANCH   4   5
ENDBRANCH   2   4
TORSDOF 8
ENDMDL
MODEL      200
REMARK 921   NORMALIZED FREE ENERGY PREDICTED BY IDOCK:    2.55 KCAL/MOL
REMARK 922        TOTAL FREE ENERGY PREDICTED BY IDOCK:    2.20 KCAL/MOL
REMARK 923 INTER-LIGAND FREE ENERGY PREDICTED BY IDOCK:   -0.12 KCAL/MOL
REMARK 924 INTRA-LIGAND FREE ENERGY PREDICTED BY IDOCK:    2.32 KCAL/MOL
REMARK 927      BINDING AFFINITY PREDICTED BY RF-SCORE:    0.00 PKD
ROOT
HETATM    1  C   UNL     1      -6.670   9.093  63.824  1.00  0.00    -0.090 C  
HETATM    2  N   UNL     1      -7.598   9.555  64.864  1.00  0.00    -0.107 NA 
HETATM    3  C   UNL     1      -6.912   9.499  66.164  1.00  0.00    -0.091 C  
ENDROOT
BRANCH   2   4
HETATM    4  C   UNL     1      -8.032  10.939  64.607  1.00  0.00     0.284 C  
BRANCH   4   5
HETATM    5  C   UNL     1      -8.436  11.752  65.805  1.00  0.00     0.290 C  
HETATM    6  C   UNL     1      -9.122  11.342  66.886  1.00  0.00    -0.172 C  
BRANCH   6   7
HETATM    7  C   UNL     1      -9.430  12.323  67.961  1.00  0.00    -0.206 C  
HETATM    8  N   UNL     1     -10.583  13.056  67.726  1.00  0.00    -0.223 N  
HETATM    9  O   UNL     1      -8.742  12.380  68.976  1.00  0.00     0.218 OA 
HETATM   10  H   UNL     1     -11.059  12.956  66.829  1.00  0.00     0.000 HD 
BRANCH   8  11
HETATM   11  C   UNL     1     -11.123  13.938  68.692  1.00  0.00    -0.265 A  
HETATM   12  C   UNL     1     -11.258  15.308  68.462  1.00  0.00    -0.303 A  
HETATM   13  N   UNL     1     -13.027  14.684  73.130  1.00  0.00    -0.514 NA 
HETATM   14  C   UNL     1     -11.863  16.106  69.446  1.00  0.00    -0.154 A  
HETATM   15  C   UNL     1     -11.492  13.438  69.955  1.00  0.00    -0.181 A  
HETATM   16  C   UNL     1     -12.297  15.607  70.670  1.00  0.00    -0.413 A  
HETATM   17  C   UNL     1     -12.059  14.262  70.964  1.00  0.00    -0.416 A  
HETATM   18  N   UNL     1     -12.892  16.440  71.529  1.00  0.00     0.388 NA 
HETATM   19  C   UNL     1     -13.256  15.929  72.710  1.00  0.00    -0.503 A  
HETATM   20  C   UNL     1     -12.416  13.849  72.270  1.00  0.00    -0.018 A  
BRANCH  12  21
HETATM   21  O   UNL     1     -10.719  16.019  67.430  1.00  0.00    -0.313 OA 
BRANCH  21  22
HETATM   22  C   UNL     1      -9.892  17.156  67.654  1.00  0.00    -0.270 C  
HETATM   23  C   UNL     1      -7.869  17.854  68.751  1.00  0.00    -0.253 C  
HETATM   24  C   UNL     1      -8.656  16.979  66.776  1.00  0.00    -0.237 C  
HETATM   25  O   UNL     1      -7.638  17.802  67.339  1.00  0.00    -0.196 OA 
HETATM   26  C   UNL     1      -9.260  17.297  69.026  1.00  0.00    -0.109 C  
ENDBRANCH  21  22
ENDBRANCH  12  21
BRANCH  20  27
HETATM   27  N   UNL     1     -12.118  12.522  72.691  1.00  0.00     2.092 NA 
HETATM   28  H   UNL     1     -11.736  12.431  73.633  1.00  0.00     0.000 HD 
BRANCH  27  29
HETATM   29  C   UNL     1     -12.284  11.311  71.974  1.00  0.00     0.930 A  
HETATM   30  C   UNL     1     -11.972  11.181  70.612  1.00  0.00    -0.459 A  
HETATM   31  C   UNL     1     -12.104   9.952  69.960  1.00  0.00     0.051 A  
HETATM   32 CL   UNL     1     -11.755   9.850  68.272  1.00  0.00     0.309 Cl 
HETATM   33  C   UNL     1     -12.523   8.831  70.665  1.00  0.00     0.218 A  
HETATM   34  C   UNL     1     -12.789   8.919  72.023  1.00  0.00    -0.456 A  
HETATM   35  F   UNL     1     -12.654   7.646  70.055  1.00  0.00     0.383 F  
HETATM   36  C   UNL     1     -12.662  10.150  72.675  1.00  0.00     0.668 A  
ENDBRANCH  27  29
ENDBRANCH  20  27
ENDBRANCH   8  11
ENDBRANCH   6   7
ENDBRANCH   4   5
ENDBRANCH   2   4
TORSDOF 8
ENDMDL
MODEL      201
REMARK 921   NORMALIZED FREE ENERGY PREDICTED BY IDOCK:    3.33 KCAL/MOL
REMARK 922        TOTAL FREE ENERGY PREDICTED BY IDOCK:    3.35 KCAL/MOL
REMARK 923 INTER-LIGAND FREE ENERGY PREDICTED BY IDOCK:    2.93 KCAL/MOL
REMARK 924 INTRA-LIGAND FREE ENERGY PREDICTED BY IDOCK:    0.42 KCAL/MOL
REMARK 927      BINDING AFFINITY PREDICTED BY RF-SCORE:    0.00 PKD
ROOT
HETATM    1  C   UNL     1      -5.910  21.201  71.007  1.00  0.00     0.982 C  
HETATM    2  N   UNL     1      -5.960  20.162  69.970  1.00  0.00    -0.331 NA 
HETATM    3  C   UNL     1      -5.860  18.846  70.619  1.00  0.00    -0.068 C  
ENDROOT
BRANCH   2   4
HETATM    4  C   UNL     1      -7.222  20.233  69.214  1.00  0.00     0.098 C  
BRANCH   4   5
HETATM    5  C   UNL     1      -8.111  19.023  69.272  1.00  0.00    -0.020 C  
HETATM    6  C   UNL     1      -9.441  18.966  69.079  1.00  0.00    -0.291 C  
BRANCH   6   7
HETATM    7  C   UNL     1     -10.133  17.654  69.199  1.00  0.00    -0.232 C  
HETATM    8  N   UNL     1     -10.320  17.015  67.983  1.00  0.00    -0.324 N  
HETATM    9  O   UNL     1     -10.415  17.191  70.300  1.00  0.00     0.203 OA 
HETATM   10  H   UNL     1     -10.082  17.509  67.123  1.00  0.00     0.000 HD 
BRANCH   8  11
HETATM   11  C   UNL     1     -10.831  15.699  67.897  1.00  0.00    -0.306 A  
HETATM   12  C   UNL     1     -12.014  15.312  68.528  1.00  0.00    -0.201 A  
HETATM   13  N   UNL     1     -10.435  11.118  66.243  1.00  0.00    -0.253 NA 
HETATM   14  C   UNL     1     -12.489  14.003  68.341  1.00  0.00     0.231 A  
HETATM   15  C   UNL     1     -10.103  14.719  67.197  1.00  0.00    -0.240 A  
HETATM   16  C   UNL     1     -11.810  13.049  67.590  1.00  0.00    -0.351 A  
HETATM   17  C   UNL     1     -10.566  13.384  67.051  1.00  0.00    -0.264 A  
HETATM   18  N   UNL     1     -12.360  11.839  67.441  1.00  0.00     0.049 NA 
HETATM   19  C   UNL     1     -11.656  10.939  66.748  1.00  0.00     0.522 A  
HETATM   20  C   UNL     1      -9.876  12.331  66.403  1.00  0.00    -0.230 A  
BRANCH  12  21
HETATM   21  O   UNL     1     -12.712  16.023  69.461  1.00  0.00     0.018 OA 
BRANCH  21  22
HETATM   22  C   UNL     1     -12.958  15.508  70.765  1.00  0.00    -0.434 C  
HETATM   23  C   UNL     1     -11.983  15.319  72.955  1.00  0.00    -0.407 C  
HETATM   24  C   UNL     1     -13.276  16.706  71.655  1.00  0.00     3.007 C  
HETATM   25  O   UNL     1     -13.035  16.289  72.997  1.00  0.00    -0.430 OA 
HETATM   26  C   UNL     1     -11.785  14.895  71.505  1.00  0.00    -0.394 C  
ENDBRANCH  21  22
ENDBRANCH  12  21
BRANCH  20  27
HETATM   27  N   UNL     1      -8.558  12.555  65.912  1.00  0.00    -0.107 NA 
HETATM   28  H   UNL     1      -8.198  13.502  66.026  1.00  0.00     0.000 HD 
BRANCH  27  29
HETATM   29  C   UNL     1      -7.682  11.633  65.287  1.00  0.00     1.252 A  
HETATM   30  C   UNL     1      -6.915  10.701  66.003  1.00  0.00    -0.128 A  
HETATM   31  C   UNL     1      -6.103   9.778  65.337  1.00  0.00    -0.074 A  
HETATM   32 CL   UNL     1      -5.139   8.683  66.260  1.00  0.00    -0.030 Cl 
HETATM   33  C   UNL     1      -6.070   9.754  63.948  1.00  0.00    -0.114 A  
HETATM   34  C   UNL     1      -6.857  10.629  63.216  1.00  0.00     0.117 A  
HETATM   35  F   UNL     1      -5.298   8.875  63.296  1.00  0.00    -0.064 F  
HETATM   36  C   UNL     1      -7.666  11.557  63.881  1.00  0.00     1.747 A  
ENDBRANCH  27  29
ENDBRANCH  20  27
ENDBRANCH   8  11
ENDBRANCH   6   7
ENDBRANCH   4   5
ENDBRANCH   2   4
TORSDOF 8
ENDMDL
MODEL      202
REMARK 921   NORMALIZED FREE ENERGY PREDICTED BY IDOCK:    3.41 KCAL/MOL
REMARK 922        TOTAL FREE ENERGY PREDICTED BY IDOCK:    3.47 KCAL/MOL
REMARK 923 INTER-LIGAND FREE ENERGY PREDICTED BY IDOCK:    0.70 KCAL/MOL
REMARK 924 INTRA-LIGAND FREE ENERGY PREDICTED BY IDOCK:    2.77 KCAL/MOL
REMARK 927      BINDING AFFINITY PREDICTED BY RF-SCORE:    0.00 PKD
ROOT
HETATM    1  C   UNL     1      -9.949   8.975  71.378  1.00  0.00    -0.318 C  
HETATM    2  N   UNL     1      -8.657   8.278  71.408  1.00  0.00    -0.136 NA 
HETATM    3  C   UNL     1      -8.903   6.829  71.356  1.00  0.00    -0.131 C  
ENDROOT
BRANCH   2   4
HETATM    4  C   UNL     1      -7.822   8.668  70.259  1.00  0.00    -0.097 C  
BRANCH   4   5
HETATM    5  C   UNL     1      -7.859  10.116  69.859  1.00  0.00    -0.164 C  
HETATM    6  C   UNL     1      -7.715  10.636  68.627  1.00  0.00    -0.110 C  
BRANCH   6   7
HETATM    7  C   UNL     1      -7.772  12.112  68.455  1.00  0.00    -0.119 C  
HETATM    8  N   UNL     1      -8.320  12.507  67.245  1.00  0.00    -0.179 N  
HETATM    9  O   UNL     1      -7.429  12.864  69.363  1.00  0.00     0.214 OA 
HETATM   10  H   UNL     1      -8.536  11.797  66.545  1.00  0.00     0.000 HD 
BRANCH   8  11
HETATM   11  C   UNL     1      -8.590  13.864  66.949  1.00  0.00    -0.117 A  
HETATM   12  C   UNL     1      -7.769  14.904  67.388  1.00  0.00    -0.204 A  
HETATM   13  N   UNL     1     -11.423  17.241  64.841  1.00  0.00    -0.244 NA 
HETATM   14  C   UNL     1      -8.069  16.219  66.997  1.00  0.00    -0.244 A  
HETATM   15  C   UNL     1      -9.755  14.197  66.232  1.00  0.00    -0.315 A  
HETATM   16  C   UNL     1      -9.181  16.549  66.228  1.00  0.00    -0.310 A  
HETATM   17  C   UNL     1     -10.077  15.535  65.882  1.00  0.00    -0.374 A  
HETATM   18  N   UNL     1      -9.364  17.826  65.878  1.00  0.00    -0.514 NA 
HETATM   19  C   UNL     1     -10.465  18.106  65.174  1.00  0.00     0.804 A  
HETATM   20  C   UNL     1     -11.246  15.958  65.204  1.00  0.00    -0.224 A  
BRANCH  12  21
HETATM   21  O   UNL     1      -6.764  14.818  68.307  1.00  0.00    -0.095 OA 
BRANCH  21  22
HETATM   22  C   UNL     1      -6.690  15.700  69.421  1.00  0.00    -0.180 C  
HETATM   23  C   UNL     1      -5.164  16.573  71.062  1.00  0.00    -0.114 C  
HETATM   24  C   UNL     1      -5.963  16.953  68.940  1.00  0.00    -0.159 C  
HETATM   25  O   UNL     1      -5.453  17.597  70.105  1.00  0.00    -0.217 OA 
HETATM   26  C   UNL     1      -5.813  15.279  70.585  1.00  0.00    -0.041 C  
ENDBRANCH  21  22
ENDBRANCH  12  21
BRANCH  20  27
HETATM   27  N   UNL     1     -12.263  15.008  64.901  1.00  0.00    -0.218 NA 
HETATM   28  H   UNL     1     -13.216  15.290  65.130  1.00  0.00     0.000 HD 
BRANCH  27  29
HETATM   29  C   UNL     1     -12.123  13.722  64.322  1.00  0.00    -0.440 A  
HETATM   30  C   UNL     1     -10.941  13.285  63.705  1.00  0.00     0.024 A  
HETATM   31  C   UNL     1     -10.835  11.989  63.194  1.00  0.00    -0.207 A  
HETATM   32 CL   UNL     1      -9.379  11.512  62.399  1.00  0.00    -0.050 Cl 
HETATM   33  C   UNL     1     -11.897  11.102  63.318  1.00  0.00     0.767 A  
HETATM   34  C   UNL     1     -13.058  11.490  63.970  1.00  0.00     0.581 A  
HETATM   35  F   UNL     1     -11.811   9.856  62.835  1.00  0.00     3.642 F  
HETATM   36  C   UNL     1     -13.167  12.789  64.477  1.00  0.00     0.185 A  
ENDBRANCH  27  29
ENDBRANCH  20  27
ENDBRANCH   8  11
ENDBRANCH   6   7
ENDBRANCH   4   5
ENDBRANCH   2   4
TORSDOF 8
ENDMDL
MODEL      203
REMARK 921   NORMALIZED FREE ENERGY PREDICTED BY IDOCK:    5.11 KCAL/MOL
REMARK 922        TOTAL FREE ENERGY PREDICTED BY IDOCK:    5.95 KCAL/MOL
REMARK 923 INTER-LIGAND FREE ENERGY PREDICTED BY IDOCK:    4.57 KCAL/MOL
REMARK 924 INTRA-LIGAND FREE ENERGY PREDICTED BY IDOCK:    1.39 KCAL/MOL
REMARK 927      BINDING AFFINITY PREDICTED BY RF-SCORE:    0.00 PKD
ROOT
HETATM    1  C   UNL     1     -11.624  16.820  66.659  1.00  0.00     1.185 C  
HETATM    2  N   UNL     1     -11.346  16.241  65.338  1.00  0.00     0.083 NA 
HETATM    3  C   UNL     1      -9.971  15.719  65.334  1.00  0.00    -0.237 C  
ENDROOT
BRANCH   2   4
HETATM    4  C   UNL     1     -12.280  15.142  65.038  1.00  0.00     0.025 C  
BRANCH   4   5
HETATM    5  C   UNL     1     -12.095  13.870  65.815  1.00  0.00    -0.449 C  
HETATM    6  C   UNL     1     -11.206  12.886  65.588  1.00  0.00    -0.325 C  
BRANCH   6   7
HETATM    7  C   UNL     1     -11.203  11.695  66.479  1.00  0.00    -0.294 C  
HETATM    8  N   UNL     1     -11.820  11.917  67.700  1.00  0.00    -0.265 N  
HETATM    9  O   UNL     1     -10.758  10.620  66.089  1.00  0.00    -0.180 OA 
HETATM   10  H   UNL     1     -12.122  12.862  67.937  1.00  0.00     0.000 HD 
BRANCH   8  11
HETATM   11  C   UNL     1     -12.045  10.873  68.629  1.00  0.00     0.005 A  
HETATM   12  C   UNL     1     -12.631  11.095  69.876  1.00  0.00    -0.105 A  
HETATM   13  N   UNL     1     -11.721   6.147  69.827  1.00  0.00    -0.179 NA 
HETATM   14  C   UNL     1     -12.880   9.996  70.715  1.00  0.00    -0.341 A  
HETATM   15  C   UNL     1     -11.620   9.568  68.318  1.00  0.00     0.707 A  
HETATM   16  C   UNL     1     -12.527   8.691  70.385  1.00  0.00     0.552 A  
HETATM   17  C   UNL     1     -11.832   8.469  69.193  1.00  0.00     1.484 A  
HETATM   18  N   UNL     1     -12.837   7.707  71.235  1.00  0.00    -0.296 NA 
HETATM   19  C   UNL     1     -12.443   6.475  70.900  1.00  0.00     0.018 A  
HETATM   20  C   UNL     1     -11.398   7.139  68.978  1.00  0.00     0.181 A  
BRANCH  12  21
HETATM   21  O   UNL     1     -12.859  12.303  70.468  1.00  0.00    -0.022 OA 
BRANCH  21  22
HETATM   22  C   UNL     1     -11.855  13.309  70.531  1.00  0.00    -0.134 C  
HETATM   23  C   UNL     1      -9.711  13.920  69.630  1.00  0.00     0.918 C  
HETATM   24  C   UNL     1     -11.968  14.122  69.245  1.00  0.00    -0.340 C  
HETATM   25  O   UNL     1     -10.713  14.772  69.064  1.00  0.00    -0.235 OA 
HETATM   26  C   UNL     1     -10.410  12.854  70.465  1.00  0.00     3.663 C  
ENDBRANCH  21  22
ENDBRANCH  12  21
BRANCH  20  27
HETATM   27  N   UNL     1     -10.597   6.840  67.839  1.00  0.00    -0.216 NA 
HETATM   28  H   UNL     1     -11.003   7.084  66.935  1.00  0.00     0.000 HD 
BRANCH  27  29
HETATM   29  C   UNL     1      -9.310   6.247  67.798  1.00  0.00    -0.113 A  
HETATM   30  C   UNL     1      -9.063   4.928  68.207  1.00  0.00    -0.138 A  
HETATM   31  C   UNL     1      -7.785   4.372  68.099  1.00  0.00    -0.079 A  
HETATM   32 CL   UNL     1      -7.516   2.761  68.660  1.00  0.00    -0.048 Cl 
HETATM   33  C   UNL     1      -6.745   5.115  67.554  1.00  0.00    -0.055 A  
HETATM   34  C   UNL     1      -6.974   6.402  67.095  1.00  0.00    -0.071 A  
HETATM   35  F   UNL     1      -5.516   4.595  67.443  1.00  0.00    -0.010 F  
HETATM   36  C   UNL     1      -8.251   6.962  67.207  1.00  0.00    -0.118 A  
ENDBRANCH  27  29
ENDBRANCH  20  27
ENDBRANCH   8  11
ENDBRANCH   6   7
ENDBRANCH   4   5
ENDBRANCH   2   4
TORSDOF 8
ENDMDL
MODEL      204
REMARK 921   NORMALIZED FREE ENERGY PREDICTED BY IDOCK:    5.30 KCAL/MOL
REMARK 922        TOTAL FREE ENERGY PREDICTED BY IDOCK:    6.24 KCAL/MOL
REMARK 923 INTER-LIGAND FREE ENERGY PREDICTED BY IDOCK:    7.52 KCAL/MOL
REMARK 924 INTRA-LIGAND FREE ENERGY PREDICTED BY IDOCK:   -1.27 KCAL/MOL
REMARK 927      BINDING AFFINITY PREDICTED BY RF-SCORE:    0.00 PKD
ROOT
HETATM    1  C   UNL     1     -13.751  10.680  64.577  1.00  0.00     8.199 C  
HETATM    2  N   UNL     1     -12.980  11.755  63.941  1.00  0.00    -0.447 NA 
HETATM    3  C   UNL     1     -13.514  11.982  62.590  1.00  0.00     2.258 C  
ENDROOT
BRANCH   2   4
HETATM    4  C   UNL     1     -13.079  13.004  64.716  1.00  0.00     0.056 C  
BRANCH   4   5
HETATM    5  C   UNL     1     -11.821  13.483  65.385  1.00  0.00    -0.379 C  
HETATM    6  C   UNL     1     -11.136  14.615  65.141  1.00  0.00    -0.382 C  
BRANCH   6   7
HETATM    7  C   UNL     1      -9.896  14.890  65.915  1.00  0.00    -0.332 C  
HETATM    8  N   UNL     1     -10.074  14.815  67.288  1.00  0.00    -0.235 N  
HETATM    9  O   UNL     1      -8.827  15.079  65.343  1.00  0.00     0.734 OA 
HETATM   10  H   UNL     1     -11.016  14.690  67.658  1.00  0.00     0.000 HD 
BRANCH   8  11
HETATM   11  C   UNL     1      -8.989  14.906  68.192  1.00  0.00    -0.176 A  
HETATM   12  C   UNL     1      -8.476  13.793  68.859  1.00  0.00     0.129 A  
HETATM   13  N   UNL     1      -5.641  17.608  70.508  1.00  0.00    -0.231 NA 
HETATM   14  C   UNL     1      -7.356  13.956  69.691  1.00  0.00     0.309 A  
HETATM   15  C   UNL     1      -8.432  16.166  68.478  1.00  0.00    -0.197 A  
HETATM   16  C   UNL     1      -6.754  15.189  69.924  1.00  0.00    -0.165 A  
HETATM   17  C   UNL     1      -7.329  16.329  69.358  1.00  0.00    -0.173 A  
HETATM   18  N   UNL     1      -5.670  15.237  70.705  1.00  0.00    -0.116 NA 
HETATM   19  C   UNL     1      -5.147  16.445  70.936  1.00  0.00    -0.188 A  
HETATM   20  C   UNL     1      -6.739  17.561  69.733  1.00  0.00     0.114 A  
BRANCH  12  21
HETATM   21  O   UNL     1      -9.038  12.552  68.929  1.00  0.00     0.100 OA 
BRANCH  21  22
HETATM   22  C   UNL     1      -8.263  11.368  68.779  1.00  0.00    -0.107 C  
HETATM   23  C   UNL     1      -8.335   9.145  67.864  1.00  0.00    -0.117 C  
HETATM   24  C   UNL     1      -7.817  11.318  67.321  1.00  0.00    -0.141 C  
HETATM   25  O   UNL     1      -7.491   9.959  67.043  1.00  0.00    -0.091 OA 
HETATM   26  C   UNL     1      -8.986  10.041  68.911  1.00  0.00    -0.152 C  
ENDBRANCH  21  22
ENDBRANCH  12  21
BRANCH  20  27
HETATM   27  N   UNL     1      -7.321  18.781  69.285  1.00  0.00    -0.184 NA 
HETATM   28  H   UNL     1      -7.836  19.311  69.988  1.00  0.00     0.000 HD 
BRANCH  27  29
HETATM   29  C   UNL     1      -7.278  19.355  67.990  1.00  0.00    -0.273 A  
HETATM   30  C   UNL     1      -6.553  18.792  66.928  1.00  0.00    -0.202 A  
HETATM   31  C   UNL     1      -6.583  19.368  65.655  1.00  0.00    -0.249 A  
HETATM   32 CL   UNL     1      -5.637  18.670  64.391  1.00  0.00    -0.230 Cl 
HETATM   33  C   UNL     1      -7.360  20.495  65.418  1.00  0.00     0.030 A  
HETATM   34  C   UNL     1      -8.127  21.041  66.436  1.00  0.00     0.556 A  
HETATM   35  F   UNL     1      -7.400  21.058  64.203  1.00  0.00    -0.023 F  
HETATM   36  C   UNL     1      -8.093  20.469  67.712  1.00  0.00    -0.176 A  
ENDBRANCH  27  29
ENDBRANCH  20  27
ENDBRANCH   8  11
ENDBRANCH   6   7
ENDBRANCH   4   5
ENDBRANCH   2   4
TORSDOF 8
ENDMDL
MODEL      205
REMARK 921   NORMALIZED FREE ENERGY PREDICTED BY IDOCK:    5.52 KCAL/MOL
REMARK 922        TOTAL FREE ENERGY PREDICTED BY IDOCK:    6.56 KCAL/MOL
REMARK 923 INTER-LIGAND FREE ENERGY PREDICTED BY IDOCK:    6.25 KCAL/MOL
REMARK 924 INTRA-LIGAND FREE ENERGY PREDICTED BY IDOCK:    0.31 KCAL/MOL
REMARK 927      BINDING AFFINITY PREDICTED BY RF-SCORE:    0.00 PKD
ROOT
HETATM    1  C   UNL     1     -13.143  19.900  67.323  1.00  0.00     5.682 C  
HETATM    2  N   UNL     1     -11.877  20.612  67.536  1.00  0.00     3.055 NA 
HETATM    3  C   UNL     1     -11.536  20.547  68.966  1.00  0.00     2.643 C  
ENDROOT
BRANCH   2   4
HETATM    4  C   UNL     1     -10.790  20.001  66.752  1.00  0.00    -0.107 C  
BRANCH   4   5
HETATM    5  C   UNL     1     -10.241  18.699  67.262  1.00  0.00    -0.413 C  
HETATM    6  C   UNL     1      -9.402  18.506  68.296  1.00  0.00    -0.350 C  
BRANCH   6   7
HETATM    7  C   UNL     1      -8.967  17.122  68.625  1.00  0.00    -0.267 C  
HETATM    8  N   UNL     1      -8.333  16.477  67.575  1.00  0.00    -0.163 N  
HETATM    9  O   UNL     1      -9.108  16.673  69.759  1.00  0.00     0.281 OA 
HETATM   10  H   UNL     1      -8.305  16.930  66.662  1.00  0.00     0.000 HD 
BRANCH   8  11
HETATM   11  C   UNL     1      -7.723  15.210  67.730  1.00  0.00    -0.149 A  
HETATM   12  C   UNL     1      -6.362  15.001  67.500  1.00  0.00    -0.061 A  
HETATM   13  N   UNL     1      -8.077  10.461  68.826  1.00  0.00    -0.117 NA 
HETATM   14  C   UNL     1      -5.820  13.728  67.739  1.00  0.00    -0.103 A  
HETATM   15  C   UNL     1      -8.515  14.100  68.078  1.00  0.00    -0.171 A  
HETATM   16  C   UNL     1      -6.584  12.641  68.152  1.00  0.00    -0.081 A  
HETATM   17  C   UNL     1      -7.966  12.804  68.271  1.00  0.00    -0.151 A  
HETATM   18  N   UNL     1      -5.970  11.477  68.387  1.00  0.00    -0.045 NA 
HETATM   19  C   UNL     1      -6.746  10.447  68.742  1.00  0.00    -0.053 A  
HETATM   20  C   UNL     1      -8.696  11.629  68.577  1.00  0.00    -0.130 A  
BRANCH  12  21
HETATM   21  O   UNL     1      -5.493  15.867  66.905  1.00  0.00    -0.292 OA 
BRANCH  21  22
HETATM   22  C   UNL     1      -5.911  17.143  66.432  1.00  0.00    -0.131 C  
HETATM   23  C   UNL     1      -5.200  19.433  66.243  1.00  0.00    -0.157 C  
HETATM   24  C   UNL     1      -5.130  17.412  65.149  1.00  0.00     0.808 C  
HETATM   25  O   UNL     1      -5.153  18.824  64.949  1.00  0.00    -0.145 OA 
HETATM   26  C   UNL     1      -5.533  18.352  67.266  1.00  0.00    -0.144 C  
ENDBRANCH  21  22
ENDBRANCH  12  21
BRANCH  20  27
HETATM   27  N   UNL     1     -10.118  11.680  68.619  1.00  0.00    -0.256 NA 
HETATM   28  H   UNL     1     -10.569  12.138  67.827  1.00  0.00     0.000 HD 
BRANCH  27  29
HETATM   29  C   UNL     1     -10.989  11.177  69.617  1.00  0.00    -0.192 A  
HETATM   30  C   UNL     1     -11.917  11.980  70.298  1.00  0.00    -0.398 A  
HETATM   31  C   UNL     1     -12.790  11.428  71.239  1.00  0.00    -0.379 A  
HETATM   32 CL   UNL     1     -13.881  12.462  72.087  1.00  0.00    -0.286 Cl 
HETATM   33  C   UNL     1     -12.770  10.061  71.490  1.00  0.00    -0.429 A  
HETATM   34  C   UNL     1     -11.900   9.237  70.794  1.00  0.00    -0.303 A  
HETATM   35  F   UNL     1     -13.601   9.517  72.388  1.00  0.00    -0.451 F  
HETATM   36  C   UNL     1     -11.021   9.789  69.857  1.00  0.00    -0.299 A  
ENDBRANCH  27  29
ENDBRANCH  20  27
ENDBRANCH   8  11
ENDBRANCH   6   7
ENDBRANCH   4   5
ENDBRANCH   2   4
TORSDOF 8
ENDMDL
MODEL      206
REMARK 921   NORMALIZED FREE ENERGY PREDICTED BY IDOCK:    5.63 KCAL/MOL
REMARK 922        TOTAL FREE ENERGY PREDICTED BY IDOCK:    6.72 KCAL/MOL
REMARK 923 INTER-LIGAND FREE ENERGY PREDICTED BY IDOCK:    4.21 KCAL/MOL
REMARK 924 INTRA-LIGAND FREE ENERGY PREDICTED BY IDOCK:    2.52 KCAL/MOL
REMARK 927      BINDING AFFINITY PREDICTED BY RF-SCORE:    0.00 PKD
ROOT
HETATM    1  C   UNL     1      -5.816  21.036  72.024  1.00  0.00     0.840 C  
HETATM    2  N   UNL     1      -5.906  19.995  70.992  1.00  0.00    -0.308 NA 
HETATM    3  C   UNL     1      -5.838  18.679  71.645  1.00  0.00     0.510 C  
ENDROOT
BRANCH   2   4
HETATM    4  C   UNL     1      -7.171  20.099  70.246  1.00  0.00     0.444 C  
BRANCH   4   5
HETATM    5  C   UNL     1      -8.096  18.917  70.320  1.00  0.00     1.892 C  
HETATM    6  C   UNL     1      -9.429  18.901  70.143  1.00  0.00     1.316 C  
BRANCH   6   7
HETATM    7  C   UNL     1     -10.160  17.611  70.277  1.00  0.00     1.385 C  
HETATM    8  N   UNL     1     -10.386  16.976  69.066  1.00  0.00    -0.319 N  
HETATM    9  O   UNL     1     -10.438  17.159  71.383  1.00  0.00     1.851 OA 
HETATM   10  H   UNL     1     -10.146  17.461  68.201  1.00  0.00     0.000 HD 
BRANCH   8  11
HETATM   11  C   UNL     1     -10.938  15.676  68.991  1.00  0.00    -0.263 A  
HETATM   12  C   UNL     1     -12.148  15.340  69.601  1.00  0.00    -0.312 A  
HETATM   13  N   UNL     1     -10.659  11.055  67.426  1.00  0.00    -0.222 NA 
HETATM   14  C   UNL     1     -12.662  14.045  69.425  1.00  0.00     0.320 A  
HETATM   15  C   UNL     1     -10.228  14.660  68.325  1.00  0.00    -0.227 A  
HETATM   16  C   UNL     1     -11.999  13.054  68.707  1.00  0.00    -0.266 A  
HETATM   17  C   UNL     1     -10.732  13.339  68.192  1.00  0.00    -0.264 A  
HETATM   18  N   UNL     1     -12.585  11.862  68.567  1.00  0.00     0.291 NA 
HETATM   19  C   UNL     1     -11.897  10.926  67.906  1.00  0.00     0.100 A  
HETATM   20  C   UNL     1     -10.063  12.252  67.579  1.00  0.00    -0.201 A  
BRANCH  12  21
HETATM   21  O   UNL     1     -12.842  16.091  70.504  1.00  0.00    -0.353 OA 
BRANCH  21  22
HETATM   22  C   UNL     1     -13.033  15.660  71.847  1.00  0.00    -0.463 C  
HETATM   23  C   UNL     1     -11.886  14.661  73.710  1.00  0.00     0.100 C  
HETATM   24  C   UNL     1     -12.351  16.693  72.740  1.00  0.00     0.025 C  
HETATM   25  O   UNL     1     -12.101  16.049  73.987  1.00  0.00    -0.454 OA 
HETATM   26  C   UNL     1     -12.328  14.388  72.277  1.00  0.00    -0.273 C  
ENDBRANCH  21  22
ENDBRANCH  12  21
BRANCH  20  27
HETATM   27  N   UNL     1      -8.728  12.422  67.115  1.00  0.00    -0.189 NA 
HETATM   28  H   UNL     1      -8.374  11.686  66.503  1.00  0.00     0.000 HD 
BRANCH  27  29
HETATM   29  C   UNL     1      -7.827  13.480  67.392  1.00  0.00    -0.147 A  
HETATM   30  C   UNL     1      -7.876  14.718  66.733  1.00  0.00     0.218 A  
HETATM   31  C   UNL     1      -6.997  15.749  67.077  1.00  0.00    -0.093 A  
HETATM   32 CL   UNL     1      -7.061  17.238  66.206  1.00  0.00    -0.310 Cl 
HETATM   33  C   UNL     1      -6.078  15.568  68.103  1.00  0.00    -0.133 A  
HETATM   34  C   UNL     1      -6.042  14.373  68.805  1.00  0.00    -0.088 A  
HETATM   35  F   UNL     1      -5.230  16.547  68.445  1.00  0.00    -0.099 F  
HETATM   36  C   UNL     1      -6.917  13.338  68.458  1.00  0.00    -0.103 A  
ENDBRANCH  27  29
ENDBRANCH  20  27
ENDBRANCH   8  11
ENDBRANCH   6   7
ENDBRANCH   4   5
ENDBRANCH   2   4
TORSDOF 8
ENDMDL
MODEL      207
REMARK 921   NORMALIZED FREE ENERGY PREDICTED BY IDOCK:    6.77 KCAL/MOL
REMARK 922        TOTAL FREE ENERGY PREDICTED BY IDOCK:    8.40 KCAL/MOL
REMARK 923 INTER-LIGAND FREE ENERGY PREDICTED BY IDOCK:    7.82 KCAL/MOL
REMARK 924 INTRA-LIGAND FREE ENERGY PREDICTED BY IDOCK:    0.58 KCAL/MOL
REMARK 927      BINDING AFFINITY PREDICTED BY RF-SCORE:    0.00 PKD
ROOT
HETATM    1  C   UNL     1      -7.816  18.022  70.274  1.00  0.00     2.614 C  
HETATM    2  N   UNL     1      -8.125  16.742  70.923  1.00  0.00     4.610 NA 
HETATM    3  C   UNL     1      -9.563  16.474  70.775  1.00  0.00     2.760 C  
ENDROOT
BRANCH   2   4
HETATM    4  C   UNL     1      -7.362  15.642  70.308  1.00  0.00     0.575 C  
BRANCH   4   5
HETATM    5  C   UNL     1      -8.103  14.775  69.329  1.00  0.00    -0.088 C  
HETATM    6  C   UNL     1      -9.266  14.127  69.517  1.00  0.00     0.641 C  
BRANCH   6   7
HETATM    7  C   UNL     1      -9.821  13.303  68.409  1.00  0.00    -0.218 C  
HETATM    8  N   UNL     1      -9.144  13.461  67.211  1.00  0.00    -0.212 N  
HETATM    9  O   UNL     1     -10.739  12.514  68.613  1.00  0.00    -0.232 OA 
HETATM   10  H   UNL     1      -8.418  14.174  67.143  1.00  0.00     0.000 HD 
BRANCH   8  11
HETATM   11  C   UNL     1      -9.428  12.663  66.077  1.00  0.00    -0.135 A  
HETATM   12  C   UNL     1     -10.515  12.913  65.238  1.00  0.00    -0.296 A  
HETATM   13  N   UNL     1      -8.324   8.866  63.206  1.00  0.00    -0.191 NA 
HETATM   14  C   UNL     1     -10.690  12.114  64.096  1.00  0.00    -0.405 A  
HETATM   15  C   UNL     1      -8.623  11.542  65.802  1.00  0.00     0.059 A  
HETATM   16  C   UNL     1      -9.856  11.047  63.779  1.00  0.00    -0.330 A  
HETATM   17  C   UNL     1      -8.835  10.710  64.671  1.00  0.00    -0.191 A  
HETATM   18  N   UNL     1     -10.084  10.367  62.651  1.00  0.00     0.119 NA 
HETATM   19  C   UNL     1      -9.286   9.324  62.404  1.00  0.00     0.222 A  
HETATM   20  C   UNL     1      -8.103   9.542  64.348  1.00  0.00    -0.141 A  
BRANCH  12  21
HETATM   21  O   UNL     1     -11.552  13.766  65.479  1.00  0.00    -0.314 OA 
BRANCH  21  22
HETATM   22  C   UNL     1     -11.347  15.162  65.662  1.00  0.00    -0.255 C  
HETATM   23  C   UNL     1     -10.001  17.006  64.906  1.00  0.00     1.547 C  
HETATM   24  C   UNL     1     -11.934  15.855  64.435  1.00  0.00    -0.018 C  
HETATM   25  O   UNL     1     -11.318  17.138  64.361  1.00  0.00    -1.115 OA 
HETATM   26  C   UNL     1      -9.918  15.666  65.628  1.00  0.00    -0.388 C  
ENDBRANCH  21  22
ENDBRANCH  12  21
BRANCH  20  27
HETATM   27  N   UNL     1      -7.110   9.066  65.251  1.00  0.00    -0.083 NA 
HETATM   28  H   UNL     1      -6.150   9.342  65.041  1.00  0.00     0.000 HD 
BRANCH  27  29
HETATM   29  C   UNL     1      -7.281   8.259  66.403  1.00  0.00    -0.075 A  
HETATM   30  C   UNL     1      -7.291   8.780  67.706  1.00  0.00    -0.088 A  
HETATM   31  C   UNL     1      -7.514   7.950  68.808  1.00  0.00    -0.095 A  
HETATM   32 CL   UNL     1      -7.470   8.627  70.396  1.00  0.00    -0.063 Cl 
HETATM   33  C   UNL     1      -7.758   6.595  68.623  1.00  0.00    -0.109 A  
HETATM   34  C   UNL     1      -7.805   6.064  67.343  1.00  0.00    -0.102 A  
HETATM   35  F   UNL     1      -7.975   5.788  69.669  1.00  0.00    -0.091 F  
HETATM   36  C   UNL     1      -7.577   6.892  66.239  1.00  0.00    -0.088 A  
ENDBRANCH  27  29
ENDBRANCH  20  27
ENDBRANCH   8  11
ENDBRANCH   6   7
ENDBRANCH   4   5
ENDBRANCH   2   4
TORSDOF 8
ENDMDL
MODEL      208
REMARK 921   NORMALIZED FREE ENERGY PREDICTED BY IDOCK:   10.21 KCAL/MOL
REMARK 922        TOTAL FREE ENERGY PREDICTED BY IDOCK:   13.44 KCAL/MOL
REMARK 923 INTER-LIGAND FREE ENERGY PREDICTED BY IDOCK:   11.38 KCAL/MOL
REMARK 924 INTRA-LIGAND FREE ENERGY PREDICTED BY IDOCK:    2.06 KCAL/MOL
REMARK 927      BINDING AFFINITY PREDICTED BY RF-SCORE:    0.00 PKD
ROOT
HETATM    1  C   UNL     1      -9.351  20.835  65.066  1.00  0.00     1.619 C  
HETATM    2  N   UNL     1     -10.782  20.671  65.352  1.00  0.00     0.454 NA 
HETATM    3  C   UNL     1     -11.225  19.378  64.808  1.00  0.00     2.272 C  
ENDROOT
BRANCH   2   4
HETATM    4  C   UNL     1     -11.036  20.696  66.803  1.00  0.00     1.406 C  
BRANCH   4   5
HETATM    5  C   UNL     1     -10.733  19.435  67.562  1.00  0.00    -0.570 C  
HETATM    6  C   UNL     1     -10.088  18.340  67.118  1.00  0.00    -0.367 C  
BRANCH   6   7
HETATM    7  C   UNL     1      -9.907  17.186  68.040  1.00  0.00    -0.283 C  
HETATM    8  N   UNL     1     -11.097  16.572  68.397  1.00  0.00    -0.359 N  
HETATM    9  O   UNL     1      -8.784  16.806  68.356  1.00  0.00    -0.218 OA 
HETATM   10  H   UNL     1     -11.979  16.995  68.107  1.00  0.00     0.000 HD 
BRANCH   8  11
HETATM   11  C   UNL     1     -11.128  15.374  69.150  1.00  0.00    -0.266 A  
HETATM   12  C   UNL     1     -11.681  15.309  70.429  1.00  0.00    -0.310 A  
HETATM   13  N   UNL     1     -10.078  10.620  69.562  1.00  0.00    -0.180 NA 
HETATM   14  C   UNL     1     -11.732  14.068  71.086  1.00  0.00     0.030 A  
HETATM   15  C   UNL     1     -10.535  14.211  68.623  1.00  0.00    -0.250 A  
HETATM   16  C   UNL     1     -11.212  12.898  70.541  1.00  0.00     1.128 A  
HETATM   17  C   UNL     1     -10.548  12.970  69.314  1.00  0.00     0.107 A  
HETATM   18  N   UNL     1     -11.339  11.758  71.228  1.00  0.00     1.847 NA 
HETATM   19  C   UNL     1     -10.789  10.665  70.690  1.00  0.00     0.303 A  
HETATM   20  C   UNL     1      -9.939  11.769  68.877  1.00  0.00    -0.034 A  
BRANCH  12  21
HETATM   21  O   UNL     1     -12.053  16.362  71.213  1.00  0.00    -0.262 OA 
BRANCH  21  22
HETATM   22  C   UNL     1     -11.984  16.301  72.633  1.00  0.00    -0.546 C  
HETATM   23  C   UNL     1     -11.817  14.756  74.469  1.00  0.00     0.822 C  
HETATM   24  C   UNL     1     -10.538  15.963  72.987  1.00  0.00     3.437 C  
HETATM   25  O   UNL     1     -10.560  15.422  74.306  1.00  0.00     3.843 OA 
HETATM   26  C   UNL     1     -12.727  15.170  73.318  1.00  0.00    -0.628 C  
ENDBRANCH  21  22
ENDBRANCH  12  21
BRANCH  20  27
HETATM   27  N   UNL     1      -9.156  11.773  67.688  1.00  0.00    -0.171 NA 
HETATM   28  H   UNL     1      -8.147  11.705  67.821  1.00  0.00     0.000 HD 
BRANCH  27  29
HETATM   29  C   UNL     1      -9.595  11.860  66.343  1.00  0.00    -0.225 A  
HETATM   30  C   UNL     1      -8.864  11.337  65.265  1.00  0.00    -0.015 A  
HETATM   31  C   UNL     1      -9.364  11.402  63.962  1.00  0.00    -0.063 A  
HETATM   32 CL   UNL     1      -8.408  10.790  62.661  1.00  0.00    -0.210 Cl 
HETATM   33  C   UNL     1     -10.612  11.963  63.721  1.00  0.00    -0.422 A  
HETATM   34  C   UNL     1     -11.377  12.439  64.773  1.00  0.00    -0.360 A  
HETATM   35  F   UNL     1     -11.104  12.031  62.477  1.00  0.00     0.167 F  
HETATM   36  C   UNL     1     -10.876  12.380  66.078  1.00  0.00    -0.308 A  
ENDBRANCH  27  29
ENDBRANCH  20  27
ENDBRANCH   8  11
ENDBRANCH   6   7
ENDBRANCH   4   5
ENDBRANCH   2   4
TORSDOF 8
ENDMDL
MODEL      209
REMARK 921   NORMALIZED FREE ENERGY PREDICTED BY IDOCK:   13.41 KCAL/MOL
REMARK 922        TOTAL FREE ENERGY PREDICTED BY IDOCK:   18.15 KCAL/MOL
REMARK 923 INTER-LIGAND FREE ENERGY PREDICTED BY IDOCK:   11.97 KCAL/MOL
REMARK 924 INTRA-LIGAND FREE ENERGY PREDICTED BY IDOCK:    6.17 KCAL/MOL
REMARK 927      BINDING AFFINITY PREDICTED BY RF-SCORE:    0.00 PKD
ROOT
HETATM    1  C   UNL     1     -11.824  12.354  64.112  1.00  0.00    -0.413 C  
HETATM    2  N   UNL     1     -11.125  13.644  64.182  1.00  0.00    -0.307 NA 
HETATM    3  C   UNL     1     -11.684  14.422  65.299  1.00  0.00    -0.364 C  
ENDROOT
BRANCH   2   4
HETATM    4  C   UNL     1      -9.682  13.449  64.403  1.00  0.00     0.539 C  
BRANCH   4   5
HETATM    5  C   UNL     1      -9.286  12.323  65.317  1.00  0.00     0.169 C  
HETATM    6  C   UNL     1      -8.445  12.368  66.365  1.00  0.00     0.141 C  
BRANCH   6   7
HETATM    7  C   UNL     1      -8.180  11.121  67.132  1.00  0.00    -0.137 C  
HETATM    8  N   UNL     1      -9.329  10.419  67.459  1.00  0.00    -0.148 N  
HETATM    9  O   UNL     1      -7.030  10.754  67.356  1.00  0.00    -0.078 OA 
HETATM   10  H   UNL     1     -10.238  10.836  67.258  1.00  0.00     0.000 HD 
BRANCH   8  11
HETATM   11  C   UNL     1      -9.282   9.140  68.064  1.00  0.00    -0.134 A  
HETATM   12  C   UNL     1      -8.971   7.984  67.346  1.00  0.00    -0.134 A  
HETATM   13  N   UNL     1      -9.758   6.328  72.031  1.00  0.00    -0.152 NA 
HETATM   14  C   UNL     1      -8.881   6.762  68.032  1.00  0.00    -0.119 A  
HETATM   15  C   UNL     1      -9.609   9.008  69.426  1.00  0.00    -0.160 A  
HETATM   16  C   UNL     1      -9.133   6.634  69.395  1.00  0.00    -0.143 A  
HETATM   17  C   UNL     1      -9.562   7.760  70.102  1.00  0.00    -0.168 A  
HETATM   18  N   UNL     1      -8.988   5.434  69.965  1.00  0.00    -0.127 NA 
HETATM   19  C   UNL     1      -9.280   5.345  71.266  1.00  0.00    -0.146 A  
HETATM   20  C   UNL     1      -9.916   7.533  71.454  1.00  0.00    -0.185 A  
BRANCH  12  21
HETATM   21  O   UNL     1      -8.893   7.862  65.990  1.00  0.00    -0.154 OA 
BRANCH  21  22
HETATM   22  C   UNL     1      -9.963   8.258  65.138  1.00  0.00     1.858 C  
HETATM   23  C   UNL     1     -11.582  10.003  64.797  1.00  0.00     4.567 C  
HETATM   24  C   UNL     1      -9.431   9.390  64.264  1.00  0.00     0.247 C  
HETATM   25  O   UNL     1     -10.569  10.104  63.790  1.00  0.00     0.602 OA 
HETATM   26  C   UNL     1     -11.159   8.925  65.788  1.00  0.00     3.202 C  
ENDBRANCH  21  22
ENDBRANCH  12  21
BRANCH  20  27
HETATM   27  N   UNL     1     -10.459   8.600  72.225  1.00  0.00    -0.332 NA 
HETATM   28  H   UNL     1     -10.228   8.592  73.219  1.00  0.00     0.000 HD 
BRANCH  27  29
HETATM   29  C   UNL     1     -11.277   9.673  71.792  1.00  0.00    -0.059 A  
HETATM   30  C   UNL     1     -12.043  10.454  72.671  1.00  0.00     2.243 A  
HETATM   31  C   UNL     1     -12.795  11.534  72.202  1.00  0.00     0.039 A  
HETATM   32 CL   UNL     1     -13.761  12.436  73.313  1.00  0.00     2.540 Cl 
HETATM   33  C   UNL     1     -12.768  11.868  70.854  1.00  0.00    -0.209 A  
HETATM   34  C   UNL     1     -11.979  11.147  69.972  1.00  0.00    -0.447 A  
HETATM   35  F   UNL     1     -13.483  12.902  70.389  1.00  0.00     0.334 F  
HETATM   36  C   UNL     1     -11.231  10.061  70.439  1.00  0.00    -0.393 A  
ENDBRANCH  27  29
ENDBRANCH  20  27
ENDBRANCH   8  11
ENDBRANCH   6   7
ENDBRANCH   4   5
ENDBRANCH   2   4
TORSDOF 8
ENDMDL
MODEL      210
REMARK 921   NORMALIZED FREE ENERGY PREDICTED BY IDOCK:   25.32 KCAL/MOL
REMARK 922        TOTAL FREE ENERGY PREDICTED BY IDOCK:   35.62 KCAL/MOL
REMARK 923 INTER-LIGAND FREE ENERGY PREDICTED BY IDOCK:   29.36 KCAL/MOL
REMARK 924 INTRA-LIGAND FREE ENERGY PREDICTED BY IDOCK:    6.26 KCAL/MOL
REMARK 927      BINDING AFFINITY PREDICTED BY RF-SCORE:    0.00 PKD
ROOT
HETATM    1  C   UNL     1      -7.295  11.737  64.970  1.00  0.00     2.328 C  
HETATM    2  N   UNL     1      -7.683  10.362  64.630  1.00  0.00    -0.110 NA 
HETATM    3  C   UNL     1      -6.472   9.602  64.288  1.00  0.00    -0.106 C  
ENDROOT
BRANCH   2   4
HETATM    4  C   UNL     1      -8.358   9.710  65.766  1.00  0.00    -0.128 C  
BRANCH   4   5
HETATM    5  C   UNL     1      -9.375  10.531  66.507  1.00  0.00    -0.189 C  
HETATM    6  C   UNL     1     -10.659  10.220  66.761  1.00  0.00    -0.252 C  
BRANCH   6   7
HETATM    7  C   UNL     1     -11.504  11.193  67.506  1.00  0.00    -0.216 C  
HETATM    8  N   UNL     1     -11.565  10.943  68.867  1.00  0.00    -0.294 N  
HETATM    9  O   UNL     1     -12.008  12.154  66.933  1.00  0.00    -0.603 OA 
HETATM   10  H   UNL     1     -11.138  10.092  69.234  1.00  0.00     0.000 HD 
BRANCH   8  11
HETATM   11  C   UNL     1     -12.199  11.832  69.767  1.00  0.00    -0.203 A  
HETATM   12  C   UNL     1     -12.397  11.521  71.113  1.00  0.00    -0.277 A  
HETATM   13  N   UNL     1     -14.399  16.110  70.625  1.00  0.00     1.703 NA 
HETATM   14  C   UNL     1     -12.976  12.484  71.956  1.00  0.00    -0.379 A  
HETATM   15  C   UNL     1     -12.701  13.057  69.289  1.00  0.00     0.728 A  
HETATM   16  C   UNL     1     -13.411  13.726  71.505  1.00  0.00    -0.318 A  
HETATM   17  C   UNL     1     -13.330  14.006  70.139  1.00  0.00     0.674 A  
HETATM   18  N   UNL     1     -13.919  14.589  72.391  1.00  0.00    -0.479 NA 
HETATM   19  C   UNL     1     -14.363  15.755  71.910  1.00  0.00    -0.131 A  
HETATM   20  C   UNL     1     -13.900  15.237  69.732  1.00  0.00     2.043 A  
BRANCH  12  21
HETATM   21  O   UNL     1     -12.233  10.301  71.701  1.00  0.00    -0.372 OA 
BRANCH  21  22
HETATM   22  C   UNL     1     -11.411   9.294  71.122  1.00  0.00    -0.333 C  
HETATM   23  C   UNL     1      -9.520   8.978  69.670  1.00  0.00    -0.171 C  
HETATM   24  C   UNL     1     -10.083   9.328  71.872  1.00  0.00     0.067 C  
HETATM   25  O   UNL     1      -9.120   8.713  71.019  1.00  0.00    -0.163 OA 
HETATM   26  C   UNL     1     -10.949   9.508  69.694  1.00  0.00    -0.233 C  
ENDBRANCH  21  22
ENDBRANCH  12  21
BRANCH  20  27
HETATM   27  N   UNL     1     -13.953  15.560  68.346  1.00  0.00     5.582 NA 
HETATM   28  H   UNL     1     -14.865  15.455  67.901  1.00  0.00     0.000 HD 
BRANCH  27  29
HETATM   29  C   UNL     1     -12.905  16.009  67.505  1.00  0.00     3.078 A  
HETATM   30  C   UNL     1     -13.130  16.713  66.312  1.00  0.00     6.783 A  
HETATM   31  C   UNL     1     -12.062  17.179  65.541  1.00  0.00     3.531 A  
HETATM   32 CL   UNL     1     -12.386  17.997  64.056  1.00  0.00     8.192 Cl 
HETATM   33  C   UNL     1     -10.755  16.974  65.966  1.00  0.00    -0.116 A  
HETATM   34  C   UNL     1     -10.504  16.327  67.166  1.00  0.00    -0.297 A  
HETATM   35  F   UNL     1      -9.720  17.416  65.239  1.00  0.00     0.129 F  
HETATM   36  C   UNL     1     -11.573  15.855  67.936  1.00  0.00    -0.109 A  
ENDBRANCH  27  29
ENDBRANCH  20  27
ENDBRANCH   8  11
ENDBRANCH   6   7
ENDBRANCH   4   5
ENDBRANCH   2   4
TORSDOF 8
ENDMDL
MODEL      211
REMARK 921   NORMALIZED FREE ENERGY PREDICTED BY IDOCK:   27.79 KCAL/MOL
REMARK 922        TOTAL FREE ENERGY PREDICTED BY IDOCK:   39.24 KCAL/MOL
REMARK 923 INTER-LIGAND FREE ENERGY PREDICTED BY IDOCK:   37.23 KCAL/MOL
REMARK 924 INTRA-LIGAND FREE ENERGY PREDICTED BY IDOCK:    2.01 KCAL/MOL
REMARK 927      BINDING AFFINITY PREDICTED BY RF-SCORE:    0.00 PKD
ROOT
HETATM    1  C   UNL     1     -13.770   5.701  69.226  1.00  0.00    15.061 C  
HETATM    2  N   UNL     1     -12.603   4.846  68.975  1.00  0.00    11.801 NA 
HETATM    3  C   UNL     1     -12.158   5.053  67.588  1.00  0.00     7.603 C  
ENDROOT
BRANCH   2   4
HETATM    4  C   UNL     1     -11.499   5.180  69.892  1.00  0.00     2.254 C  
BRANCH   4   5
HETATM    5  C   UNL     1     -10.552   6.255  69.441  1.00  0.00    -0.330 C  
HETATM    6  C   UNL     1      -9.980   7.217  70.188  1.00  0.00    -0.190 C  
BRANCH   6   7
HETATM    7  C   UNL     1      -9.075   8.199  69.532  1.00  0.00    -0.151 C  
HETATM    8  N   UNL     1      -8.324   7.656  68.502  1.00  0.00    -0.128 N  
HETATM    9  O   UNL     1      -9.093   9.383  69.856  1.00  0.00    -0.171 OA 
HETATM   10  H   UNL     1      -8.358   6.649  68.342  1.00  0.00     0.000 HD 
BRANCH   8  11
HETATM   11  C   UNL     1      -7.510   8.455  67.664  1.00  0.00    -0.094 A  
HETATM   12  C   UNL     1      -6.120   8.495  67.788  1.00  0.00    -0.048 A  
HETATM   13  N   UNL     1      -7.090  11.650  63.991  1.00  0.00     2.354 NA 
HETATM   14  C   UNL     1      -5.378   9.263  66.875  1.00  0.00    -0.039 A  
HETATM   15  C   UNL     1      -8.114   9.284  66.700  1.00  0.00    -0.108 A  
HETATM   16  C   UNL     1      -5.964  10.030  65.873  1.00  0.00    -0.077 A  
HETATM   17  C   UNL     1      -7.359  10.094  65.811  1.00  0.00    -0.128 A  
HETATM   18  N   UNL     1      -5.172  10.700  65.030  1.00  0.00    -0.143 NA 
HETATM   19  C   UNL     1      -5.775  11.457  64.109  1.00  0.00     1.614 A  
HETATM   20  C   UNL     1      -7.887  10.986  64.847  1.00  0.00     0.411 A  
BRANCH  12  21
HETATM   21  O   UNL     1      -5.377   7.989  68.814  1.00  0.00    -0.026 OA 
BRANCH  21  22
HETATM   22  C   UNL     1      -5.531   8.452  70.151  1.00  0.00    -0.022 C  
HETATM   23  C   UNL     1      -7.193   8.944  71.818  1.00  0.00     0.010 C  
HETATM   24  C   UNL     1      -5.894   7.234  70.997  1.00  0.00    -0.035 C  
HETATM   25  O   UNL     1      -6.520   7.733  72.176  1.00  0.00    -0.048 OA 
HETATM   26  C   UNL     1      -6.703   9.370  70.439  1.00  0.00    -0.083 C  
ENDBRANCH  21  22
ENDBRANCH  12  21
BRANCH  20  27
HETATM   27  N   UNL     1      -9.294  11.192  64.781  1.00  0.00    -0.287 NA 
HETATM   28  H   UNL     1      -9.799  10.599  64.122  1.00  0.00     0.000 HD 
BRANCH  27  29
HETATM   29  C   UNL     1     -10.086  12.114  65.510  1.00  0.00    -0.248 A  
HETATM   30  C   UNL     1      -9.651  13.410  65.829  1.00  0.00    -0.068 A  
HETATM   31  C   UNL     1     -10.489  14.300  66.506  1.00  0.00    -0.287 A  
HETATM   32 CL   UNL     1      -9.895  15.867  66.921  1.00  0.00    -0.242 Cl 
HETATM   33  C   UNL     1     -11.780  13.920  66.848  1.00  0.00    -0.399 A  
HETATM   34  C   UNL     1     -12.253  12.664  66.499  1.00  0.00    -0.130 A  
HETATM   35  F   UNL     1     -12.595  14.763  67.496  1.00  0.00    -0.136 F  
HETATM   36  C   UNL     1     -11.414  11.770  65.826  1.00  0.00    -0.258 A  
ENDBRANCH  27  29
ENDBRANCH  20  27
ENDBRANCH   8  11
ENDBRANCH   6   7
ENDBRANCH   4   5
ENDBRANCH   2   4
TORSDOF 8
ENDMDL
MODEL      212
REMARK 921   NORMALIZED FREE ENERGY PREDICTED BY IDOCK:   33.46 KCAL/MOL
REMARK 922        TOTAL FREE ENERGY PREDICTED BY IDOCK:   47.56 KCAL/MOL
REMARK 923 INTER-LIGAND FREE ENERGY PREDICTED BY IDOCK:   47.15 KCAL/MOL
REMARK 924 INTRA-LIGAND FREE ENERGY PREDICTED BY IDOCK:    0.41 KCAL/MOL
REMARK 927      BINDING AFFINITY PREDICTED BY RF-SCORE:    0.00 PKD
ROOT
HETATM    1  C   UNL     1     -12.853   3.137  64.925  1.00  0.00    12.617 C  
HETATM    2  N   UNL     1     -12.470   4.031  66.025  1.00  0.00     7.607 NA 
HETATM    3  C   UNL     1     -13.120   3.562  67.259  1.00  0.00    25.927 C  
ENDROOT
BRANCH   2   4
HETATM    4  C   UNL     1     -11.010   4.033  66.219  1.00  0.00     1.846 C  
BRANCH   4   5
HETATM    5  C   UNL     1     -10.349   5.377  66.342  1.00  0.00    -0.298 C  
HETATM    6  C   UNL     1     -10.937   6.587  66.359  1.00  0.00     0.286 C  
BRANCH   6   7
HETATM    7  C   UNL     1     -10.087   7.802  66.475  1.00  0.00    -0.154 C  
HETATM    8  N   UNL     1      -9.674   8.066  67.771  1.00  0.00    -0.151 N  
HETATM    9  O   UNL     1      -9.745   8.427  65.476  1.00  0.00     0.134 OA 
HETATM   10  H   UNL     1     -10.050   7.502  68.534  1.00  0.00     0.000 HD 
BRANCH   8  11
HETATM   11  C   UNL     1      -8.747   9.092  68.071  1.00  0.00    -0.129 A  
HETATM   12  C   UNL     1      -7.367   8.880  68.062  1.00  0.00    -0.084 A  
HETATM   13  N   UNL     1      -7.842  13.724  69.335  1.00  0.00     0.319 NA 
HETATM   14  C   UNL     1      -6.511   9.967  68.306  1.00  0.00    -0.055 A  
HETATM   15  C   UNL     1      -9.220  10.363  68.445  1.00  0.00    -0.147 A  
HETATM   16  C   UNL     1      -6.972  11.245  68.607  1.00  0.00    -0.084 A  
HETATM   17  C   UNL     1      -8.348  11.445  68.738  1.00  0.00    -0.096 A  
HETATM   18  N   UNL     1      -6.078  12.223  68.790  1.00  0.00    -0.064 NA 
HETATM   19  C   UNL     1      -6.560  13.426  69.118  1.00  0.00    -0.106 A  
HETATM   20  C   UNL     1      -8.740  12.738  69.163  1.00  0.00     0.715 A  
BRANCH  12  21
HETATM   21  O   UNL     1      -6.726   7.678  67.995  1.00  0.00    -0.059 OA 
BRANCH  21  22
HETATM   22  C   UNL     1      -6.820   6.841  66.848  1.00  0.00    -0.065 C  
HETATM   23  C   UNL     1      -5.913   6.518  64.644  1.00  0.00    -0.034 C  
HETATM   24  C   UNL     1      -5.577   5.956  66.848  1.00  0.00    -0.013 C  
HETATM   25  O   UNL     1      -5.407   5.496  65.509  1.00  0.00    -0.012 OA 
HETATM   26  C   UNL     1      -6.708   7.506  65.490  1.00  0.00    -0.045 C  
ENDBRANCH  21  22
ENDBRANCH  12  21
BRANCH  20  27
HETATM   27  N   UNL     1     -10.115  13.003  69.420  1.00  0.00    -0.071 NA 
HETATM   28  H   UNL     1     -10.492  13.847  68.987  1.00  0.00     0.000 HD 
BRANCH  27  29
HETATM   29  C   UNL     1     -11.028  12.249  70.198  1.00  0.00     0.865 A  
HETATM   30  C   UNL     1     -10.815  10.904  70.536  1.00  0.00     0.391 A  
HETATM   31  C   UNL     1     -11.721  10.217  71.349  1.00  0.00    -0.227 A  
HETATM   32 CL   UNL     1     -11.444   8.549  71.699  1.00  0.00    -0.339 Cl 
HETATM   33  C   UNL     1     -12.835  10.872  71.859  1.00  0.00    -0.327 A  
HETATM   34  C   UNL     1     -13.042  12.214  71.583  1.00  0.00    -0.413 A  
HETATM   35  F   UNL     1     -13.712  10.227  72.640  1.00  0.00    -0.329 F  
HETATM   36  C   UNL     1     -12.140  12.902  70.765  1.00  0.00    -0.252 A  
ENDBRANCH  27  29
ENDBRANCH  20  27
ENDBRANCH   8  11
ENDBRANCH   6   7
ENDBRANCH   4   5
ENDBRANCH   2   4
TORSDOF 8
ENDMDL
MODEL      213
REMARK 921   NORMALIZED FREE ENERGY PREDICTED BY IDOCK:   43.49 KCAL/MOL
REMARK 922        TOTAL FREE ENERGY PREDICTED BY IDOCK:   62.29 KCAL/MOL
REMARK 923 INTER-LIGAND FREE ENERGY PREDICTED BY IDOCK:   61.96 KCAL/MOL
REMARK 924 INTRA-LIGAND FREE ENERGY PREDICTED BY IDOCK:    0.33 KCAL/MOL
REMARK 927      BINDING AFFINITY PREDICTED BY RF-SCORE:    0.00 PKD
ROOT
HETATM    1  C   UNL     1      -6.025  11.526  62.546  1.00  0.00     0.663 C  
HETATM    2  N   UNL     1      -6.723  11.558  63.838  1.00  0.00     1.890 NA 
HETATM    3  C   UNL     1      -5.735  11.364  64.910  1.00  0.00     1.249 C  
ENDROOT
BRANCH   2   4
HETATM    4  C   UNL     1      -7.405  12.848  64.036  1.00  0.00    11.365 C  
BRANCH   4   5
HETATM    5  C   UNL     1      -7.949  13.117  65.411  1.00  0.00     4.134 C  
HETATM    6  C   UNL     1      -9.066  12.617  65.969  1.00  0.00     0.099 C  
BRANCH   6   7
HETATM    7  C   UNL     1      -9.430  13.030  67.351  1.00  0.00    -0.210 C  
HETATM    8  N   UNL     1     -10.593  13.782  67.415  1.00  0.00    -0.259 N  
HETATM    9  O   UNL     1      -8.776  12.645  68.315  1.00  0.00    -0.183 OA 
HETATM   10  H   UNL     1     -11.038  14.078  66.546  1.00  0.00     0.000 HD 
BRANCH   8  11
HETATM   11  C   UNL     1     -11.183  14.151  68.647  1.00  0.00    -0.266 A  
HETATM   12  C   UNL     1     -12.124  15.176  68.748  1.00  0.00    -0.165 A  
HETATM   13  N   UNL     1     -11.612  13.530  73.474  1.00  0.00     3.215 NA 
HETATM   14  C   UNL     1     -12.712  15.439  69.997  1.00  0.00    -0.189 A  
HETATM   15  C   UNL     1     -10.776  13.505  69.828  1.00  0.00     0.396 A  
HETATM   16  C   UNL     1     -12.367  14.755  71.159  1.00  0.00    -0.331 A  
HETATM   17  C   UNL     1     -11.341  13.809  71.096  1.00  0.00     1.115 A  
HETATM   18  N   UNL     1     -13.007  15.053  72.293  1.00  0.00    -0.325 NA 
HETATM   19  C   UNL     1     -12.617  14.403  73.394  1.00  0.00    -0.145 A  
HETATM   20  C   UNL     1     -10.959  13.239  72.335  1.00  0.00     7.057 A  
BRANCH  12  21
HETATM   21  O   UNL     1     -12.444  16.089  67.786  1.00  0.00     0.967 OA 
BRANCH  21  22
HETATM   22  C   UNL     1     -11.693  17.284  67.607  1.00  0.00     1.133 C  
HETATM   23  C   UNL     1      -9.441  18.124  67.516  1.00  0.00    -0.262 C  
HETATM   24  C   UNL     1     -11.099  17.223  66.203  1.00  0.00     0.437 C  
HETATM   25  O   UNL     1      -9.988  18.116  66.193  1.00  0.00    -0.440 OA 
HETATM   26  C   UNL     1     -10.442  17.452  68.448  1.00  0.00    -0.384 C  
ENDBRANCH  21  22
ENDBRANCH  12  21
BRANCH  20  27
HETATM   27  N   UNL     1      -9.855  12.341  72.382  1.00  0.00    16.593 NA 
HETATM   28  H   UNL     1      -9.128  12.567  73.061  1.00  0.00     0.000 HD 
BRANCH  27  29
HETATM   29  C   UNL     1      -9.635  11.174  71.608  1.00  0.00     9.532 A  
HETATM   30  C   UNL     1      -8.467  10.402  71.706  1.00  0.00     5.407 A  
HETATM   31  C   UNL     1      -8.318   9.230  70.959  1.00  0.00    -0.081 A  
HETATM   32 CL   UNL     1      -6.844   8.338  71.075  1.00  0.00    -0.043 Cl 
HETATM   33  C   UNL     1      -9.343   8.798  70.127  1.00  0.00    -0.169 A  
HETATM   34  C   UNL     1     -10.528   9.514  70.051  1.00  0.00    -0.283 A  
HETATM   35  F   UNL     1      -9.215   7.677  69.406  1.00  0.00    -0.148 F  
HETATM   36  C   UNL     1     -10.677  10.690  70.794  1.00  0.00     0.593 A  
ENDBRANCH  27  29
ENDBRANCH  20  27
ENDBRANCH   8  11
ENDBRANCH   6   7
ENDBRANCH   4   5
ENDBRANCH   2   4
TORSDOF 8
ENDMDL
MODEL      214
REMARK 921   NORMALIZED FREE ENERGY PREDICTED BY IDOCK:   46.42 KCAL/MOL
REMARK 922        TOTAL FREE ENERGY PREDICTED BY IDOCK:   66.58 KCAL/MOL
REMARK 923 INTER-LIGAND FREE ENERGY PREDICTED BY IDOCK:   64.32 KCAL/MOL
REMARK 924 INTRA-LIGAND FREE ENERGY PREDICTED BY IDOCK:    2.26 KCAL/MOL
REMARK 927      BINDING AFFINITY PREDICTED BY RF-SCORE:    0.00 PKD
ROOT
HETATM    1  C   UNL     1     -11.774  18.696  72.211  1.00  0.00     6.393 C  
HETATM    2  N   UNL     1     -12.156  17.938  71.012  1.00  0.00     5.888 NA 
HETATM    3  C   UNL     1     -11.016  17.104  70.601  1.00  0.00     0.863 C  
ENDROOT
BRANCH   2   4
HETATM    4  C   UNL     1     -13.316  17.072  71.284  1.00  0.00     7.162 C  
BRANCH   4   5
HETATM    5  C   UNL     1     -13.286  15.697  70.678  1.00  0.00    -0.162 C  
HETATM    6  C   UNL     1     -13.049  14.527  71.298  1.00  0.00    -0.417 C  
BRANCH   6   7
HETATM    7  C   UNL     1     -13.053  13.272  70.499  1.00  0.00     0.262 C  
HETATM    8  N   UNL     1     -12.510  13.422  69.232  1.00  0.00    -0.058 N  
HETATM    9  O   UNL     1     -13.434  12.215  70.992  1.00  0.00     0.274 OA 
HETATM   10  H   UNL     1     -12.259  14.357  68.909  1.00  0.00     0.000 HD 
BRANCH   8  11
HETATM   11  C   UNL     1     -12.294  12.320  68.372  1.00  0.00     0.473 A  
HETATM   12  C   UNL     1     -12.648  12.344  67.022  1.00  0.00     1.389 A  
HETATM   13  N   UNL     1     -10.691   7.756  67.682  1.00  0.00    -0.199 NA 
HETATM   14  C   UNL     1     -12.340  11.233  66.219  1.00  0.00     2.471 A  
HETATM   15  C   UNL     1     -11.753  11.131  68.895  1.00  0.00    -0.406 A  
HETATM   16  C   UNL     1     -11.739  10.079  66.714  1.00  0.00     2.246 A  
HETATM   17  C   UNL     1     -11.489   9.994  68.086  1.00  0.00     0.055 A  
HETATM   18  N   UNL     1     -11.455   9.088  65.865  1.00  0.00     3.674 NA 
HETATM   19  C   UNL     1     -10.916   7.982  66.387  1.00  0.00     1.340 A  
HETATM   20  C   UNL     1     -10.989   8.749  68.539  1.00  0.00     0.148 A  
BRANCH  12  21
HETATM   21  O   UNL     1     -13.418  13.279  66.396  1.00  0.00     1.006 OA 
BRANCH  21  22
HETATM   22  C   UNL     1     -13.379  13.461  64.985  1.00  0.00     0.548 C  
HETATM   23  C   UNL     1     -12.345  14.781  63.261  1.00  0.00     1.307 C  
HETATM   24  C   UNL     1     -12.057  12.869  64.504  1.00  0.00    -0.413 C  
HETATM   25  O   UNL     1     -11.783  13.465  63.239  1.00  0.00    -0.303 OA 
HETATM   26  C   UNL     1     -13.269  14.883  64.469  1.00  0.00     1.230 C  
ENDBRANCH  21  22
ENDBRANCH  12  21
BRANCH  20  27
HETATM   27  N   UNL     1     -10.799   8.537  69.935  1.00  0.00    -0.295 NA 
HETATM   28  H   UNL     1     -10.224   7.732  70.186  1.00  0.00     0.000 HD 
BRANCH  27  29
HETATM   29  C   UNL     1     -11.304   9.297  71.019  1.00  0.00    -0.320 A  
HETATM   30  C   UNL     1     -12.465   8.945  71.724  1.00  0.00    -0.425 A  
HETATM   31  C   UNL     1     -12.895   9.698  72.819  1.00  0.00     0.325 A  
HETATM   32 CL   UNL     1     -14.356   9.256  73.626  1.00  0.00     1.772 Cl 
HETATM   33  C   UNL     1     -12.156  10.796  73.243  1.00  0.00     7.587 A  
HETATM   34  C   UNL     1     -10.978  11.135  72.598  1.00  0.00     9.434 A  
HETATM   35  F   UNL     1     -12.555  11.527  74.292  1.00  0.00     9.586 F  
HETATM   36  C   UNL     1     -10.549  10.385  71.497  1.00  0.00     1.886 A  
ENDBRANCH  27  29
ENDBRANCH  20  27
ENDBRANCH   8  11
ENDBRANCH   6   7
ENDBRANCH   4   5
ENDBRANCH   2   4
TORSDOF 8
ENDMDL
MODEL      215
REMARK 921   NORMALIZED FREE ENERGY PREDICTED BY IDOCK:   56.62 KCAL/MOL
REMARK 922        TOTAL FREE ENERGY PREDICTED BY IDOCK:   81.56 KCAL/MOL
REMARK 923 INTER-LIGAND FREE ENERGY PREDICTED BY IDOCK:   74.53 KCAL/MOL
REMARK 924 INTRA-LIGAND FREE ENERGY PREDICTED BY IDOCK:    7.03 KCAL/MOL
REMARK 927      BINDING AFFINITY PREDICTED BY RF-SCORE:    0.00 PKD
ROOT
HETATM    1  C   UNL     1     -11.234  19.205  69.098  1.00  0.00     2.436 C  
HETATM    2  N   UNL     1     -10.683  17.972  68.521  1.00  0.00    -0.156 NA 
HETATM    3  C   UNL     1      -9.240  18.158  68.304  1.00  0.00    -0.298 C  
ENDROOT
BRANCH   2   4
HETATM    4  C   UNL     1     -10.892  16.828  69.426  1.00  0.00    -0.250 C  
BRANCH   4   5
HETATM    5  C   UNL     1     -10.362  15.499  68.964  1.00  0.00    -0.235 C  
HETATM    6  C   UNL     1      -9.355  15.267  68.104  1.00  0.00    -0.198 C  
BRANCH   6   7
HETATM    7  C   UNL     1      -9.000  13.861  67.771  1.00  0.00    -0.188 C  
HETATM    8  N   UNL     1      -7.866  13.750  66.981  1.00  0.00    -0.368 N  
HETATM    9  O   UNL     1      -9.634  12.924  68.245  1.00  0.00    -0.218 OA 
HETATM   10  H   UNL     1      -7.437  14.597  66.610  1.00  0.00     0.000 HD 
BRANCH   8  11
HETATM   11  C   UNL     1      -7.285  12.497  66.672  1.00  0.00     0.532 A  
HETATM   12  C   UNL     1      -6.328  12.343  65.669  1.00  0.00     3.875 A  
HETATM   13  N   UNL     1      -6.925   7.694  67.498  1.00  0.00    -0.078 NA 
HETATM   14  C   UNL     1      -5.751  11.078  65.468  1.00  0.00    -0.000 A  
HETATM   15  C   UNL     1      -7.717  11.347  67.360  1.00  0.00    -0.135 A  
HETATM   16  C   UNL     1      -6.122   9.949  66.192  1.00  0.00    -0.067 A  
HETATM   17  C   UNL     1      -7.163  10.062  67.117  1.00  0.00    -0.090 A  
HETATM   18  N   UNL     1      -5.491   8.796  65.952  1.00  0.00    -0.037 NA 
HETATM   19  C   UNL     1      -5.905   7.727  66.639  1.00  0.00    -0.040 A  
HETATM   20  C   UNL     1      -7.569   8.852  67.730  1.00  0.00    -0.093 A  
BRANCH  12  21
HETATM   21  O   UNL     1      -5.982  13.262  64.723  1.00  0.00    10.594 OA 
BRANCH  21  22
HETATM   22  C   UNL     1      -6.901  14.246  64.261  1.00  0.00    22.308 C  
HETATM   23  C   UNL     1      -9.058  14.504  63.230  1.00  0.00    12.691 C  
HETATM   24  C   UNL     1      -8.037  14.296  65.279  1.00  0.00     5.695 C  
HETATM   25  O   UNL     1      -9.156  14.872  64.610  1.00  0.00     1.656 OA 
HETATM   26  C   UNL     1      -7.662  13.943  62.985  1.00  0.00    17.360 C  
ENDBRANCH  21  22
ENDBRANCH  12  21
BRANCH  20  27
HETATM   27  N   UNL     1      -8.688   8.855  68.611  1.00  0.00    -0.133 NA 
HETATM   28  H   UNL     1      -9.014   9.774  68.910  1.00  0.00     0.000 HD 
BRANCH  27  29
HETATM   29  C   UNL     1      -9.407   7.748  69.126  1.00  0.00    -0.151 A  
HETATM   30  C   UNL     1     -10.554   7.886  69.924  1.00  0.00    -0.242 A  
HETATM   31  C   UNL     1     -11.259   6.764  70.367  1.00  0.00    -0.328 A  
HETATM   32 CL   UNL     1     -12.635   6.979  71.387  1.00  0.00    -0.423 Cl 
HETATM   33  C   UNL     1     -10.846   5.490  69.995  1.00  0.00    -0.231 A  
HETATM   34  C   UNL     1      -9.748   5.327  69.165  1.00  0.00    -0.231 A  
HETATM   35  F   UNL     1     -11.512   4.405  70.410  1.00  0.00     1.698 F  
HETATM   36  C   UNL     1      -9.038   6.450  68.726  1.00  0.00    -0.125 A  
ENDBRANCH  27  29
ENDBRANCH  20  27
ENDBRANCH   8  11
ENDBRANCH   6   7
ENDBRANCH   4   5
ENDBRANCH   2   4
TORSDOF 8
ENDMDL
MODEL      216
REMARK 921   NORMALIZED FREE ENERGY PREDICTED BY IDOCK:   74.60 KCAL/MOL
REMARK 922        TOTAL FREE ENERGY PREDICTED BY IDOCK:  107.95 KCAL/MOL
REMARK 923 INTER-LIGAND FREE ENERGY PREDICTED BY IDOCK:  106.94 KCAL/MOL
REMARK 924 INTRA-LIGAND FREE ENERGY PREDICTED BY IDOCK:    1.00 KCAL/MOL
REMARK 927      BINDING AFFINITY PREDICTED BY RF-SCORE:    0.00 PKD
ROOT
HETATM    1  C   UNL     1     -10.481  18.505  63.283  1.00  0.00    15.626 C  
HETATM    2  N   UNL     1     -10.678  17.264  64.043  1.00  0.00     1.616 NA 
HETATM    3  C   UNL     1      -9.362  16.757  64.462  1.00  0.00     4.685 C  
ENDROOT
BRANCH   2   4
HETATM    4  C   UNL     1     -11.507  17.503  65.237  1.00  0.00     1.342 C  
BRANCH   4   5
HETATM    5  C   UNL     1     -11.199  16.668  66.448  1.00  0.00     0.453 C  
HETATM    6  C   UNL     1     -10.781  15.390  66.485  1.00  0.00    -0.308 C  
BRANCH   6   7
HETATM    7  C   UNL     1     -10.547  14.744  67.804  1.00  0.00    -0.257 C  
HETATM    8  N   UNL     1     -11.301  15.293  68.830  1.00  0.00    -0.289 N  
HETATM    9  O   UNL     1      -9.809  13.769  67.904  1.00  0.00    -0.220 OA 
HETATM   10  H   UNL     1     -11.855  16.129  68.643  1.00  0.00     0.000 HD 
BRANCH   8  11
HETATM   11  C   UNL     1     -11.327  14.730  70.128  1.00  0.00    -0.247 A  
HETATM   12  C   UNL     1     -11.850  15.410  71.228  1.00  0.00    -0.380 A  
HETATM   13  N   UNL     1     -10.323  11.013  73.136  1.00  0.00    13.188 NA 
HETATM   14  C   UNL     1     -11.899  14.757  72.471  1.00  0.00    -0.237 A  
HETATM   15  C   UNL     1     -10.761  13.459  70.341  1.00  0.00     1.642 A  
HETATM   16  C   UNL     1     -11.406  13.472  72.675  1.00  0.00     4.384 A  
HETATM   17  C   UNL     1     -10.772  12.824  71.612  1.00  0.00     7.276 A  
HETATM   18  N   UNL     1     -11.529  12.921  73.886  1.00  0.00     8.498 NA 
HETATM   19  C   UNL     1     -11.006  11.702  74.051  1.00  0.00    20.616 A  
HETATM   20  C   UNL     1     -10.187  11.572  71.920  1.00  0.00    10.744 A  
BRANCH  12  21
HETATM   21  O   UNL     1     -12.190  16.730  71.286  1.00  0.00     0.565 OA 
BRANCH  21  22
HETATM   22  C   UNL     1     -11.208  17.759  71.252  1.00  0.00     2.600 C  
HETATM   23  C   UNL     1     -10.021  19.212  69.747  1.00  0.00     0.402 C  
HETATM   24  C   UNL     1     -11.951  19.066  70.987  1.00  0.00    11.408 C  
HETATM   25  O   UNL     1     -10.990  19.981  70.467  1.00  0.00     1.689 OA 
HETATM   26  C   UNL     1     -10.222  17.743  70.100  1.00  0.00     1.068 C  
ENDBRANCH  21  22
ENDBRANCH  12  21
BRANCH  20  27
HETATM   27  N   UNL     1      -9.434  10.887  70.925  1.00  0.00     2.219 NA 
HETATM   28  H   UNL     1      -8.976  11.478  70.230  1.00  0.00     0.000 HD 
BRANCH  27  29
HETATM   29  C   UNL     1      -9.236   9.492  70.773  1.00  0.00    -0.128 A  
HETATM   30  C   UNL     1      -8.398   8.743  71.614  1.00  0.00    -0.190 A  
HETATM   31  C   UNL     1      -8.275   7.360  71.456  1.00  0.00    -0.104 A  
HETATM   32 CL   UNL     1      -7.195   6.486  72.481  1.00  0.00    -0.081 Cl 
HETATM   33  C   UNL     1      -9.009   6.702  70.477  1.00  0.00    -0.152 A  
HETATM   34  C   UNL     1      -9.884   7.410  69.667  1.00  0.00    -0.175 A  
HETATM   35  F   UNL     1      -8.903   5.377  70.314  1.00  0.00    -0.118 F  
HETATM   36  C   UNL     1     -10.004   8.795  69.820  1.00  0.00    -0.193 A  
ENDBRANCH  27  29
ENDBRANCH  20  27
ENDBRANCH   8  11
ENDBRANCH   6   7
ENDBRANCH   4   5
ENDBRANCH   2   4
TORSDOF 8
ENDMDL
