MODEL        1
REMARK 921   NORMALIZED FREE ENERGY PREDICTED BY IDOCK:   -6.27 KCAL/MOL
REMARK 922        TOTAL FREE ENERGY PREDICTED BY IDOCK:   -8.17 KCAL/MOL
REMARK 923 INTER-LIGAND FREE ENERGY PREDICTED BY IDOCK:   -7.73 KCAL/MOL
REMARK 924 INTRA-LIGAND FREE ENERGY PREDICTED BY IDOCK:   -0.44 KCAL/MOL
REMARK 927      BINDING AFFINITY PREDICTED BY RF-SCORE:    0.00 PKD
ROOT
HETATM    1  C   UNL     1     -13.247  16.076  73.209  1.00  0.00    -0.553 C  
HETATM    2  O   UNL     1     -13.814  15.567  72.002  1.00  0.00    -0.473 OA 
ENDROOT
BRANCH   2   3
HETATM    3  C   UNL     1     -13.348  14.332  71.633  1.00  0.00    -0.365 A  
HETATM    4  C   UNL     1     -12.602  14.280  70.449  1.00  0.00    -0.405 A  
HETATM    5  C   UNL     1     -12.095  13.059  69.926  1.00  0.00    -0.347 A  
HETATM    6  C   UNL     1     -12.361  11.888  70.684  1.00  0.00    -0.405 A  
HETATM    7  C   UNL     1     -11.932  10.636  70.231  1.00  0.00    -0.425 A  
HETATM    8  C   UNL     1     -13.053  11.963  71.900  1.00  0.00    -0.474 A  
HETATM    9  C   UNL     1     -11.241  10.512  69.035  1.00  0.00    -0.316 A  
HETATM   10  C   UNL     1     -13.543  13.176  72.375  1.00  0.00    -0.667 A  
HETATM   11  C   UNL     1     -10.944  11.648  68.289  1.00  0.00    -0.273 A  
HETATM   12  C   UNL     1     -11.356  12.930  68.704  1.00  0.00    -0.327 A  
BRANCH  12  13
HETATM   13  C   UNL     1     -10.914  14.154  67.907  1.00  0.00    -0.264 C  
BRANCH  13  14
HETATM   14  C   UNL     1     -11.785  14.535  66.698  1.00  0.00    -0.371 C  
BRANCH  14  15
HETATM   15  N   UNL     1     -11.301  13.982  65.441  1.00  0.00    -0.308 N  
HETATM   16  C   UNL     1     -12.023  13.060  64.721  1.00  0.00    -0.395 C  
HETATM   17  H   UNL     1     -10.396  14.289  65.083  1.00  0.00     0.000 HD 
HETATM   18  C   UNL     1     -11.316  12.538  63.498  1.00  0.00    -0.556 C  
HETATM   19  O   UNL     1     -13.150  12.686  65.024  1.00  0.00    -0.808 OA 
ENDBRANCH  14  15
ENDBRANCH  13  14
ENDBRANCH  12  13
ENDBRANCH   2   3
TORSDOF 4
ENDMDL
MODEL        2
REMARK 921   NORMALIZED FREE ENERGY PREDICTED BY IDOCK:   -6.26 KCAL/MOL
REMARK 922        TOTAL FREE ENERGY PREDICTED BY IDOCK:   -8.16 KCAL/MOL
REMARK 923 INTER-LIGAND FREE ENERGY PREDICTED BY IDOCK:   -7.84 KCAL/MOL
REMARK 924 INTRA-LIGAND FREE ENERGY PREDICTED BY IDOCK:   -0.32 KCAL/MOL
REMARK 927      BINDING AFFINITY PREDICTED BY RF-SCORE:    0.00 PKD
ROOT
HETATM    1  C   UNL     1     -12.611  12.121  63.742  1.00  0.00    -0.475 C  
HETATM    2  O   UNL     1     -12.888  12.640  65.043  1.00  0.00    -0.765 OA 
ENDROOT
BRANCH   2   3
HETATM    3  C   UNL     1     -12.143  13.738  65.386  1.00  0.00    -0.407 A  
HETATM    4  C   UNL     1     -12.106  14.060  66.749  1.00  0.00    -0.480 A  
HETATM    5  C   UNL     1     -11.408  15.197  67.240  1.00  0.00    -0.305 A  
HETATM    6  C   UNL     1     -10.720  15.981  66.276  1.00  0.00    -0.234 A  
HETATM    7  C   UNL     1     -10.033  17.138  66.661  1.00  0.00    -0.298 A  
HETATM    8  C   UNL     1     -10.711  15.610  64.925  1.00  0.00    -0.406 A  
HETATM    9  C   UNL     1     -10.012  17.542  67.988  1.00  0.00    -0.310 A  
HETATM   10  C   UNL     1     -11.415  14.496  64.480  1.00  0.00    -0.349 A  
HETATM   11  C   UNL     1     -10.655  16.775  68.954  1.00  0.00    -0.350 A  
HETATM   12  C   UNL     1     -11.359  15.603  68.614  1.00  0.00    -0.359 A  
BRANCH  12  13
HETATM   13  C   UNL     1     -11.957  14.741  69.722  1.00  0.00    -0.368 C  
BRANCH  13  14
HETATM   14  C   UNL     1     -13.002  15.414  70.627  1.00  0.00    -0.398 C  
BRANCH  14  15
HETATM   15  N   UNL     1     -12.499  15.725  71.957  1.00  0.00    -0.423 N  
HETATM   16  C   UNL     1     -12.856  14.994  73.065  1.00  0.00    -0.471 C  
HETATM   17  H   UNL     1     -11.859  16.512  72.070  1.00  0.00     0.000 HD 
HETATM   18  C   UNL     1     -12.306  15.525  74.362  1.00  0.00    -0.798 C  
HETATM   19  O   UNL     1     -13.554  13.987  73.023  1.00  0.00    -0.644 OA 
ENDBRANCH  14  15
ENDBRANCH  13  14
ENDBRANCH  12  13
ENDBRANCH   2   3
TORSDOF 4
ENDMDL
MODEL        3
REMARK 921   NORMALIZED FREE ENERGY PREDICTED BY IDOCK:   -6.15 KCAL/MOL
REMARK 922        TOTAL FREE ENERGY PREDICTED BY IDOCK:   -8.03 KCAL/MOL
REMARK 923 INTER-LIGAND FREE ENERGY PREDICTED BY IDOCK:   -7.64 KCAL/MOL
REMARK 924 INTRA-LIGAND FREE ENERGY PREDICTED BY IDOCK:   -0.39 KCAL/MOL
REMARK 927      BINDING AFFINITY PREDICTED BY RF-SCORE:    0.00 PKD
ROOT
HETATM    1  C   UNL     1     -12.487  15.686  74.327  1.00  0.00    -0.654 C  
HETATM    2  O   UNL     1     -13.512  15.460  73.359  1.00  0.00    -0.423 OA 
ENDROOT
BRANCH   2   3
HETATM    3  C   UNL     1     -13.073  14.895  72.190  1.00  0.00    -0.344 A  
HETATM    4  C   UNL     1     -13.068  13.495  72.142  1.00  0.00    -0.487 A  
HETATM    5  C   UNL     1     -12.597  12.778  71.008  1.00  0.00    -0.362 A  
HETATM    6  C   UNL     1     -12.153  13.557  69.907  1.00  0.00    -0.408 A  
HETATM    7  C   UNL     1     -11.641  12.939  68.761  1.00  0.00    -0.351 A  
HETATM    8  C   UNL     1     -12.224  14.956  69.943  1.00  0.00    -0.354 A  
HETATM    9  C   UNL     1     -11.554  11.557  68.678  1.00  0.00    -0.375 A  
HETATM   10  C   UNL     1     -12.682  15.623  71.075  1.00  0.00    -0.517 A  
HETATM   11  C   UNL     1     -12.008  10.772  69.733  1.00  0.00    -0.397 A  
HETATM   12  C   UNL     1     -12.531  11.349  70.906  1.00  0.00    -0.478 A  
BRANCH  12  13
HETATM   13  C   UNL     1     -13.114  10.445  71.990  1.00  0.00    -0.521 C  
BRANCH  13  14
HETATM   14  C   UNL     1     -13.167   8.942  71.674  1.00  0.00    -0.362 C  
BRANCH  14  15
HETATM   15  N   UNL     1     -12.462   8.122  72.649  1.00  0.00    -0.603 N  
HETATM   16  C   UNL     1     -11.100   7.937  72.601  1.00  0.00    -0.385 C  
HETATM   17  H   UNL     1     -12.995   7.670  73.392  1.00  0.00     0.000 HD 
HETATM   18  C   UNL     1     -10.567   6.984  73.639  1.00  0.00    -0.383 C  
HETATM   19  O   UNL     1     -10.361   8.496  71.798  1.00  0.00    -0.232 OA 
ENDBRANCH  14  15
ENDBRANCH  13  14
ENDBRANCH  12  13
ENDBRANCH   2   3
TORSDOF 4
ENDMDL
MODEL        4
REMARK 921   NORMALIZED FREE ENERGY PREDICTED BY IDOCK:   -6.14 KCAL/MOL
REMARK 922        TOTAL FREE ENERGY PREDICTED BY IDOCK:   -8.01 KCAL/MOL
REMARK 923 INTER-LIGAND FREE ENERGY PREDICTED BY IDOCK:   -7.75 KCAL/MOL
REMARK 924 INTRA-LIGAND FREE ENERGY PREDICTED BY IDOCK:   -0.26 KCAL/MOL
REMARK 927      BINDING AFFINITY PREDICTED BY RF-SCORE:    0.00 PKD
ROOT
HETATM    1  C   UNL     1     -11.234  10.351  67.905  1.00  0.00    -0.263 C  
HETATM    2  O   UNL     1     -10.983  10.202  69.302  1.00  0.00    -0.222 OA 
ENDROOT
BRANCH   2   3
HETATM    3  C   UNL     1     -11.705  11.050  70.101  1.00  0.00    -0.356 A  
HETATM    4  C   UNL     1     -11.682  12.405  69.745  1.00  0.00    -0.361 A  
HETATM    5  C   UNL     1     -12.350  13.400  70.510  1.00  0.00    -0.401 A  
HETATM    6  C   UNL     1     -13.070  12.946  71.647  1.00  0.00    -0.430 A  
HETATM    7  C   UNL     1     -13.731  13.856  72.479  1.00  0.00    -0.665 A  
HETATM    8  C   UNL     1     -13.138  11.581  71.954  1.00  0.00    -0.492 A  
HETATM    9  C   UNL     1     -13.695  15.217  72.212  1.00  0.00    -0.614 A  
HETATM   10  C   UNL     1     -12.461  10.636  71.188  1.00  0.00    -0.523 A  
HETATM   11  C   UNL     1     -13.019  15.683  71.089  1.00  0.00    -0.539 A  
HETATM   12  C   UNL     1     -12.340  14.805  70.223  1.00  0.00    -0.400 A  
BRANCH  12  13
HETATM   13  C   UNL     1     -11.704  15.353  68.947  1.00  0.00    -0.377 C  
BRANCH  13  14
HETATM   14  C   UNL     1     -10.774  16.566  69.111  1.00  0.00    -0.335 C  
BRANCH  14  15
HETATM   15  N   UNL     1     -10.664  17.375  67.906  1.00  0.00    -0.384 N  
HETATM   16  C   UNL     1     -10.399  18.724  67.952  1.00  0.00    -0.406 C  
HETATM   17  H   UNL     1     -10.787  16.927  66.998  1.00  0.00     0.000 HD 
HETATM   18  C   UNL     1     -10.415  19.404  66.609  1.00  0.00    -0.568 C  
HETATM   19  O   UNL     1     -10.159  19.339  68.985  1.00  0.00    -0.415 OA 
ENDBRANCH  14  15
ENDBRANCH  13  14
ENDBRANCH  12  13
ENDBRANCH   2   3
TORSDOF 4
ENDMDL
MODEL        5
REMARK 921   NORMALIZED FREE ENERGY PREDICTED BY IDOCK:   -6.12 KCAL/MOL
REMARK 922        TOTAL FREE ENERGY PREDICTED BY IDOCK:   -7.99 KCAL/MOL
REMARK 923 INTER-LIGAND FREE ENERGY PREDICTED BY IDOCK:   -7.74 KCAL/MOL
REMARK 924 INTRA-LIGAND FREE ENERGY PREDICTED BY IDOCK:   -0.26 KCAL/MOL
REMARK 927      BINDING AFFINITY PREDICTED BY RF-SCORE:    0.00 PKD
ROOT
HETATM    1  C   UNL     1     -13.179  15.419  73.036  1.00  0.00    -0.531 C  
HETATM    2  O   UNL     1     -13.818  14.152  72.881  1.00  0.00    -0.639 OA 
ENDROOT
BRANCH   2   3
HETATM    3  C   UNL     1     -13.231  13.331  71.954  1.00  0.00    -0.431 A  
HETATM    4  C   UNL     1     -12.641  13.963  70.852  1.00  0.00    -0.431 A  
HETATM    5  C   UNL     1     -12.035  13.232  69.794  1.00  0.00    -0.391 A  
HETATM    6  C   UNL     1     -12.031  11.818  69.924  1.00  0.00    -0.405 A  
HETATM    7  C   UNL     1     -11.487  11.014  68.917  1.00  0.00    -0.364 A  
HETATM    8  C   UNL     1     -12.566  11.201  71.063  1.00  0.00    -0.503 A  
HETATM    9  C   UNL     1     -10.944  11.579  67.773  1.00  0.00    -0.291 A  
HETATM   10  C   UNL     1     -13.162  11.950  72.073  1.00  0.00    -0.461 A  
HETATM   11  C   UNL     1     -10.910  12.963  67.635  1.00  0.00    -0.252 A  
HETATM   12  C   UNL     1     -11.446  13.813  68.623  1.00  0.00    -0.336 A  
BRANCH  12  13
HETATM   13  C   UNL     1     -11.290  15.324  68.475  1.00  0.00    -0.337 C  
BRANCH  13  14
HETATM   14  C   UNL     1     -10.735  15.829  67.133  1.00  0.00    -0.312 C  
BRANCH  14  15
HETATM   15  N   UNL     1     -10.571  17.275  67.084  1.00  0.00    -0.298 N  
HETATM   16  C   UNL     1     -10.651  17.981  65.907  1.00  0.00    -0.219 C  
HETATM   17  H   UNL     1     -10.391  17.781  67.951  1.00  0.00     0.000 HD 
HETATM   18  C   UNL     1     -10.364  19.452  66.046  1.00  0.00    -0.584 C  
HETATM   19  O   UNL     1     -10.939  17.478  64.826  1.00  0.00    -0.950 OA 
ENDBRANCH  14  15
ENDBRANCH  13  14
ENDBRANCH  12  13
ENDBRANCH   2   3
TORSDOF 4
ENDMDL
MODEL        6
REMARK 921   NORMALIZED FREE ENERGY PREDICTED BY IDOCK:   -6.10 KCAL/MOL
REMARK 922        TOTAL FREE ENERGY PREDICTED BY IDOCK:   -7.96 KCAL/MOL
REMARK 923 INTER-LIGAND FREE ENERGY PREDICTED BY IDOCK:   -7.65 KCAL/MOL
REMARK 924 INTRA-LIGAND FREE ENERGY PREDICTED BY IDOCK:   -0.31 KCAL/MOL
REMARK 927      BINDING AFFINITY PREDICTED BY RF-SCORE:    0.00 PKD
ROOT
HETATM    1  C   UNL     1     -11.036  10.918  67.607  1.00  0.00    -0.313 C  
HETATM    2  O   UNL     1     -11.093  10.357  68.918  1.00  0.00    -0.227 OA 
ENDROOT
BRANCH   2   3
HETATM    3  C   UNL     1     -11.777  11.119  69.831  1.00  0.00    -0.355 A  
HETATM    4  C   UNL     1     -11.775  12.502  69.607  1.00  0.00    -0.372 A  
HETATM    5  C   UNL     1     -12.407  13.413  70.497  1.00  0.00    -0.401 A  
HETATM    6  C   UNL     1     -13.068  12.846  71.619  1.00  0.00    -0.430 A  
HETATM    7  C   UNL     1     -13.689  13.667  72.567  1.00  0.00    -0.663 A  
HETATM    8  C   UNL     1     -13.117  11.457  71.795  1.00  0.00    -0.523 A  
HETATM    9  C   UNL     1     -13.669  15.047  72.432  1.00  0.00    -0.585 A  
HETATM   10  C   UNL     1     -12.478  10.596  70.908  1.00  0.00    -0.495 A  
HETATM   11  C   UNL     1     -13.051  15.625  71.328  1.00  0.00    -0.542 A  
HETATM   12  C   UNL     1     -12.413  14.839  70.348  1.00  0.00    -0.405 A  
BRANCH  12  13
HETATM   13  C   UNL     1     -11.843  15.513  69.102  1.00  0.00    -0.373 C  
BRANCH  13  14
HETATM   14  C   UNL     1     -10.530  16.293  69.284  1.00  0.00    -0.285 C  
BRANCH  14  15
HETATM   15  N   UNL     1     -10.636  17.695  68.908  1.00  0.00    -0.363 N  
HETATM   16  C   UNL     1     -10.523  18.114  67.603  1.00  0.00    -0.416 C  
HETATM   17  H   UNL     1     -10.801  18.390  69.637  1.00  0.00     0.000 HD 
HETATM   18  C   UNL     1     -10.569  19.608  67.426  1.00  0.00    -0.589 C  
HETATM   19  O   UNL     1     -10.402  17.353  66.649  1.00  0.00    -0.317 OA 
ENDBRANCH  14  15
ENDBRANCH  13  14
ENDBRANCH  12  13
ENDBRANCH   2   3
TORSDOF 4
ENDMDL
MODEL        7
REMARK 921   NORMALIZED FREE ENERGY PREDICTED BY IDOCK:   -6.09 KCAL/MOL
REMARK 922        TOTAL FREE ENERGY PREDICTED BY IDOCK:   -7.95 KCAL/MOL
REMARK 923 INTER-LIGAND FREE ENERGY PREDICTED BY IDOCK:   -7.63 KCAL/MOL
REMARK 924 INTRA-LIGAND FREE ENERGY PREDICTED BY IDOCK:   -0.32 KCAL/MOL
REMARK 927      BINDING AFFINITY PREDICTED BY RF-SCORE:    0.00 PKD
ROOT
HETATM    1  C   UNL     1     -10.293   9.370  69.952  1.00  0.00    -0.227 C  
HETATM    2  O   UNL     1     -11.670   9.385  70.331  1.00  0.00    -0.239 OA 
ENDROOT
BRANCH   2   3
HETATM    3  C   UNL     1     -12.138  10.615  70.712  1.00  0.00    -0.374 A  
HETATM    4  C   UNL     1     -11.784  11.694  69.892  1.00  0.00    -0.414 A  
HETATM    5  C   UNL     1     -12.165  13.031  70.192  1.00  0.00    -0.342 A  
HETATM    6  C   UNL     1     -12.951  13.217  71.359  1.00  0.00    -0.398 A  
HETATM    7  C   UNL     1     -13.344  14.501  71.753  1.00  0.00    -0.445 A  
HETATM    8  C   UNL     1     -13.353  12.122  72.135  1.00  0.00    -0.438 A  
HETATM    9  C   UNL     1     -12.973  15.615  71.015  1.00  0.00    -0.518 A  
HETATM   10  C   UNL     1     -12.952  10.828  71.816  1.00  0.00    -0.568 A  
HETATM   11  C   UNL     1     -12.226  15.455  69.852  1.00  0.00    -0.363 A  
HETATM   12  C   UNL     1     -11.807  14.183  69.416  1.00  0.00    -0.378 A  
BRANCH  12  13
HETATM   13  C   UNL     1     -11.081  14.050  68.080  1.00  0.00    -0.282 C  
BRANCH  13  14
HETATM   14  C   UNL     1     -11.911  14.334  66.817  1.00  0.00    -0.436 C  
BRANCH  14  15
HETATM   15  N   UNL     1     -11.933  13.221  65.879  1.00  0.00    -0.396 N  
HETATM   16  C   UNL     1     -12.228  13.392  64.547  1.00  0.00    -0.398 C  
HETATM   17  H   UNL     1     -11.722  12.283  66.221  1.00  0.00     0.000 HD 
HETATM   18  C   UNL     1     -12.291  12.111  63.757  1.00  0.00    -0.635 C  
HETATM   19  O   UNL     1     -12.420  14.484  64.023  1.00  0.00    -0.778 OA 
ENDBRANCH  14  15
ENDBRANCH  13  14
ENDBRANCH  12  13
ENDBRANCH   2   3
TORSDOF 4
ENDMDL
MODEL        8
REMARK 921   NORMALIZED FREE ENERGY PREDICTED BY IDOCK:   -6.01 KCAL/MOL
REMARK 922        TOTAL FREE ENERGY PREDICTED BY IDOCK:   -7.85 KCAL/MOL
REMARK 923 INTER-LIGAND FREE ENERGY PREDICTED BY IDOCK:   -7.54 KCAL/MOL
REMARK 924 INTRA-LIGAND FREE ENERGY PREDICTED BY IDOCK:   -0.31 KCAL/MOL
REMARK 927      BINDING AFFINITY PREDICTED BY RF-SCORE:    0.00 PKD
ROOT
HETATM    1  C   UNL     1     -11.525   6.960  70.518  1.00  0.00    -0.342 C  
HETATM    2  O   UNL     1     -11.097   8.201  69.957  1.00  0.00    -0.233 OA 
ENDROOT
BRANCH   2   3
HETATM    3  C   UNL     1     -11.720   9.304  70.480  1.00  0.00    -0.176 A  
HETATM    4  C   UNL     1     -11.500  10.514  69.810  1.00  0.00    -0.365 A  
HETATM    5  C   UNL     1     -12.048  11.744  70.268  1.00  0.00    -0.426 A  
HETATM    6  C   UNL     1     -12.860  11.680  71.431  1.00  0.00    -0.461 A  
HETATM    7  C   UNL     1     -13.415  12.843  71.975  1.00  0.00    -0.568 A  
HETATM    8  C   UNL     1     -13.126  10.453  72.053  1.00  0.00    -0.521 A  
HETATM    9  C   UNL     1     -13.183  14.080  71.392  1.00  0.00    -0.404 A  
HETATM   10  C   UNL     1     -12.562   9.270  71.582  1.00  0.00    -0.446 A  
HETATM   11  C   UNL     1     -12.414  14.165  70.236  1.00  0.00    -0.416 A  
HETATM   12  C   UNL     1     -11.834  13.021  69.652  1.00  0.00    -0.385 A  
BRANCH  12  13
HETATM   13  C   UNL     1     -11.088  13.152  68.327  1.00  0.00    -0.295 C  
BRANCH  13  14
HETATM   14  C   UNL     1     -11.925  13.569  67.107  1.00  0.00    -0.381 C  
BRANCH  14  15
HETATM   15  N   UNL     1     -11.311  13.212  65.837  1.00  0.00    -0.304 N  
HETATM   16  C   UNL     1     -12.043  12.722  64.781  1.00  0.00    -0.432 C  
HETATM   17  H   UNL     1     -10.303  13.330  65.725  1.00  0.00     0.000 HD 
HETATM   18  C   UNL     1     -11.218  12.325  63.586  1.00  0.00    -0.539 C  
HETATM   19  O   UNL     1     -13.265  12.617  64.787  1.00  0.00    -0.846 OA 
ENDBRANCH  14  15
ENDBRANCH  13  14
ENDBRANCH  12  13
ENDBRANCH   2   3
TORSDOF 4
ENDMDL
MODEL        9
REMARK 921   NORMALIZED FREE ENERGY PREDICTED BY IDOCK:   -5.83 KCAL/MOL
REMARK 922        TOTAL FREE ENERGY PREDICTED BY IDOCK:   -7.63 KCAL/MOL
REMARK 923 INTER-LIGAND FREE ENERGY PREDICTED BY IDOCK:   -7.23 KCAL/MOL
REMARK 924 INTRA-LIGAND FREE ENERGY PREDICTED BY IDOCK:   -0.40 KCAL/MOL
REMARK 927      BINDING AFFINITY PREDICTED BY RF-SCORE:    0.00 PKD
ROOT
HETATM    1  C   UNL     1     -11.656  15.873  69.127  1.00  0.00    -0.379 C  
HETATM    2  O   UNL     1     -12.622  15.791  70.175  1.00  0.00    -0.347 OA 
ENDROOT
BRANCH   2   3
HETATM    3  C   UNL     1     -12.777  14.537  70.706  1.00  0.00    -0.360 A  
HETATM    4  C   UNL     1     -12.078  13.504  70.067  1.00  0.00    -0.411 A  
HETATM    5  C   UNL     1     -12.182  12.149  70.485  1.00  0.00    -0.392 A  
HETATM    6  C   UNL     1     -13.015  11.895  71.607  1.00  0.00    -0.447 A  
HETATM    7  C   UNL     1     -13.205  10.588  72.068  1.00  0.00    -0.483 A  
HETATM    8  C   UNL     1     -13.656  12.945  72.275  1.00  0.00    -0.611 A  
HETATM    9  C   UNL     1     -12.587   9.516  71.440  1.00  0.00    -0.447 A  
HETATM   10  C   UNL     1     -13.540  14.259  71.831  1.00  0.00    -0.501 A  
HETATM   11  C   UNL     1     -11.745   9.743  70.357  1.00  0.00    -0.301 A  
HETATM   12  C   UNL     1     -11.523  11.041  69.856  1.00  0.00    -0.400 A  
BRANCH  12  13
HETATM   13  C   UNL     1     -10.509  11.249  68.734  1.00  0.00    -0.232 C  
BRANCH  13  14
HETATM   14  C   UNL     1     -11.072  11.320  67.305  1.00  0.00    -0.305 C  
BRANCH  14  15
HETATM   15  N   UNL     1     -10.952  12.640  66.704  1.00  0.00    -0.251 N  
HETATM   16  C   UNL     1     -11.747  13.042  65.656  1.00  0.00    -0.375 C  
HETATM   17  H   UNL     1     -10.255  13.288  67.071  1.00  0.00     0.000 HD 
HETATM   18  C   UNL     1     -11.411  14.405  65.111  1.00  0.00    -0.362 C  
HETATM   19  O   UNL     1     -12.662  12.369  65.194  1.00  0.00    -0.630 OA 
ENDBRANCH  14  15
ENDBRANCH  13  14
ENDBRANCH  12  13
ENDBRANCH   2   3
TORSDOF 4
ENDMDL
MODEL       10
REMARK 921   NORMALIZED FREE ENERGY PREDICTED BY IDOCK:   -5.71 KCAL/MOL
REMARK 922        TOTAL FREE ENERGY PREDICTED BY IDOCK:   -7.48 KCAL/MOL
REMARK 923 INTER-LIGAND FREE ENERGY PREDICTED BY IDOCK:   -7.18 KCAL/MOL
REMARK 924 INTRA-LIGAND FREE ENERGY PREDICTED BY IDOCK:   -0.30 KCAL/MOL
REMARK 927      BINDING AFFINITY PREDICTED BY RF-SCORE:    0.00 PKD
ROOT
HETATM    1  C   UNL     1     -11.883  15.401  64.374  1.00  0.00    -0.256 C  
HETATM    2  O   UNL     1     -12.649  14.196  64.387  1.00  0.00    -0.658 OA 
ENDROOT
BRANCH   2   3
HETATM    3  C   UNL     1     -11.905  13.055  64.537  1.00  0.00    -0.377 A  
HETATM    4  C   UNL     1     -11.868  12.505  65.825  1.00  0.00    -0.494 A  
HETATM    5  C   UNL     1     -11.101  11.348  66.133  1.00  0.00    -0.259 A  
HETATM    6  C   UNL     1     -10.390  10.755  65.056  1.00  0.00    -0.357 A  
HETATM    7  C   UNL     1      -9.582   9.634  65.270  1.00  0.00    -0.347 A  
HETATM    8  C   UNL     1     -10.488  11.277  63.759  1.00  0.00    -0.459 A  
HETATM    9  C   UNL     1      -9.457   9.080  66.536  1.00  0.00    -0.266 A  
HETATM   10  C   UNL     1     -11.241  12.419  63.498  1.00  0.00    -0.540 A  
HETATM   11  C   UNL     1     -10.165   9.626  67.601  1.00  0.00    -0.267 A  
HETATM   12  C   UNL     1     -10.991  10.755  67.434  1.00  0.00    -0.361 A  
BRANCH  12  13
HETATM   13  C   UNL     1     -11.829  11.251  68.610  1.00  0.00    -0.369 C  
BRANCH  13  14
HETATM   14  C   UNL     1     -11.453  10.706  69.998  1.00  0.00    -0.325 C  
BRANCH  14  15
HETATM   15  N   UNL     1     -12.374   9.690  70.487  1.00  0.00    -0.481 N  
HETATM   16  C   UNL     1     -13.207   9.912  71.558  1.00  0.00    -0.408 C  
HETATM   17  H   UNL     1     -12.402   8.784  70.019  1.00  0.00     0.000 HD 
HETATM   18  C   UNL     1     -14.018   8.713  71.971  1.00  0.00    -0.506 C  
HETATM   19  O   UNL     1     -13.305  10.989  72.137  1.00  0.00    -0.451 OA 
ENDBRANCH  14  15
ENDBRANCH  13  14
ENDBRANCH  12  13
ENDBRANCH   2   3
TORSDOF 4
ENDMDL
MODEL       11
REMARK 921   NORMALIZED FREE ENERGY PREDICTED BY IDOCK:   -5.69 KCAL/MOL
REMARK 922        TOTAL FREE ENERGY PREDICTED BY IDOCK:   -7.45 KCAL/MOL
REMARK 923 INTER-LIGAND FREE ENERGY PREDICTED BY IDOCK:   -7.07 KCAL/MOL
REMARK 924 INTRA-LIGAND FREE ENERGY PREDICTED BY IDOCK:   -0.38 KCAL/MOL
REMARK 927      BINDING AFFINITY PREDICTED BY RF-SCORE:    0.00 PKD
ROOT
HETATM    1  C   UNL     1     -10.409  19.643  66.131  1.00  0.00    -0.530 C  
HETATM    2  O   UNL     1      -9.953  18.369  65.678  1.00  0.00    -0.477 OA 
ENDROOT
BRANCH   2   3
HETATM    3  C   UNL     1     -10.361  17.313  66.451  1.00  0.00    -0.316 A  
HETATM    4  C   UNL     1     -10.573  16.101  65.781  1.00  0.00    -0.347 A  
HETATM    5  C   UNL     1     -11.039  14.937  66.452  1.00  0.00    -0.342 A  
HETATM    6  C   UNL     1     -11.254  15.056  67.851  1.00  0.00    -0.330 A  
HETATM    7  C   UNL     1     -11.744  13.973  68.589  1.00  0.00    -0.389 A  
HETATM    8  C   UNL     1     -10.975  16.256  68.519  1.00  0.00    -0.345 A  
HETATM    9  C   UNL     1     -12.031  12.765  67.971  1.00  0.00    -0.315 A  
HETATM   10  C   UNL     1     -10.530  17.378  67.827  1.00  0.00    -0.376 A  
HETATM   11  C   UNL     1     -11.803  12.615  66.607  1.00  0.00    -0.449 A  
HETATM   12  C   UNL     1     -11.310  13.678  65.823  1.00  0.00    -0.315 A  
BRANCH  12  13
HETATM   13  C   UNL     1     -10.977  13.432  64.354  1.00  0.00    -0.413 C  
BRANCH  13  14
HETATM   14  C   UNL     1     -11.632  12.206  63.697  1.00  0.00    -0.486 C  
BRANCH  14  15
HETATM   15  N   UNL     1     -10.703  11.407  62.911  1.00  0.00    -0.758 N  
HETATM   16  C   UNL     1      -9.861  10.486  63.487  1.00  0.00    -0.278 C  
HETATM   17  H   UNL     1     -10.676  11.535  61.899  1.00  0.00     0.000 HD 
HETATM   18  C   UNL     1      -8.911   9.826  62.522  1.00  0.00    -0.280 C  
HETATM   19  O   UNL     1      -9.870  10.203  64.680  1.00  0.00    -0.324 OA 
ENDBRANCH  14  15
ENDBRANCH  13  14
ENDBRANCH  12  13
ENDBRANCH   2   3
TORSDOF 4
ENDMDL
MODEL       12
REMARK 921   NORMALIZED FREE ENERGY PREDICTED BY IDOCK:   -5.68 KCAL/MOL
REMARK 922        TOTAL FREE ENERGY PREDICTED BY IDOCK:   -7.44 KCAL/MOL
REMARK 923 INTER-LIGAND FREE ENERGY PREDICTED BY IDOCK:   -7.11 KCAL/MOL
REMARK 924 INTRA-LIGAND FREE ENERGY PREDICTED BY IDOCK:   -0.33 KCAL/MOL
REMARK 927      BINDING AFFINITY PREDICTED BY RF-SCORE:    0.00 PKD
ROOT
HETATM    1  C   UNL     1     -13.898  15.308  72.685  1.00  0.00    -0.487 C  
HETATM    2  O   UNL     1     -13.870  13.893  72.870  1.00  0.00    -0.662 OA 
ENDROOT
BRANCH   2   3
HETATM    3  C   UNL     1     -13.214  13.205  71.883  1.00  0.00    -0.431 A  
HETATM    4  C   UNL     1     -12.683  13.975  70.840  1.00  0.00    -0.420 A  
HETATM    5  C   UNL     1     -12.017  13.389  69.729  1.00  0.00    -0.396 A  
HETATM    6  C   UNL     1     -11.891  11.975  69.741  1.00  0.00    -0.401 A  
HETATM    7  C   UNL     1     -11.281  11.307  68.674  1.00  0.00    -0.310 A  
HETATM    8  C   UNL     1     -12.369  11.222  70.822  1.00  0.00    -0.495 A  
HETATM    9  C   UNL     1     -10.790  12.010  67.584  1.00  0.00    -0.273 A  
HETATM   10  C   UNL     1     -13.026  11.830  71.888  1.00  0.00    -0.435 A  
HETATM   11  C   UNL     1     -10.877  13.398  67.562  1.00  0.00    -0.276 A  
HETATM   12  C   UNL     1     -11.482  14.114  68.613  1.00  0.00    -0.332 A  
BRANCH  12  13
HETATM   13  C   UNL     1     -11.458  15.640  68.592  1.00  0.00    -0.381 C  
BRANCH  13  14
HETATM   14  C   UNL     1     -10.700  16.298  67.427  1.00  0.00    -0.287 C  
BRANCH  14  15
HETATM   15  N   UNL     1     -10.753  17.753  67.454  1.00  0.00    -0.328 N  
HETATM   16  C   UNL     1      -9.808  18.507  68.109  1.00  0.00    -0.346 C  
HETATM   17  H   UNL     1     -11.515  18.228  66.970  1.00  0.00     0.000 HD 
HETATM   18  C   UNL     1     -10.083  19.988  68.101  1.00  0.00    -0.547 C  
HETATM   19  O   UNL     1      -8.815  18.038  68.654  1.00  0.00    -0.301 OA 
ENDBRANCH  14  15
ENDBRANCH  13  14
ENDBRANCH  12  13
ENDBRANCH   2   3
TORSDOF 4
ENDMDL
MODEL       13
REMARK 921   NORMALIZED FREE ENERGY PREDICTED BY IDOCK:   -5.68 KCAL/MOL
REMARK 922        TOTAL FREE ENERGY PREDICTED BY IDOCK:   -7.44 KCAL/MOL
REMARK 923 INTER-LIGAND FREE ENERGY PREDICTED BY IDOCK:   -7.14 KCAL/MOL
REMARK 924 INTRA-LIGAND FREE ENERGY PREDICTED BY IDOCK:   -0.31 KCAL/MOL
REMARK 927      BINDING AFFINITY PREDICTED BY RF-SCORE:    0.00 PKD
ROOT
HETATM    1  C   UNL     1     -11.691  12.951  66.025  1.00  0.00    -0.404 C  
HETATM    2  O   UNL     1     -10.885  13.897  66.727  1.00  0.00    -0.283 OA 
ENDROOT
BRANCH   2   3
HETATM    3  C   UNL     1     -11.387  14.279  67.943  1.00  0.00    -0.297 A  
HETATM    4  C   UNL     1     -11.735  13.245  68.821  1.00  0.00    -0.366 A  
HETATM    5  C   UNL     1     -12.308  13.495  70.098  1.00  0.00    -0.345 A  
HETATM    6  C   UNL     1     -12.488  14.859  70.454  1.00  0.00    -0.403 A  
HETATM    7  C   UNL     1     -13.076  15.202  71.676  1.00  0.00    -0.471 A  
HETATM    8  C   UNL     1     -12.076  15.884  69.592  1.00  0.00    -0.216 A  
HETATM    9  C   UNL     1     -13.496  14.221  72.562  1.00  0.00    -0.613 A  
HETATM   10  C   UNL     1     -11.528  15.600  68.345  1.00  0.00    -0.374 A  
HETATM   11  C   UNL     1     -13.305  12.880  72.248  1.00  0.00    -0.597 A  
HETATM   12  C   UNL     1     -12.718  12.486  71.030  1.00  0.00    -0.316 A  
BRANCH  12  13
HETATM   13  C   UNL     1     -12.434  11.007  70.778  1.00  0.00    -0.491 C  
BRANCH  13  14
HETATM   14  C   UNL     1     -13.329  10.001  71.520  1.00  0.00    -0.361 C  
BRANCH  14  15
HETATM   15  N   UNL     1     -13.048   8.615  71.175  1.00  0.00    -0.512 N  
HETATM   16  C   UNL     1     -12.099   7.874  71.840  1.00  0.00    -0.312 C  
HETATM   17  H   UNL     1     -13.571   8.179  70.416  1.00  0.00     0.000 HD 
HETATM   18  C   UNL     1     -11.888   6.492  71.280  1.00  0.00    -0.385 C  
HETATM   19  O   UNL     1     -11.472   8.279  72.813  1.00  0.00    -0.391 OA 
ENDBRANCH  14  15
ENDBRANCH  13  14
ENDBRANCH  12  13
ENDBRANCH   2   3
TORSDOF 4
ENDMDL
MODEL       14
REMARK 921   NORMALIZED FREE ENERGY PREDICTED BY IDOCK:   -5.67 KCAL/MOL
REMARK 922        TOTAL FREE ENERGY PREDICTED BY IDOCK:   -7.44 KCAL/MOL
REMARK 923 INTER-LIGAND FREE ENERGY PREDICTED BY IDOCK:   -7.05 KCAL/MOL
REMARK 924 INTRA-LIGAND FREE ENERGY PREDICTED BY IDOCK:   -0.38 KCAL/MOL
REMARK 927      BINDING AFFINITY PREDICTED BY RF-SCORE:    0.00 PKD
ROOT
HETATM    1  C   UNL     1     -11.833  12.360  63.503  1.00  0.00    -0.521 C  
HETATM    2  O   UNL     1     -10.644  13.000  63.966  1.00  0.00    -0.412 OA 
ENDROOT
BRANCH   2   3
HETATM    3  C   UNL     1     -10.795  13.696  65.138  1.00  0.00    -0.334 A  
HETATM    4  C   UNL     1     -11.167  12.944  66.260  1.00  0.00    -0.337 A  
HETATM    5  C   UNL     1     -11.400  13.542  67.529  1.00  0.00    -0.335 A  
HETATM    6  C   UNL     1     -11.209  14.947  67.610  1.00  0.00    -0.330 A  
HETATM    7  C   UNL     1     -11.448  15.627  68.809  1.00  0.00    -0.382 A  
HETATM    8  C   UNL     1     -10.774  15.677  66.496  1.00  0.00    -0.293 A  
HETATM    9  C   UNL     1     -11.876  14.946  69.939  1.00  0.00    -0.355 A  
HETATM   10  C   UNL     1     -10.566  15.058  65.267  1.00  0.00    -0.418 A  
HETATM   11  C   UNL     1     -12.043  13.566  69.891  1.00  0.00    -0.408 A  
HETATM   12  C   UNL     1     -11.815  12.838  68.707  1.00  0.00    -0.346 A  
BRANCH  12  13
HETATM   13  C   UNL     1     -11.910  11.315  68.734  1.00  0.00    -0.396 C  
BRANCH  13  14
HETATM   14  C   UNL     1     -11.316  10.613  69.966  1.00  0.00    -0.324 C  
BRANCH  14  15
HETATM   15  N   UNL     1     -12.194   9.598  70.531  1.00  0.00    -0.467 N  
HETATM   16  C   UNL     1     -13.045   9.867  71.577  1.00  0.00    -0.418 C  
HETATM   17  H   UNL     1     -12.179   8.657  70.137  1.00  0.00     0.000 HD 
HETATM   18  C   UNL     1     -13.805   8.669  72.081  1.00  0.00    -0.482 C  
HETATM   19  O   UNL     1     -13.195  10.980  72.068  1.00  0.00    -0.499 OA 
ENDBRANCH  14  15
ENDBRANCH  13  14
ENDBRANCH  12  13
ENDBRANCH   2   3
TORSDOF 4
ENDMDL
MODEL       15
REMARK 921   NORMALIZED FREE ENERGY PREDICTED BY IDOCK:   -5.65 KCAL/MOL
REMARK 922        TOTAL FREE ENERGY PREDICTED BY IDOCK:   -7.41 KCAL/MOL
REMARK 923 INTER-LIGAND FREE ENERGY PREDICTED BY IDOCK:   -7.15 KCAL/MOL
REMARK 924 INTRA-LIGAND FREE ENERGY PREDICTED BY IDOCK:   -0.26 KCAL/MOL
REMARK 927      BINDING AFFINITY PREDICTED BY RF-SCORE:    0.00 PKD
ROOT
HETATM    1  C   UNL     1     -11.775  15.924  64.336  1.00  0.00    -0.179 C  
HETATM    2  O   UNL     1     -12.484  14.721  64.041  1.00  0.00    -0.803 OA 
ENDROOT
BRANCH   2   3
HETATM    3  C   UNL     1     -11.978  13.601  64.648  1.00  0.00    -0.407 A  
HETATM    4  C   UNL     1     -11.905  13.634  66.047  1.00  0.00    -0.415 A  
HETATM    5  C   UNL     1     -11.361  12.560  66.803  1.00  0.00    -0.390 A  
HETATM    6  C   UNL     1     -10.915  11.431  66.066  1.00  0.00    -0.286 A  
HETATM    7  C   UNL     1     -10.334  10.340  66.721  1.00  0.00    -0.288 A  
HETATM    8  C   UNL     1     -11.053  11.384  64.672  1.00  0.00    -0.277 A  
HETATM    9  C   UNL     1     -10.179  10.340  68.099  1.00  0.00    -0.192 A  
HETATM   10  C   UNL     1     -11.582  12.460  63.965  1.00  0.00    -0.488 A  
HETATM   11  C   UNL     1     -10.633  11.423  68.845  1.00  0.00    -0.234 A  
HETATM   12  C   UNL     1     -11.225  12.543  68.230  1.00  0.00    -0.309 A  
BRANCH  12  13
HETATM   13  C   UNL     1     -11.802  13.658  69.099  1.00  0.00    -0.394 C  
BRANCH  13  14
HETATM   14  C   UNL     1     -12.227  13.266  70.524  1.00  0.00    -0.340 C  
BRANCH  14  15
HETATM   15  N   UNL     1     -12.013  14.324  71.500  1.00  0.00    -0.404 N  
HETATM   16  C   UNL     1     -12.863  14.522  72.563  1.00  0.00    -0.386 C  
HETATM   17  H   UNL     1     -11.205  14.939  71.393  1.00  0.00     0.000 HD 
HETATM   18  C   UNL     1     -12.527  15.721  73.410  1.00  0.00    -0.642 C  
HETATM   19  O   UNL     1     -13.814  13.793  72.824  1.00  0.00    -0.716 OA 
ENDBRANCH  14  15
ENDBRANCH  13  14
ENDBRANCH  12  13
ENDBRANCH   2   3
TORSDOF 4
ENDMDL
MODEL       16
REMARK 921   NORMALIZED FREE ENERGY PREDICTED BY IDOCK:   -5.63 KCAL/MOL
REMARK 922        TOTAL FREE ENERGY PREDICTED BY IDOCK:   -7.38 KCAL/MOL
REMARK 923 INTER-LIGAND FREE ENERGY PREDICTED BY IDOCK:   -7.05 KCAL/MOL
REMARK 924 INTRA-LIGAND FREE ENERGY PREDICTED BY IDOCK:   -0.33 KCAL/MOL
REMARK 927      BINDING AFFINITY PREDICTED BY RF-SCORE:    0.00 PKD
ROOT
HETATM    1  C   UNL     1     -12.606  11.975  63.481  1.00  0.00    -0.507 C  
HETATM    2  O   UNL     1     -13.036  12.554  64.713  1.00  0.00    -0.853 OA 
ENDROOT
BRANCH   2   3
HETATM    3  C   UNL     1     -12.232  13.562  65.177  1.00  0.00    -0.428 A  
HETATM    4  C   UNL     1     -12.383  13.903  66.528  1.00  0.00    -0.447 A  
HETATM    5  C   UNL     1     -11.644  14.958  67.130  1.00  0.00    -0.327 A  
HETATM    6  C   UNL     1     -10.718  15.638  66.295  1.00  0.00    -0.295 A  
HETATM    7  C   UNL     1      -9.971  16.712  66.791  1.00  0.00    -0.284 A  
HETATM    8  C   UNL     1     -10.530  15.244  64.964  1.00  0.00    -0.411 A  
HETATM    9  C   UNL     1     -10.121  17.135  68.103  1.00  0.00    -0.311 A  
HETATM   10  C   UNL     1     -11.279  14.212  64.406  1.00  0.00    -0.290 A  
HETATM   11  C   UNL     1     -11.002  16.468  68.948  1.00  0.00    -0.325 A  
HETATM   12  C   UNL     1     -11.775  15.381  68.494  1.00  0.00    -0.355 A  
BRANCH  12  13
HETATM   13  C   UNL     1     -12.648  14.616  69.485  1.00  0.00    -0.039 C  
BRANCH  13  14
HETATM   14  C   UNL     1     -11.926  13.981  70.685  1.00  0.00    -0.305 C  
BRANCH  14  15
HETATM   15  N   UNL     1     -12.130  12.543  70.785  1.00  0.00    -0.479 N  
HETATM   16  C   UNL     1     -12.970  11.985  71.720  1.00  0.00    -0.340 C  
HETATM   17  H   UNL     1     -11.633  11.928  70.139  1.00  0.00     0.000 HD 
HETATM   18  C   UNL     1     -12.978  10.479  71.727  1.00  0.00    -0.582 C  
HETATM   19  O   UNL     1     -13.668  12.638  72.488  1.00  0.00    -0.471 OA 
ENDBRANCH  14  15
ENDBRANCH  13  14
ENDBRANCH  12  13
ENDBRANCH   2   3
TORSDOF 4
ENDMDL
MODEL       17
REMARK 921   NORMALIZED FREE ENERGY PREDICTED BY IDOCK:   -5.59 KCAL/MOL
REMARK 922        TOTAL FREE ENERGY PREDICTED BY IDOCK:   -7.34 KCAL/MOL
REMARK 923 INTER-LIGAND FREE ENERGY PREDICTED BY IDOCK:   -7.12 KCAL/MOL
REMARK 924 INTRA-LIGAND FREE ENERGY PREDICTED BY IDOCK:   -0.22 KCAL/MOL
REMARK 927      BINDING AFFINITY PREDICTED BY RF-SCORE:    0.00 PKD
ROOT
HETATM    1  C   UNL     1     -11.964  14.461  64.116  1.00  0.00    -0.346 C  
HETATM    2  O   UNL     1     -10.806  14.053  64.844  1.00  0.00    -0.364 OA 
ENDROOT
BRANCH   2   3
HETATM    3  C   UNL     1     -11.066  13.220  65.901  1.00  0.00    -0.285 A  
HETATM    4  C   UNL     1     -11.401  13.842  67.111  1.00  0.00    -0.344 A  
HETATM    5  C   UNL     1     -11.653  13.102  68.299  1.00  0.00    -0.370 A  
HETATM    6  C   UNL     1     -11.573  11.688  68.191  1.00  0.00    -0.389 A  
HETATM    7  C   UNL     1     -11.771  10.878  69.315  1.00  0.00    -0.395 A  
HETATM    8  C   UNL     1     -11.301  11.077  66.960  1.00  0.00    -0.164 A  
HETATM    9  C   UNL     1     -12.046  11.438  70.554  1.00  0.00    -0.487 A  
HETATM   10  C   UNL     1     -11.049  11.835  65.821  1.00  0.00    -0.351 A  
HETATM   11  C   UNL     1     -12.157  12.819  70.679  1.00  0.00    -0.316 A  
HETATM   12  C   UNL     1     -11.965  13.674  69.576  1.00  0.00    -0.397 A  
BRANCH  12  13
HETATM   13  C   UNL     1     -12.202  15.173  69.741  1.00  0.00    -0.325 C  
BRANCH  13  14
HETATM   14  C   UNL     1     -13.312  15.589  70.719  1.00  0.00    -0.259 C  
BRANCH  14  15
HETATM   15  N   UNL     1     -12.808  16.002  72.021  1.00  0.00    -0.464 N  
HETATM   16  C   UNL     1     -13.040  15.271  73.162  1.00  0.00    -0.518 C  
HETATM   17  H   UNL     1     -12.263  16.863  72.089  1.00  0.00     0.000 HD 
HETATM   18  C   UNL     1     -12.517  15.906  74.423  1.00  0.00    -0.767 C  
HETATM   19  O   UNL     1     -13.614  14.187  73.175  1.00  0.00    -0.579 OA 
ENDBRANCH  14  15
ENDBRANCH  13  14
ENDBRANCH  12  13
ENDBRANCH   2   3
TORSDOF 4
ENDMDL
MODEL       18
REMARK 921   NORMALIZED FREE ENERGY PREDICTED BY IDOCK:   -5.53 KCAL/MOL
REMARK 922        TOTAL FREE ENERGY PREDICTED BY IDOCK:   -7.25 KCAL/MOL
REMARK 923 INTER-LIGAND FREE ENERGY PREDICTED BY IDOCK:   -6.98 KCAL/MOL
REMARK 924 INTRA-LIGAND FREE ENERGY PREDICTED BY IDOCK:   -0.28 KCAL/MOL
REMARK 927      BINDING AFFINITY PREDICTED BY RF-SCORE:    0.00 PKD
ROOT
HETATM    1  C   UNL     1      -9.172   7.658  66.505  1.00  0.00    -0.176 C  
HETATM    2  O   UNL     1      -9.586   8.821  67.222  1.00  0.00    -0.151 OA 
ENDROOT
BRANCH   2   3
HETATM    3  C   UNL     1     -10.028   9.848  66.430  1.00  0.00    -0.244 A  
HETATM    4  C   UNL     1     -10.631  10.925  67.092  1.00  0.00    -0.302 A  
HETATM    5  C   UNL     1     -11.174  12.037  66.392  1.00  0.00    -0.389 A  
HETATM    6  C   UNL     1     -11.050  12.015  64.977  1.00  0.00    -0.368 A  
HETATM    7  C   UNL     1     -11.584  13.050  64.201  1.00  0.00    -0.462 A  
HETATM    8  C   UNL     1     -10.386  10.963  64.332  1.00  0.00    -0.430 A  
HETATM    9  C   UNL     1     -12.246  14.114  64.796  1.00  0.00    -0.457 A  
HETATM   10  C   UNL     1      -9.877   9.886  65.051  1.00  0.00    -0.323 A  
HETATM   11  C   UNL     1     -12.357  14.171  66.181  1.00  0.00    -0.463 A  
HETATM   12  C   UNL     1     -11.835  13.153  67.003  1.00  0.00    -0.435 A  
BRANCH  12  13
HETATM   13  C   UNL     1     -11.888  13.314  68.520  1.00  0.00    -0.384 C  
BRANCH  13  14
HETATM   14  C   UNL     1     -12.079  14.744  69.052  1.00  0.00    -0.221 C  
BRANCH  14  15
HETATM   15  N   UNL     1     -13.140  14.854  70.043  1.00  0.00    -0.568 N  
HETATM   16  C   UNL     1     -12.957  15.499  71.243  1.00  0.00    -0.499 C  
HETATM   17  H   UNL     1     -14.050  14.439  69.839  1.00  0.00     0.000 HD 
HETATM   18  C   UNL     1     -14.141  15.427  72.172  1.00  0.00    -0.651 C  
HETATM   19  O   UNL     1     -11.931  16.095  71.550  1.00  0.00    -0.453 OA 
ENDBRANCH  14  15
ENDBRANCH  13  14
ENDBRANCH  12  13
ENDBRANCH   2   3
TORSDOF 4
ENDMDL
MODEL       19
REMARK 921   NORMALIZED FREE ENERGY PREDICTED BY IDOCK:   -5.50 KCAL/MOL
REMARK 922        TOTAL FREE ENERGY PREDICTED BY IDOCK:   -7.23 KCAL/MOL
REMARK 923 INTER-LIGAND FREE ENERGY PREDICTED BY IDOCK:   -6.90 KCAL/MOL
REMARK 924 INTRA-LIGAND FREE ENERGY PREDICTED BY IDOCK:   -0.33 KCAL/MOL
REMARK 927      BINDING AFFINITY PREDICTED BY RF-SCORE:    0.00 PKD
ROOT
HETATM    1  C   UNL     1     -12.576  11.257  71.023  1.00  0.00    -0.394 C  
HETATM    2  O   UNL     1     -13.133  12.468  71.535  1.00  0.00    -0.381 OA 
ENDROOT
BRANCH   2   3
HETATM    3  C   UNL     1     -12.546  13.609  71.055  1.00  0.00    -0.363 A  
HETATM    4  C   UNL     1     -12.383  13.684  69.665  1.00  0.00    -0.257 A  
HETATM    5  C   UNL     1     -11.750  14.790  69.035  1.00  0.00    -0.343 A  
HETATM    6  C   UNL     1     -11.312  15.838  69.888  1.00  0.00    -0.349 A  
HETATM    7  C   UNL     1     -10.649  16.952  69.362  1.00  0.00    -0.292 A  
HETATM    8  C   UNL     1     -11.541  15.781  71.269  1.00  0.00    -0.499 A  
HETATM    9  C   UNL     1     -10.403  17.054  68.000  1.00  0.00    -0.341 A  
HETATM   10  C   UNL     1     -12.155  14.675  71.852  1.00  0.00    -0.375 A  
HETATM   11  C   UNL     1     -10.847  16.053  67.142  1.00  0.00    -0.239 A  
HETATM   12  C   UNL     1     -11.519  14.913  67.626  1.00  0.00    -0.366 A  
BRANCH  12  13
HETATM   13  C   UNL     1     -12.078  13.896  66.634  1.00  0.00    -0.485 C  
BRANCH  13  14
HETATM   14  C   UNL     1     -11.858  14.199  65.143  1.00  0.00    -0.372 C  
BRANCH  14  15
HETATM   15  N   UNL     1     -10.910  13.297  64.505  1.00  0.00    -0.373 N  
HETATM   16  C   UNL     1     -11.317  12.249  63.713  1.00  0.00    -0.459 C  
HETATM   17  H   UNL     1      -9.911  13.446  64.651  1.00  0.00     0.000 HD 
HETATM   18  C   UNL     1     -10.195  11.375  63.218  1.00  0.00    -0.430 C  
HETATM   19  O   UNL     1     -12.485  12.031  63.414  1.00  0.00    -0.577 OA 
ENDBRANCH  14  15
ENDBRANCH  13  14
ENDBRANCH  12  13
ENDBRANCH   2   3
TORSDOF 4
ENDMDL
MODEL       20
REMARK 921   NORMALIZED FREE ENERGY PREDICTED BY IDOCK:   -5.50 KCAL/MOL
REMARK 922        TOTAL FREE ENERGY PREDICTED BY IDOCK:   -7.23 KCAL/MOL
REMARK 923 INTER-LIGAND FREE ENERGY PREDICTED BY IDOCK:   -6.56 KCAL/MOL
REMARK 924 INTRA-LIGAND FREE ENERGY PREDICTED BY IDOCK:   -0.67 KCAL/MOL
REMARK 927      BINDING AFFINITY PREDICTED BY RF-SCORE:    0.00 PKD
ROOT
HETATM    1  C   UNL     1     -10.151   9.340  66.208  1.00  0.00    -0.252 C  
HETATM    2  O   UNL     1      -9.439  10.040  67.228  1.00  0.00    -0.150 OA 
ENDROOT
BRANCH   2   3
HETATM    3  C   UNL     1     -10.177  10.992  67.883  1.00  0.00    -0.182 A  
HETATM    4  C   UNL     1     -10.049  12.305  67.412  1.00  0.00    -0.207 A  
HETATM    5  C   UNL     1     -10.722  13.398  68.024  1.00  0.00    -0.261 A  
HETATM    6  C   UNL     1     -11.560  13.086  69.128  1.00  0.00    -0.368 A  
HETATM    7  C   UNL     1     -12.236  14.101  69.815  1.00  0.00    -0.397 A  
HETATM    8  C   UNL     1     -11.729  11.760  69.547  1.00  0.00    -0.408 A  
HETATM    9  C   UNL     1     -12.101  15.428  69.434  1.00  0.00    -0.308 A  
HETATM   10  C   UNL     1     -11.045  10.717  68.930  1.00  0.00    -0.307 A  
HETATM   11  C   UNL     1     -11.308  15.755  68.339  1.00  0.00    -0.372 A  
HETATM   12  C   UNL     1     -10.608  14.768  67.617  1.00  0.00    -0.262 A  
BRANCH  12  13
HETATM   13  C   UNL     1      -9.838  15.165  66.360  1.00  0.00    -0.300 C  
BRANCH  13  14
HETATM   14  C   UNL     1     -10.664  15.338  65.075  1.00  0.00    -0.439 C  
BRANCH  14  15
HETATM   15  N   UNL     1     -10.962  14.079  64.408  1.00  0.00    -0.586 N  
HETATM   16  C   UNL     1     -12.165  13.432  64.569  1.00  0.00    -0.398 C  
HETATM   17  H   UNL     1     -10.256  13.663  63.800  1.00  0.00     0.000 HD 
HETATM   18  C   UNL     1     -12.251  12.101  63.871  1.00  0.00    -0.587 C  
HETATM   19  O   UNL     1     -13.105  13.886  65.213  1.00  0.00    -0.777 OA 
ENDBRANCH  14  15
ENDBRANCH  13  14
ENDBRANCH  12  13
ENDBRANCH   2   3
TORSDOF 4
ENDMDL
MODEL       21
REMARK 921   NORMALIZED FREE ENERGY PREDICTED BY IDOCK:   -5.45 KCAL/MOL
REMARK 922        TOTAL FREE ENERGY PREDICTED BY IDOCK:   -7.17 KCAL/MOL
REMARK 923 INTER-LIGAND FREE ENERGY PREDICTED BY IDOCK:   -6.91 KCAL/MOL
REMARK 924 INTRA-LIGAND FREE ENERGY PREDICTED BY IDOCK:   -0.26 KCAL/MOL
REMARK 927      BINDING AFFINITY PREDICTED BY RF-SCORE:    0.00 PKD
ROOT
HETATM    1  C   UNL     1     -12.084   8.607  72.008  1.00  0.00    -0.375 C  
HETATM    2  O   UNL     1     -12.271   9.315  70.783  1.00  0.00    -0.246 OA 
ENDROOT
BRANCH   2   3
HETATM    3  C   UNL     1     -12.444  10.667  70.930  1.00  0.00    -0.397 A  
HETATM    4  C   UNL     1     -11.984  11.468  69.877  1.00  0.00    -0.426 A  
HETATM    5  C   UNL     1     -12.059  12.887  69.915  1.00  0.00    -0.335 A  
HETATM    6  C   UNL     1     -12.653  13.457  71.073  1.00  0.00    -0.425 A  
HETATM    7  C   UNL     1     -12.740  14.846  71.215  1.00  0.00    -0.412 A  
HETATM    8  C   UNL     1     -13.168  12.642  72.090  1.00  0.00    -0.527 A  
HETATM    9  C   UNL     1     -12.247  15.693  70.233  1.00  0.00    -0.416 A  
HETATM   10  C   UNL     1     -13.066  11.255  72.021  1.00  0.00    -0.431 A  
HETATM   11  C   UNL     1     -11.686  15.158  69.078  1.00  0.00    -0.358 A  
HETATM   12  C   UNL     1     -11.577  13.766  68.891  1.00  0.00    -0.358 A  
BRANCH  12  13
HETATM   13  C   UNL     1     -11.051  13.228  67.562  1.00  0.00    -0.292 C  
BRANCH  13  14
HETATM   14  C   UNL     1     -12.087  13.035  66.442  1.00  0.00    -0.358 C  
BRANCH  14  15
HETATM   15  N   UNL     1     -11.595  12.226  65.336  1.00  0.00    -0.361 N  
HETATM   16  C   UNL     1     -10.796  12.749  64.346  1.00  0.00    -0.368 C  
HETATM   17  H   UNL     1     -11.852  11.240  65.293  1.00  0.00     0.000 HD 
HETATM   18  C   UNL     1     -10.466  11.781  63.241  1.00  0.00    -0.439 C  
HETATM   19  O   UNL     1     -10.369  13.898  64.347  1.00  0.00    -0.384 OA 
ENDBRANCH  14  15
ENDBRANCH  13  14
ENDBRANCH  12  13
ENDBRANCH   2   3
TORSDOF 4
ENDMDL
MODEL       22
REMARK 921   NORMALIZED FREE ENERGY PREDICTED BY IDOCK:   -5.45 KCAL/MOL
REMARK 922        TOTAL FREE ENERGY PREDICTED BY IDOCK:   -7.16 KCAL/MOL
REMARK 923 INTER-LIGAND FREE ENERGY PREDICTED BY IDOCK:   -6.81 KCAL/MOL
REMARK 924 INTRA-LIGAND FREE ENERGY PREDICTED BY IDOCK:   -0.35 KCAL/MOL
REMARK 927      BINDING AFFINITY PREDICTED BY RF-SCORE:    0.00 PKD
ROOT
HETATM    1  C   UNL     1     -12.586  15.794  73.975  1.00  0.00    -0.623 C  
HETATM    2  O   UNL     1     -12.145  16.475  72.800  1.00  0.00    -0.508 OA 
ENDROOT
BRANCH   2   3
HETATM    3  C   UNL     1     -12.053  15.681  71.686  1.00  0.00    -0.426 A  
HETATM    4  C   UNL     1     -11.524  16.285  70.538  1.00  0.00    -0.282 A  
HETATM    5  C   UNL     1     -11.412  15.592  69.301  1.00  0.00    -0.368 A  
HETATM    6  C   UNL     1     -11.841  14.238  69.294  1.00  0.00    -0.372 A  
HETATM    7  C   UNL     1     -11.800  13.487  68.115  1.00  0.00    -0.400 A  
HETATM    8  C   UNL     1     -12.307  13.628  70.466  1.00  0.00    -0.425 A  
HETATM    9  C   UNL     1     -11.343  14.048  66.931  1.00  0.00    -0.343 A  
HETATM   10  C   UNL     1     -12.412  14.341  71.656  1.00  0.00    -0.419 A  
HETATM   11  C   UNL     1     -10.892  15.363  66.919  1.00  0.00    -0.313 A  
HETATM   12  C   UNL     1     -10.914  16.159  68.082  1.00  0.00    -0.341 A  
BRANCH  12  13
HETATM   13  C   UNL     1     -10.311  17.560  68.043  1.00  0.00    -0.368 C  
BRANCH  13  14
HETATM   14  C   UNL     1      -8.793  17.660  68.266  1.00  0.00    -0.276 C  
BRANCH  14  15
HETATM   15  N   UNL     1      -8.167  18.728  67.500  1.00  0.00    -0.259 N  
HETATM   16  C   UNL     1      -7.677  18.527  66.230  1.00  0.00    -0.254 C  
HETATM   17  H   UNL     1      -8.088  19.655  67.918  1.00  0.00     0.000 HD 
HETATM   18  C   UNL     1      -6.985  19.725  65.637  1.00  0.00    -0.329 C  
HETATM   19  O   UNL     1      -7.792  17.475  65.611  1.00  0.00    -0.507 OA 
ENDBRANCH  14  15
ENDBRANCH  13  14
ENDBRANCH  12  13
ENDBRANCH   2   3
TORSDOF 4
ENDMDL
MODEL       23
REMARK 921   NORMALIZED FREE ENERGY PREDICTED BY IDOCK:   -5.44 KCAL/MOL
REMARK 922        TOTAL FREE ENERGY PREDICTED BY IDOCK:   -7.14 KCAL/MOL
REMARK 923 INTER-LIGAND FREE ENERGY PREDICTED BY IDOCK:   -6.87 KCAL/MOL
REMARK 924 INTRA-LIGAND FREE ENERGY PREDICTED BY IDOCK:   -0.27 KCAL/MOL
REMARK 927      BINDING AFFINITY PREDICTED BY RF-SCORE:    0.00 PKD
ROOT
HETATM    1  C   UNL     1     -10.396  19.535  67.419  1.00  0.00    -0.450 C  
HETATM    2  O   UNL     1      -9.995  18.320  68.053  1.00  0.00    -0.312 OA 
ENDROOT
BRANCH   2   3
HETATM    3  C   UNL     1     -10.378  17.183  67.391  1.00  0.00    -0.333 A  
HETATM    4  C   UNL     1     -10.729  16.088  68.193  1.00  0.00    -0.311 A  
HETATM    5  C   UNL     1     -11.102  14.833  67.640  1.00  0.00    -0.311 A  
HETATM    6  C   UNL     1     -11.129  14.750  66.222  1.00  0.00    -0.341 A  
HETATM    7  C   UNL     1     -11.451  13.545  65.588  1.00  0.00    -0.330 A  
HETATM    8  C   UNL     1     -10.839  15.870  65.433  1.00  0.00    -0.361 A  
HETATM    9  C   UNL     1     -11.749  12.410  66.328  1.00  0.00    -0.457 A  
HETATM   10  C   UNL     1     -10.466  17.080  66.011  1.00  0.00    -0.280 A  
HETATM   11  C   UNL     1     -11.757  12.474  67.718  1.00  0.00    -0.419 A  
HETATM   12  C   UNL     1     -11.438  13.665  68.401  1.00  0.00    -0.346 A  
BRANCH  12  13
HETATM   13  C   UNL     1     -11.564  13.713  69.921  1.00  0.00    -0.281 C  
BRANCH  13  14
HETATM   14  C   UNL     1     -12.786  14.455  70.485  1.00  0.00    -0.294 C  
BRANCH  14  15
HETATM   15  N   UNL     1     -12.806  14.510  71.940  1.00  0.00    -0.324 N  
HETATM   16  C   UNL     1     -12.266  15.563  72.640  1.00  0.00    -0.420 C  
HETATM   17  H   UNL     1     -13.236  13.743  72.457  1.00  0.00     0.000 HD 
HETATM   18  C   UNL     1     -12.301  15.396  74.136  1.00  0.00    -0.800 C  
HETATM   19  O   UNL     1     -11.797  16.566  72.113  1.00  0.00    -0.501 OA 
ENDBRANCH  14  15
ENDBRANCH  13  14
ENDBRANCH  12  13
ENDBRANCH   2   3
TORSDOF 4
ENDMDL
MODEL       24
REMARK 921   NORMALIZED FREE ENERGY PREDICTED BY IDOCK:   -5.35 KCAL/MOL
REMARK 922        TOTAL FREE ENERGY PREDICTED BY IDOCK:   -7.04 KCAL/MOL
REMARK 923 INTER-LIGAND FREE ENERGY PREDICTED BY IDOCK:   -6.54 KCAL/MOL
REMARK 924 INTRA-LIGAND FREE ENERGY PREDICTED BY IDOCK:   -0.50 KCAL/MOL
REMARK 927      BINDING AFFINITY PREDICTED BY RF-SCORE:    0.00 PKD
ROOT
HETATM    1  C   UNL     1      -9.876  11.116  68.316  1.00  0.00    -0.189 C  
HETATM    2  O   UNL     1     -10.858  10.365  69.030  1.00  0.00    -0.207 OA 
ENDROOT
BRANCH   2   3
HETATM    3  C   UNL     1     -11.617  11.106  69.897  1.00  0.00    -0.337 A  
HETATM    4  C   UNL     1     -11.707  12.478  69.625  1.00  0.00    -0.372 A  
HETATM    5  C   UNL     1     -12.425  13.371  70.466  1.00  0.00    -0.350 A  
HETATM    6  C   UNL     1     -13.076  12.796  71.590  1.00  0.00    -0.428 A  
HETATM    7  C   UNL     1     -13.778  13.602  72.493  1.00  0.00    -0.663 A  
HETATM    8  C   UNL     1     -13.032  11.414  71.814  1.00  0.00    -0.519 A  
HETATM    9  C   UNL     1     -13.851  14.975  72.311  1.00  0.00    -0.596 A  
HETATM   10  C   UNL     1     -12.310  10.571  70.974  1.00  0.00    -0.503 A  
HETATM   11  C   UNL     1     -13.245  15.558  71.203  1.00  0.00    -0.576 A  
HETATM   12  C   UNL     1     -12.527  14.787  70.267  1.00  0.00    -0.393 A  
BRANCH  12  13
HETATM   13  C   UNL     1     -11.971  15.458  69.013  1.00  0.00    -0.313 C  
BRANCH  13  14
HETATM   14  C   UNL     1     -10.771  16.397  69.213  1.00  0.00    -0.325 C  
BRANCH  14  15
HETATM   15  N   UNL     1      -9.514  15.692  69.418  1.00  0.00    -0.268 N  
HETATM   16  C   UNL     1      -8.875  15.024  68.400  1.00  0.00    -0.178 C  
HETATM   17  H   UNL     1      -9.093  15.693  70.347  1.00  0.00     0.000 HD 
HETATM   18  C   UNL     1      -7.637  14.280  68.828  1.00  0.00    -0.130 C  
HETATM   19  O   UNL     1      -9.256  15.027  67.234  1.00  0.00    -0.190 OA 
ENDBRANCH  14  15
ENDBRANCH  13  14
ENDBRANCH  12  13
ENDBRANCH   2   3
TORSDOF 4
ENDMDL
MODEL       25
REMARK 921   NORMALIZED FREE ENERGY PREDICTED BY IDOCK:   -5.35 KCAL/MOL
REMARK 922        TOTAL FREE ENERGY PREDICTED BY IDOCK:   -7.04 KCAL/MOL
REMARK 923 INTER-LIGAND FREE ENERGY PREDICTED BY IDOCK:   -6.88 KCAL/MOL
REMARK 924 INTRA-LIGAND FREE ENERGY PREDICTED BY IDOCK:   -0.16 KCAL/MOL
REMARK 927      BINDING AFFINITY PREDICTED BY RF-SCORE:    0.00 PKD
ROOT
HETATM    1  C   UNL     1     -13.703  13.045  72.234  1.00  0.00    -0.512 C  
HETATM    2  O   UNL     1     -12.683  13.629  71.424  1.00  0.00    -0.344 OA 
ENDROOT
BRANCH   2   3
HETATM    3  C   UNL     1     -12.262  12.840  70.386  1.00  0.00    -0.293 A  
HETATM    4  C   UNL     1     -12.017  13.494  69.171  1.00  0.00    -0.378 A  
HETATM    5  C   UNL     1     -11.618  12.793  68.000  1.00  0.00    -0.388 A  
HETATM    6  C   UNL     1     -11.453  11.388  68.130  1.00  0.00    -0.375 A  
HETATM    7  C   UNL     1     -11.095  10.610  67.024  1.00  0.00    -0.217 A  
HETATM    8  C   UNL     1     -11.638  10.756  69.367  1.00  0.00    -0.380 A  
HETATM    9  C   UNL     1     -10.898  11.192  65.780  1.00  0.00    -0.218 A  
HETATM   10  C   UNL     1     -12.039  11.475  70.489  1.00  0.00    -0.472 A  
HETATM   11  C   UNL     1     -11.027  12.569  65.634  1.00  0.00    -0.323 A  
HETATM   12  C   UNL     1     -11.386  13.393  66.719  1.00  0.00    -0.353 A  
BRANCH  12  13
HETATM   13  C   UNL     1     -11.411  14.908  66.533  1.00  0.00    -0.286 C  
BRANCH  13  14
HETATM   14  C   UNL     1     -10.055  15.629  66.590  1.00  0.00    -0.273 C  
BRANCH  14  15
HETATM   15  N   UNL     1     -10.174  17.073  66.736  1.00  0.00    -0.292 N  
HETATM   16  C   UNL     1     -10.638  17.875  65.720  1.00  0.00    -0.174 C  
HETATM   17  H   UNL     1      -9.906  17.503  67.621  1.00  0.00     0.000 HD 
HETATM   18  C   UNL     1     -10.603  19.348  66.029  1.00  0.00    -0.573 C  
HETATM   19  O   UNL     1     -11.057  17.449  64.649  1.00  0.00    -1.029 OA 
ENDBRANCH  14  15
ENDBRANCH  13  14
ENDBRANCH  12  13
ENDBRANCH   2   3
TORSDOF 4
ENDMDL
MODEL       26
REMARK 921   NORMALIZED FREE ENERGY PREDICTED BY IDOCK:   -5.33 KCAL/MOL
REMARK 922        TOTAL FREE ENERGY PREDICTED BY IDOCK:   -7.01 KCAL/MOL
REMARK 923 INTER-LIGAND FREE ENERGY PREDICTED BY IDOCK:   -6.74 KCAL/MOL
REMARK 924 INTRA-LIGAND FREE ENERGY PREDICTED BY IDOCK:   -0.27 KCAL/MOL
REMARK 927      BINDING AFFINITY PREDICTED BY RF-SCORE:    0.00 PKD
ROOT
HETATM    1  C   UNL     1     -10.106  18.905  68.348  1.00  0.00    -0.392 C  
HETATM    2  O   UNL     1     -10.273  17.541  68.736  1.00  0.00    -0.344 OA 
ENDROOT
BRANCH   2   3
HETATM    3  C   UNL     1     -10.500  16.679  67.695  1.00  0.00    -0.320 A  
HETATM    4  C   UNL     1     -10.896  15.381  68.042  1.00  0.00    -0.292 A  
HETATM    5  C   UNL     1     -11.123  14.372  67.066  1.00  0.00    -0.317 A  
HETATM    6  C   UNL     1     -10.953  14.756  65.709  1.00  0.00    -0.334 A  
HETATM    7  C   UNL     1     -11.122  13.822  64.681  1.00  0.00    -0.391 A  
HETATM    8  C   UNL     1     -10.620  16.075  65.374  1.00  0.00    -0.428 A  
HETATM    9  C   UNL     1     -11.455  12.506  64.965  1.00  0.00    -0.368 A  
HETATM   10  C   UNL     1     -10.395  17.033  66.358  1.00  0.00    -0.304 A  
HETATM   11  C   UNL     1     -11.654  12.113  66.284  1.00  0.00    -0.424 A  
HETATM   12  C   UNL     1     -11.496  13.018  67.353  1.00  0.00    -0.380 A  
BRANCH  12  13
HETATM   13  C   UNL     1     -11.828  12.566  68.772  1.00  0.00    -0.347 C  
BRANCH  13  14
HETATM   14  C   UNL     1     -11.640  11.071  69.078  1.00  0.00    -0.323 C  
BRANCH  14  15
HETATM   15  N   UNL     1     -12.605  10.553  70.037  1.00  0.00    -0.526 N  
HETATM   16  C   UNL     1     -12.223   9.831  71.143  1.00  0.00    -0.362 C  
HETATM   17  H   UNL     1     -13.598  10.731  69.883  1.00  0.00     0.000 HD 
HETATM   18  C   UNL     1     -13.369   9.304  71.965  1.00  0.00    -0.518 C  
HETATM   19  O   UNL     1     -11.056   9.630  71.459  1.00  0.00    -0.370 OA 
ENDBRANCH  14  15
ENDBRANCH  13  14
ENDBRANCH  12  13
ENDBRANCH   2   3
TORSDOF 4
ENDMDL
MODEL       27
REMARK 921   NORMALIZED FREE ENERGY PREDICTED BY IDOCK:   -5.31 KCAL/MOL
REMARK 922        TOTAL FREE ENERGY PREDICTED BY IDOCK:   -6.99 KCAL/MOL
REMARK 923 INTER-LIGAND FREE ENERGY PREDICTED BY IDOCK:   -6.37 KCAL/MOL
REMARK 924 INTRA-LIGAND FREE ENERGY PREDICTED BY IDOCK:   -0.63 KCAL/MOL
REMARK 927      BINDING AFFINITY PREDICTED BY RF-SCORE:    0.00 PKD
ROOT
HETATM    1  C   UNL     1     -10.455  16.453  65.690  1.00  0.00    -0.347 C  
HETATM    2  O   UNL     1     -11.276  15.427  65.131  1.00  0.00    -0.369 OA 
ENDROOT
BRANCH   2   3
HETATM    3  C   UNL     1     -11.373  14.297  65.901  1.00  0.00    -0.328 A  
HETATM    4  C   UNL     1     -11.730  14.491  67.242  1.00  0.00    -0.429 A  
HETATM    5  C   UNL     1     -11.825  13.413  68.164  1.00  0.00    -0.396 A  
HETATM    6  C   UNL     1     -11.566  12.115  67.648  1.00  0.00    -0.413 A  
HETATM    7  C   UNL     1     -11.602  10.997  68.488  1.00  0.00    -0.380 A  
HETATM    8  C   UNL     1     -11.274  11.929  66.290  1.00  0.00    -0.392 A  
HETATM    9  C   UNL     1     -11.890  11.132  69.838  1.00  0.00    -0.439 A  
HETATM   10  C   UNL     1     -11.179  13.011  65.420  1.00  0.00    -0.317 A  
HETATM   11  C   UNL     1     -12.175  12.389  70.361  1.00  0.00    -0.370 A  
HETATM   12  C   UNL     1     -12.150  13.544  69.554  1.00  0.00    -0.352 A  
BRANCH  12  13
HETATM   13  C   UNL     1     -12.573  14.884  70.151  1.00  0.00    -0.309 C  
BRANCH  13  14
HETATM   14  C   UNL     1     -11.523  15.618  71.001  1.00  0.00    -0.395 C  
BRANCH  14  15
HETATM   15  N   UNL     1     -10.186  15.576  70.428  1.00  0.00    -0.365 N  
HETATM   16  C   UNL     1      -9.791  16.434  69.429  1.00  0.00    -0.186 C  
HETATM   17  H   UNL     1      -9.519  14.889  70.780  1.00  0.00     0.000 HD 
HETATM   18  C   UNL     1      -8.403  16.177  68.904  1.00  0.00    -0.233 C  
HETATM   19  O   UNL     1     -10.488  17.343  68.992  1.00  0.00    -0.346 OA 
ENDBRANCH  14  15
ENDBRANCH  13  14
ENDBRANCH  12  13
ENDBRANCH   2   3
TORSDOF 4
ENDMDL
MODEL       28
REMARK 921   NORMALIZED FREE ENERGY PREDICTED BY IDOCK:   -5.31 KCAL/MOL
REMARK 922        TOTAL FREE ENERGY PREDICTED BY IDOCK:   -6.99 KCAL/MOL
REMARK 923 INTER-LIGAND FREE ENERGY PREDICTED BY IDOCK:   -6.73 KCAL/MOL
REMARK 924 INTRA-LIGAND FREE ENERGY PREDICTED BY IDOCK:   -0.26 KCAL/MOL
REMARK 927      BINDING AFFINITY PREDICTED BY RF-SCORE:    0.00 PKD
ROOT
HETATM    1  C   UNL     1     -11.859   9.760  71.661  1.00  0.00    -0.354 C  
HETATM    2  O   UNL     1     -10.695   9.699  70.837  1.00  0.00    -0.302 OA 
ENDROOT
BRANCH   2   3
HETATM    3  C   UNL     1     -10.856  10.240  69.588  1.00  0.00    -0.271 A  
HETATM    4  C   UNL     1     -11.065  11.624  69.536  1.00  0.00    -0.230 A  
HETATM    5  C   UNL     1     -11.290  12.311  68.311  1.00  0.00    -0.339 A  
HETATM    6  C   UNL     1     -11.265  11.522  67.130  1.00  0.00    -0.365 A  
HETATM    7  C   UNL     1     -11.510  12.104  65.882  1.00  0.00    -0.418 A  
HETATM    8  C   UNL     1     -10.990  10.150  67.191  1.00  0.00    -0.204 A  
HETATM    9  C   UNL     1     -11.784  13.460  65.772  1.00  0.00    -0.380 A  
HETATM   10  C   UNL     1     -10.785   9.510  68.410  1.00  0.00    -0.230 A  
HETATM   11  C   UNL     1     -11.786  14.258  66.911  1.00  0.00    -0.458 A  
HETATM   12  C   UNL     1     -11.546  13.716  68.190  1.00  0.00    -0.367 A  
BRANCH  12  13
HETATM   13  C   UNL     1     -11.455  14.650  69.394  1.00  0.00    -0.330 C  
BRANCH  13  14
HETATM   14  C   UNL     1     -12.685  14.703  70.315  1.00  0.00    -0.273 C  
BRANCH  14  15
HETATM   15  N   UNL     1     -12.429  15.377  71.580  1.00  0.00    -0.349 N  
HETATM   16  C   UNL     1     -12.994  14.956  72.761  1.00  0.00    -0.447 C  
HETATM   17  H   UNL     1     -11.810  16.189  71.591  1.00  0.00     0.000 HD 
HETATM   18  C   UNL     1     -12.683  15.835  73.944  1.00  0.00    -0.737 C  
HETATM   19  O   UNL     1     -13.686  13.950  72.867  1.00  0.00    -0.680 OA 
ENDBRANCH  14  15
ENDBRANCH  13  14
ENDBRANCH  12  13
ENDBRANCH   2   3
TORSDOF 4
ENDMDL
MODEL       29
REMARK 921   NORMALIZED FREE ENERGY PREDICTED BY IDOCK:   -5.30 KCAL/MOL
REMARK 922        TOTAL FREE ENERGY PREDICTED BY IDOCK:   -6.98 KCAL/MOL
REMARK 923 INTER-LIGAND FREE ENERGY PREDICTED BY IDOCK:   -6.73 KCAL/MOL
REMARK 924 INTRA-LIGAND FREE ENERGY PREDICTED BY IDOCK:   -0.24 KCAL/MOL
REMARK 927      BINDING AFFINITY PREDICTED BY RF-SCORE:    0.00 PKD
ROOT
HETATM    1  C   UNL     1      -5.212  17.173  70.684  1.00  0.00    -0.253 C  
HETATM    2  O   UNL     1      -5.704  16.843  69.385  1.00  0.00    -0.155 OA 
ENDROOT
BRANCH   2   3
HETATM    3  C   UNL     1      -6.657  17.703  68.904  1.00  0.00    -0.228 A  
HETATM    4  C   UNL     1      -7.572  17.163  67.991  1.00  0.00    -0.192 A  
HETATM    5  C   UNL     1      -8.586  17.951  67.381  1.00  0.00    -0.239 A  
HETATM    6  C   UNL     1      -8.642  19.318  67.765  1.00  0.00    -0.341 A  
HETATM    7  C   UNL     1      -9.585  20.178  67.191  1.00  0.00    -0.554 A  
HETATM    8  C   UNL     1      -7.762  19.828  68.728  1.00  0.00    -0.273 A  
HETATM    9  C   UNL     1     -10.479  19.717  66.237  1.00  0.00    -0.614 A  
HETATM   10  C   UNL     1      -6.775  19.028  69.296  1.00  0.00    -0.330 A  
HETATM   11  C   UNL     1     -10.461  18.377  65.864  1.00  0.00    -0.346 A  
HETATM   12  C   UNL     1      -9.531  17.473  66.414  1.00  0.00    -0.276 A  
BRANCH  12  13
HETATM   13  C   UNL     1      -9.621  15.993  66.053  1.00  0.00    -0.385 C  
BRANCH  13  14
HETATM   14  C   UNL     1     -10.569  15.625  64.899  1.00  0.00    -0.316 C  
BRANCH  14  15
HETATM   15  N   UNL     1     -10.646  14.192  64.651  1.00  0.00    -0.552 N  
HETATM   16  C   UNL     1     -11.769  13.601  64.122  1.00  0.00    -0.386 C  
HETATM   17  H   UNL     1      -9.840  13.608  64.877  1.00  0.00     0.000 HD 
HETATM   18  C   UNL     1     -11.691  12.100  64.025  1.00  0.00    -0.515 C  
HETATM   19  O   UNL     1     -12.757  14.222  63.747  1.00  0.00    -0.779 OA 
ENDBRANCH  14  15
ENDBRANCH  13  14
ENDBRANCH  12  13
ENDBRANCH   2   3
TORSDOF 4
ENDMDL
MODEL       30
REMARK 921   NORMALIZED FREE ENERGY PREDICTED BY IDOCK:   -5.28 KCAL/MOL
REMARK 922        TOTAL FREE ENERGY PREDICTED BY IDOCK:   -6.95 KCAL/MOL
REMARK 923 INTER-LIGAND FREE ENERGY PREDICTED BY IDOCK:   -6.63 KCAL/MOL
REMARK 924 INTRA-LIGAND FREE ENERGY PREDICTED BY IDOCK:   -0.32 KCAL/MOL
REMARK 927      BINDING AFFINITY PREDICTED BY RF-SCORE:    0.00 PKD
ROOT
HETATM    1  C   UNL     1     -11.270   7.020  70.259  1.00  0.00    -0.298 C  
HETATM    2  O   UNL     1     -10.876   8.334  69.862  1.00  0.00    -0.247 OA 
ENDROOT
BRANCH   2   3
HETATM    3  C   UNL     1     -11.598   9.342  70.447  1.00  0.00    -0.173 A  
HETATM    4  C   UNL     1     -11.434  10.619  69.896  1.00  0.00    -0.393 A  
HETATM    5  C   UNL     1     -12.087  11.764  70.430  1.00  0.00    -0.440 A  
HETATM    6  C   UNL     1     -12.942  11.542  71.543  1.00  0.00    -0.485 A  
HETATM    7  C   UNL     1     -13.600  12.613  72.157  1.00  0.00    -0.510 A  
HETATM    8  C   UNL     1     -13.147  10.250  72.043  1.00  0.00    -0.529 A  
HETATM    9  C   UNL     1     -13.430  13.910  71.694  1.00  0.00    -0.428 A  
HETATM   10  C   UNL     1     -12.481   9.154  71.500  1.00  0.00    -0.418 A  
HETATM   11  C   UNL     1     -12.620  14.149  70.589  1.00  0.00    -0.421 A  
HETATM   12  C   UNL     1     -11.937  13.102  69.938  1.00  0.00    -0.387 A  
BRANCH  12  13
HETATM   13  C   UNL     1     -11.146  13.400  68.667  1.00  0.00    -0.295 C  
BRANCH  13  14
HETATM   14  C   UNL     1     -11.692  14.520  67.766  1.00  0.00    -0.374 C  
BRANCH  14  15
HETATM   15  N   UNL     1     -10.675  15.475  67.352  1.00  0.00    -0.297 N  
HETATM   16  C   UNL     1      -9.888  15.272  66.243  1.00  0.00    -0.294 C  
HETATM   17  H   UNL     1     -10.541  16.324  67.903  1.00  0.00     0.000 HD 
HETATM   18  C   UNL     1      -8.833  16.325  66.030  1.00  0.00    -0.308 C  
HETATM   19  O   UNL     1     -10.021  14.327  65.473  1.00  0.00    -0.334 OA 
ENDBRANCH  14  15
ENDBRANCH  13  14
ENDBRANCH  12  13
ENDBRANCH   2   3
TORSDOF 4
ENDMDL
MODEL       31
REMARK 921   NORMALIZED FREE ENERGY PREDICTED BY IDOCK:   -5.27 KCAL/MOL
REMARK 922        TOTAL FREE ENERGY PREDICTED BY IDOCK:   -6.94 KCAL/MOL
REMARK 923 INTER-LIGAND FREE ENERGY PREDICTED BY IDOCK:   -6.63 KCAL/MOL
REMARK 924 INTRA-LIGAND FREE ENERGY PREDICTED BY IDOCK:   -0.31 KCAL/MOL
REMARK 927      BINDING AFFINITY PREDICTED BY RF-SCORE:    0.00 PKD
ROOT
HETATM    1  C   UNL     1     -12.026  15.594  64.227  1.00  0.00    -0.115 C  
HETATM    2  O   UNL     1     -12.695  14.354  63.996  1.00  0.00    -0.739 OA 
ENDROOT
BRANCH   2   3
HETATM    3  C   UNL     1     -11.960  13.244  64.321  1.00  0.00    -0.421 A  
HETATM    4  C   UNL     1     -11.950  12.883  65.675  1.00  0.00    -0.490 A  
HETATM    5  C   UNL     1     -11.195  11.780  66.160  1.00  0.00    -0.363 A  
HETATM    6  C   UNL     1     -10.465  11.040  65.192  1.00  0.00    -0.329 A  
HETATM    7  C   UNL     1      -9.666   9.958  65.579  1.00  0.00    -0.370 A  
HETATM    8  C   UNL     1     -10.536  11.372  63.833  1.00  0.00    -0.444 A  
HETATM    9  C   UNL     1      -9.569   9.590  66.913  1.00  0.00    -0.217 A  
HETATM   10  C   UNL     1     -11.278  12.466  63.397  1.00  0.00    -0.492 A  
HETATM   11  C   UNL     1     -10.295  10.283  67.876  1.00  0.00    -0.234 A  
HETATM   12  C   UNL     1     -11.113  11.378  67.533  1.00  0.00    -0.339 A  
BRANCH  12  13
HETATM   13  C   UNL     1     -11.972  12.037  68.609  1.00  0.00    -0.290 C  
BRANCH  13  14
HETATM   14  C   UNL     1     -11.371  13.269  69.307  1.00  0.00    -0.253 C  
BRANCH  14  15
HETATM   15  N   UNL     1     -12.240  13.833  70.330  1.00  0.00    -0.347 N  
HETATM   16  C   UNL     1     -12.561  15.169  70.362  1.00  0.00    -0.359 C  
HETATM   17  H   UNL     1     -12.623  13.216  71.047  1.00  0.00     0.000 HD 
HETATM   18  C   UNL     1     -13.396  15.578  71.547  1.00  0.00    -0.593 C  
HETATM   19  O   UNL     1     -12.217  15.977  69.506  1.00  0.00    -0.238 OA 
ENDBRANCH  14  15
ENDBRANCH  13  14
ENDBRANCH  12  13
ENDBRANCH   2   3
TORSDOF 4
ENDMDL
MODEL       32
REMARK 921   NORMALIZED FREE ENERGY PREDICTED BY IDOCK:   -5.23 KCAL/MOL
REMARK 922        TOTAL FREE ENERGY PREDICTED BY IDOCK:   -6.90 KCAL/MOL
REMARK 923 INTER-LIGAND FREE ENERGY PREDICTED BY IDOCK:   -6.60 KCAL/MOL
REMARK 924 INTRA-LIGAND FREE ENERGY PREDICTED BY IDOCK:   -0.30 KCAL/MOL
REMARK 927      BINDING AFFINITY PREDICTED BY RF-SCORE:    0.00 PKD
ROOT
HETATM    1  C   UNL     1     -10.515  13.192  65.158  1.00  0.00    -0.324 C  
HETATM    2  O   UNL     1     -10.428  12.055  66.017  1.00  0.00    -0.236 OA 
ENDROOT
BRANCH   2   3
HETATM    3  C   UNL     1     -10.977  12.240  67.259  1.00  0.00    -0.256 A  
HETATM    4  C   UNL     1     -11.166  13.569  67.660  1.00  0.00    -0.304 A  
HETATM    5  C   UNL     1     -11.685  13.907  68.940  1.00  0.00    -0.373 A  
HETATM    6  C   UNL     1     -12.032  12.822  69.789  1.00  0.00    -0.362 A  
HETATM    7  C   UNL     1     -12.519  13.057  71.079  1.00  0.00    -0.385 A  
HETATM    8  C   UNL     1     -11.899  11.498  69.350  1.00  0.00    -0.417 A  
HETATM    9  C   UNL     1     -12.670  14.351  71.556  1.00  0.00    -0.417 A  
HETATM   10  C   UNL     1     -11.376  11.206  68.093  1.00  0.00    -0.377 A  
HETATM   11  C   UNL     1     -12.364  15.430  70.734  1.00  0.00    -0.447 A  
HETATM   12  C   UNL     1     -11.871  15.243  69.427  1.00  0.00    -0.367 A  
BRANCH  12  13
HETATM   13  C   UNL     1     -11.650  16.457  68.528  1.00  0.00    -0.100 C  
BRANCH  13  14
HETATM   14  C   UNL     1     -10.226  17.036  68.496  1.00  0.00    -0.324 C  
BRANCH  14  15
HETATM   15  N   UNL     1     -10.165  18.384  67.948  1.00  0.00    -0.363 N  
HETATM   16  C   UNL     1     -10.129  18.623  66.595  1.00  0.00    -0.385 C  
HETATM   17  H   UNL     1     -10.148  19.177  68.590  1.00  0.00     0.000 HD 
HETATM   18  C   UNL     1      -9.974  20.075  66.226  1.00  0.00    -0.597 C  
HETATM   19  O   UNL     1     -10.222  17.747  65.742  1.00  0.00    -0.566 OA 
ENDBRANCH  14  15
ENDBRANCH  13  14
ENDBRANCH  12  13
ENDBRANCH   2   3
TORSDOF 4
ENDMDL
MODEL       33
REMARK 921   NORMALIZED FREE ENERGY PREDICTED BY IDOCK:   -5.22 KCAL/MOL
REMARK 922        TOTAL FREE ENERGY PREDICTED BY IDOCK:   -6.88 KCAL/MOL
REMARK 923 INTER-LIGAND FREE ENERGY PREDICTED BY IDOCK:   -6.65 KCAL/MOL
REMARK 924 INTRA-LIGAND FREE ENERGY PREDICTED BY IDOCK:   -0.23 KCAL/MOL
REMARK 927      BINDING AFFINITY PREDICTED BY RF-SCORE:    0.00 PKD
ROOT
HETATM    1  C   UNL     1     -11.007   5.922  71.602  1.00  0.00    -0.268 C  
HETATM    2  O   UNL     1     -11.096   6.905  70.571  1.00  0.00    -0.257 OA 
ENDROOT
BRANCH   2   3
HETATM    3  C   UNL     1     -11.701   8.074  70.953  1.00  0.00    -0.251 A  
HETATM    4  C   UNL     1     -11.372   9.214  70.208  1.00  0.00    -0.217 A  
HETATM    5  C   UNL     1     -11.892  10.499  70.521  1.00  0.00    -0.442 A  
HETATM    6  C   UNL     1     -12.791  10.568  71.619  1.00  0.00    -0.581 A  
HETATM    7  C   UNL     1     -13.327  11.795  72.023  1.00  0.00    -0.417 A  
HETATM    8  C   UNL     1     -13.162   9.409  72.315  1.00  0.00    -0.528 A  
HETATM    9  C   UNL     1     -12.991  12.968  71.362  1.00  0.00    -0.373 A  
HETATM   10  C   UNL     1     -12.623   8.169  71.985  1.00  0.00    -0.366 A  
HETATM   11  C   UNL     1     -12.134  12.923  70.267  1.00  0.00    -0.377 A  
HETATM   12  C   UNL     1     -11.570  11.710  69.824  1.00  0.00    -0.389 A  
BRANCH  12  13
HETATM   13  C   UNL     1     -10.722  11.698  68.555  1.00  0.00    -0.250 C  
BRANCH  13  14
HETATM   14  C   UNL     1     -11.400  11.166  67.282  1.00  0.00    -0.226 C  
BRANCH  14  15
HETATM   15  N   UNL     1     -10.808  11.680  66.055  1.00  0.00    -0.285 N  
HETATM   16  C   UNL     1     -11.568  12.228  65.049  1.00  0.00    -0.343 C  
HETATM   17  H   UNL     1      -9.796  11.632  65.938  1.00  0.00     0.000 HD 
HETATM   18  C   UNL     1     -10.785  12.620  63.824  1.00  0.00    -0.454 C  
HETATM   19  O   UNL     1     -12.780  12.402  65.124  1.00  0.00    -0.630 OA 
ENDBRANCH  14  15
ENDBRANCH  13  14
ENDBRANCH  12  13
ENDBRANCH   2   3
TORSDOF 4
ENDMDL
MODEL       34
REMARK 921   NORMALIZED FREE ENERGY PREDICTED BY IDOCK:   -5.19 KCAL/MOL
REMARK 922        TOTAL FREE ENERGY PREDICTED BY IDOCK:   -6.84 KCAL/MOL
REMARK 923 INTER-LIGAND FREE ENERGY PREDICTED BY IDOCK:   -6.51 KCAL/MOL
REMARK 924 INTRA-LIGAND FREE ENERGY PREDICTED BY IDOCK:   -0.33 KCAL/MOL
REMARK 927      BINDING AFFINITY PREDICTED BY RF-SCORE:    0.00 PKD
ROOT
HETATM    1  C   UNL     1     -14.018   8.906  72.141  1.00  0.00    -0.456 C  
HETATM    2  O   UNL     1     -13.439  10.201  71.974  1.00  0.00    -0.403 OA 
ENDROOT
BRANCH   2   3
HETATM    3  C   UNL     1     -12.274  10.211  71.252  1.00  0.00    -0.398 A  
HETATM    4  C   UNL     1     -12.171  11.194  70.259  1.00  0.00    -0.436 A  
HETATM    5  C   UNL     1     -11.037  11.293  69.406  1.00  0.00    -0.316 A  
HETATM    6  C   UNL     1      -9.994  10.355  69.630  1.00  0.00    -0.209 A  
HETATM    7  C   UNL     1      -8.854  10.354  68.819  1.00  0.00    -0.157 A  
HETATM    8  C   UNL     1     -10.082   9.420  70.670  1.00  0.00    -0.356 A  
HETATM    9  C   UNL     1      -8.721  11.264  67.780  1.00  0.00    -0.134 A  
HETATM   10  C   UNL     1     -11.213   9.346  71.477  1.00  0.00    -0.457 A  
HETATM   11  C   UNL     1      -9.717  12.209  67.558  1.00  0.00    -0.185 A  
HETATM   12  C   UNL     1     -10.882  12.249  68.349  1.00  0.00    -0.257 A  
BRANCH  12  13
HETATM   13  C   UNL     1     -11.895  13.370  68.134  1.00  0.00    -0.396 C  
BRANCH  13  14
HETATM   14  C   UNL     1     -11.916  14.018  66.740  1.00  0.00    -0.444 C  
BRANCH  14  15
HETATM   15  N   UNL     1     -12.383  13.120  65.694  1.00  0.00    -0.462 N  
HETATM   16  C   UNL     1     -11.709  12.968  64.505  1.00  0.00    -0.369 C  
HETATM   17  H   UNL     1     -13.238  12.585  65.848  1.00  0.00     0.000 HD 
HETATM   18  C   UNL     1     -12.395  12.065  63.514  1.00  0.00    -0.661 C  
HETATM   19  O   UNL     1     -10.635  13.505  64.254  1.00  0.00    -0.412 OA 
ENDBRANCH  14  15
ENDBRANCH  13  14
ENDBRANCH  12  13
ENDBRANCH   2   3
TORSDOF 4
ENDMDL
MODEL       35
REMARK 921   NORMALIZED FREE ENERGY PREDICTED BY IDOCK:   -5.18 KCAL/MOL
REMARK 922        TOTAL FREE ENERGY PREDICTED BY IDOCK:   -6.82 KCAL/MOL
REMARK 923 INTER-LIGAND FREE ENERGY PREDICTED BY IDOCK:   -6.40 KCAL/MOL
REMARK 924 INTRA-LIGAND FREE ENERGY PREDICTED BY IDOCK:   -0.42 KCAL/MOL
REMARK 927      BINDING AFFINITY PREDICTED BY RF-SCORE:    0.00 PKD
ROOT
HETATM    1  C   UNL     1     -10.626  15.740  67.550  1.00  0.00    -0.309 C  
HETATM    2  O   UNL     1     -11.158  16.267  68.766  1.00  0.00    -0.323 OA 
ENDROOT
BRANCH   2   3
HETATM    3  C   UNL     1     -11.629  15.319  69.636  1.00  0.00    -0.321 A  
HETATM    4  C   UNL     1     -11.507  13.985  69.224  1.00  0.00    -0.344 A  
HETATM    5  C   UNL     1     -11.992  12.903  70.008  1.00  0.00    -0.380 A  
HETATM    6  C   UNL     1     -12.588  13.240  71.253  1.00  0.00    -0.398 A  
HETATM    7  C   UNL     1     -13.125  12.245  72.076  1.00  0.00    -0.461 A  
HETATM    8  C   UNL     1     -12.645  14.573  71.681  1.00  0.00    -0.419 A  
HETATM    9  C   UNL     1     -13.088  10.912  71.695  1.00  0.00    -0.538 A  
HETATM   10  C   UNL     1     -12.169  15.607  70.881  1.00  0.00    -0.466 A  
HETATM   11  C   UNL     1     -12.485  10.553  70.494  1.00  0.00    -0.433 A  
HETATM   12  C   UNL     1     -11.931  11.521  69.632  1.00  0.00    -0.407 A  
BRANCH  12  13
HETATM   13  C   UNL     1     -11.188  11.068  68.377  1.00  0.00    -0.337 C  
BRANCH  13  14
HETATM   14  C   UNL     1     -10.072  10.030  68.579  1.00  0.00    -0.169 C  
BRANCH  14  15
HETATM   15  N   UNL     1     -10.428   8.702  68.100  1.00  0.00    -0.323 N  
HETATM   16  C   UNL     1     -10.565   7.629  68.950  1.00  0.00    -0.159 C  
HETATM   17  H   UNL     1     -10.581   8.561  67.101  1.00  0.00     0.000 HD 
HETATM   18  C   UNL     1     -10.846   6.322  68.258  1.00  0.00    -0.397 C  
HETATM   19  O   UNL     1     -10.478   7.709  70.171  1.00  0.00    -0.216 OA 
ENDBRANCH  14  15
ENDBRANCH  13  14
ENDBRANCH  12  13
ENDBRANCH   2   3
TORSDOF 4
ENDMDL
MODEL       36
REMARK 921   NORMALIZED FREE ENERGY PREDICTED BY IDOCK:   -5.16 KCAL/MOL
REMARK 922        TOTAL FREE ENERGY PREDICTED BY IDOCK:   -6.80 KCAL/MOL
REMARK 923 INTER-LIGAND FREE ENERGY PREDICTED BY IDOCK:   -6.46 KCAL/MOL
REMARK 924 INTRA-LIGAND FREE ENERGY PREDICTED BY IDOCK:   -0.34 KCAL/MOL
REMARK 927      BINDING AFFINITY PREDICTED BY RF-SCORE:    0.00 PKD
ROOT
HETATM    1  C   UNL     1     -14.400   8.328  71.984  1.00  0.00    -0.450 C  
HETATM    2  O   UNL     1     -13.418   9.075  72.703  1.00  0.00    -0.463 OA 
ENDROOT
BRANCH   2   3
HETATM    3  C   UNL     1     -12.202   9.161  72.078  1.00  0.00    -0.373 A  
HETATM    4  C   UNL     1     -12.102  10.103  71.045  1.00  0.00    -0.476 A  
HETATM    5  C   UNL     1     -10.913  10.268  70.283  1.00  0.00    -0.375 A  
HETATM    6  C   UNL     1      -9.813   9.444  70.641  1.00  0.00    -0.340 A  
HETATM    7  C   UNL     1      -8.612   9.512  69.926  1.00  0.00    -0.217 A  
HETATM    8  C   UNL     1      -9.906   8.553  71.718  1.00  0.00    -0.339 A  
HETATM    9  C   UNL     1      -8.473  10.382  68.854  1.00  0.00    -0.144 A  
HETATM   10  C   UNL     1     -11.091   8.411  72.435  1.00  0.00    -0.431 A  
HETATM   11  C   UNL     1      -9.527  11.219  68.502  1.00  0.00    -0.191 A  
HETATM   12  C   UNL     1     -10.754  11.186  69.193  1.00  0.00    -0.262 A  
BRANCH  12  13
HETATM   13  C   UNL     1     -11.841  12.196  68.837  1.00  0.00    -0.358 C  
BRANCH  13  14
HETATM   14  C   UNL     1     -11.796  13.542  69.579  1.00  0.00    -0.334 C  
BRANCH  14  15
HETATM   15  N   UNL     1     -12.517  13.528  70.844  1.00  0.00    -0.371 N  
HETATM   16  C   UNL     1     -12.919  14.683  71.471  1.00  0.00    -0.339 C  
HETATM   17  H   UNL     1     -12.731  12.630  71.280  1.00  0.00     0.000 HD 
HETATM   18  C   UNL     1     -13.569  14.467  72.812  1.00  0.00    -0.533 C  
HETATM   19  O   UNL     1     -12.780  15.804  70.994  1.00  0.00    -0.463 OA 
ENDBRANCH  14  15
ENDBRANCH  13  14
ENDBRANCH  12  13
ENDBRANCH   2   3
TORSDOF 4
ENDMDL
MODEL       37
REMARK 921   NORMALIZED FREE ENERGY PREDICTED BY IDOCK:   -5.11 KCAL/MOL
REMARK 922        TOTAL FREE ENERGY PREDICTED BY IDOCK:   -6.74 KCAL/MOL
REMARK 923 INTER-LIGAND FREE ENERGY PREDICTED BY IDOCK:   -6.40 KCAL/MOL
REMARK 924 INTRA-LIGAND FREE ENERGY PREDICTED BY IDOCK:   -0.34 KCAL/MOL
REMARK 927      BINDING AFFINITY PREDICTED BY RF-SCORE:    0.00 PKD
ROOT
HETATM    1  C   UNL     1      -8.341  10.445  68.969  1.00  0.00    -0.150 C  
HETATM    2  O   UNL     1      -9.708  10.193  68.646  1.00  0.00    -0.153 OA 
ENDROOT
BRANCH   2   3
HETATM    3  C   UNL     1     -10.084  10.622  67.400  1.00  0.00    -0.194 A  
HETATM    4  C   UNL     1     -10.632  11.909  67.327  1.00  0.00    -0.261 A  
HETATM    5  C   UNL     1     -11.104  12.464  66.106  1.00  0.00    -0.340 A  
HETATM    6  C   UNL     1     -10.968  11.653  64.949  1.00  0.00    -0.345 A  
HETATM    7  C   UNL     1     -11.435  12.101  63.708  1.00  0.00    -0.548 A  
HETATM    8  C   UNL     1     -10.358  10.393  65.024  1.00  0.00    -0.249 A  
HETATM    9  C   UNL     1     -12.042  13.342  63.584  1.00  0.00    -0.551 A  
HETATM   10  C   UNL     1      -9.918   9.879  66.240  1.00  0.00    -0.322 A  
HETATM   11  C   UNL     1     -12.162  14.166  64.699  1.00  0.00    -0.465 A  
HETATM   12  C   UNL     1     -11.707  13.758  65.968  1.00  0.00    -0.383 A  
BRANCH  12  13
HETATM   13  C   UNL     1     -11.765  14.739  67.136  1.00  0.00    -0.351 C  
BRANCH  13  14
HETATM   14  C   UNL     1     -10.468  15.498  67.460  1.00  0.00    -0.282 C  
BRANCH  14  15
HETATM   15  N   UNL     1     -10.671  16.927  67.657  1.00  0.00    -0.321 N  
HETATM   16  C   UNL     1     -10.524  17.835  66.635  1.00  0.00    -0.300 C  
HETATM   17  H   UNL     1     -10.930  17.265  68.584  1.00  0.00     0.000 HD 
HETATM   18  C   UNL     1     -10.685  19.272  67.056  1.00  0.00    -0.565 C  
HETATM   19  O   UNL     1     -10.291  17.525  65.472  1.00  0.00    -0.620 OA 
ENDBRANCH  14  15
ENDBRANCH  13  14
ENDBRANCH  12  13
ENDBRANCH   2   3
TORSDOF 4
ENDMDL
MODEL       38
REMARK 921   NORMALIZED FREE ENERGY PREDICTED BY IDOCK:   -5.10 KCAL/MOL
REMARK 922        TOTAL FREE ENERGY PREDICTED BY IDOCK:   -6.74 KCAL/MOL
REMARK 923 INTER-LIGAND FREE ENERGY PREDICTED BY IDOCK:   -6.11 KCAL/MOL
REMARK 924 INTRA-LIGAND FREE ENERGY PREDICTED BY IDOCK:   -0.63 KCAL/MOL
REMARK 927      BINDING AFFINITY PREDICTED BY RF-SCORE:    0.00 PKD
ROOT
HETATM    1  C   UNL     1     -14.167  15.309  71.638  1.00  0.00    -0.552 C  
HETATM    2  O   UNL     1     -13.052  15.487  70.765  1.00  0.00    -0.478 OA 
ENDROOT
BRANCH   2   3
HETATM    3  C   UNL     1     -12.579  14.328  70.206  1.00  0.00    -0.319 A  
HETATM    4  C   UNL     1     -12.253  14.385  68.845  1.00  0.00    -0.214 A  
HETATM    5  C   UNL     1     -11.793  13.246  68.128  1.00  0.00    -0.388 A  
HETATM    6  C   UNL     1     -11.652  12.045  68.872  1.00  0.00    -0.377 A  
HETATM    7  C   UNL     1     -11.238  10.865  68.244  1.00  0.00    -0.347 A  
HETATM    8  C   UNL     1     -11.919  12.018  70.247  1.00  0.00    -0.398 A  
HETATM    9  C   UNL     1     -10.959  10.844  66.886  1.00  0.00    -0.286 A  
HETATM   10  C   UNL     1     -12.379  13.151  70.913  1.00  0.00    -0.393 A  
HETATM   11  C   UNL     1     -11.063  12.014  66.141  1.00  0.00    -0.367 A  
HETATM   12  C   UNL     1     -11.476  13.226  66.730  1.00  0.00    -0.387 A  
BRANCH  12  13
HETATM   13  C   UNL     1     -11.471  14.504  65.895  1.00  0.00    -0.345 C  
BRANCH  13  14
HETATM   14  C   UNL     1     -10.099  15.144  65.627  1.00  0.00    -0.363 C  
BRANCH  14  15
HETATM   15  N   UNL     1      -9.823  16.293  66.478  1.00  0.00    -0.255 N  
HETATM   16  C   UNL     1      -9.238  16.163  67.715  1.00  0.00    -0.202 C  
HETATM   17  H   UNL     1     -10.071  17.225  66.144  1.00  0.00     0.000 HD 
HETATM   18  C   UNL     1      -9.117  17.454  68.482  1.00  0.00    -0.273 C  
HETATM   19  O   UNL     1      -8.833  15.100  68.173  1.00  0.00    -0.163 OA 
ENDBRANCH  14  15
ENDBRANCH  13  14
ENDBRANCH  12  13
ENDBRANCH   2   3
TORSDOF 4
ENDMDL
MODEL       39
REMARK 921   NORMALIZED FREE ENERGY PREDICTED BY IDOCK:   -5.10 KCAL/MOL
REMARK 922        TOTAL FREE ENERGY PREDICTED BY IDOCK:   -6.73 KCAL/MOL
REMARK 923 INTER-LIGAND FREE ENERGY PREDICTED BY IDOCK:   -6.18 KCAL/MOL
REMARK 924 INTRA-LIGAND FREE ENERGY PREDICTED BY IDOCK:   -0.55 KCAL/MOL
REMARK 927      BINDING AFFINITY PREDICTED BY RF-SCORE:    0.00 PKD
ROOT
HETATM    1  C   UNL     1     -12.571  11.979  63.410  1.00  0.00    -0.469 C  
HETATM    2  O   UNL     1     -12.999  13.129  64.140  1.00  0.00    -0.584 OA 
ENDROOT
BRANCH   2   3
HETATM    3  C   UNL     1     -11.978  13.898  64.635  1.00  0.00    -0.419 A  
HETATM    4  C   UNL     1     -11.003  13.226  65.383  1.00  0.00    -0.299 A  
HETATM    5  C   UNL     1      -9.912  13.905  65.991  1.00  0.00    -0.325 A  
HETATM    6  C   UNL     1      -9.844  15.308  65.779  1.00  0.00    -0.395 A  
HETATM    7  C   UNL     1      -8.825  16.066  66.366  1.00  0.00    -0.363 A  
HETATM    8  C   UNL     1     -10.789  15.958  64.975  1.00  0.00    -0.444 A  
HETATM    9  C   UNL     1      -7.866  15.466  67.168  1.00  0.00    -0.249 A  
HETATM   10  C   UNL     1     -11.850  15.260  64.404  1.00  0.00    -0.288 A  
HETATM   11  C   UNL     1      -7.895  14.090  67.368  1.00  0.00    -0.188 A  
HETATM   12  C   UNL     1      -8.902  13.285  66.797  1.00  0.00    -0.140 A  
BRANCH  12  13
HETATM   13  C   UNL     1      -8.830  11.769  66.959  1.00  0.00    -0.182 C  
BRANCH  13  14
HETATM   14  C   UNL     1      -9.208  11.208  68.340  1.00  0.00    -0.175 C  
BRANCH  14  15
HETATM   15  N   UNL     1     -10.041  12.112  69.121  1.00  0.00    -0.404 N  
HETATM   16  C   UNL     1     -11.414  12.072  69.068  1.00  0.00    -0.300 C  
HETATM   17  H   UNL     1      -9.590  12.797  69.728  1.00  0.00     0.000 HD 
HETATM   18  C   UNL     1     -12.097  13.144  69.876  1.00  0.00    -0.357 C  
HETATM   19  O   UNL     1     -12.050  11.238  68.432  1.00  0.00    -0.598 OA 
ENDBRANCH  14  15
ENDBRANCH  13  14
ENDBRANCH  12  13
ENDBRANCH   2   3
TORSDOF 4
ENDMDL
MODEL       40
REMARK 921   NORMALIZED FREE ENERGY PREDICTED BY IDOCK:   -5.09 KCAL/MOL
REMARK 922        TOTAL FREE ENERGY PREDICTED BY IDOCK:   -6.72 KCAL/MOL
REMARK 923 INTER-LIGAND FREE ENERGY PREDICTED BY IDOCK:   -6.29 KCAL/MOL
REMARK 924 INTRA-LIGAND FREE ENERGY PREDICTED BY IDOCK:   -0.44 KCAL/MOL
REMARK 927      BINDING AFFINITY PREDICTED BY RF-SCORE:    0.00 PKD
ROOT
HETATM    1  C   UNL     1     -10.588  14.674  65.084  1.00  0.00    -0.421 C  
HETATM    2  O   UNL     1     -10.280  13.283  65.176  1.00  0.00    -0.307 OA 
ENDROOT
BRANCH   2   3
HETATM    3  C   UNL     1     -10.773  12.666  66.296  1.00  0.00    -0.256 A  
HETATM    4  C   UNL     1     -11.186  13.509  67.336  1.00  0.00    -0.317 A  
HETATM    5  C   UNL     1     -11.677  13.005  68.571  1.00  0.00    -0.377 A  
HETATM    6  C   UNL     1     -11.754  11.591  68.691  1.00  0.00    -0.389 A  
HETATM    7  C   UNL     1     -12.193  11.002  69.882  1.00  0.00    -0.408 A  
HETATM    8  C   UNL     1     -11.399  10.761  67.620  1.00  0.00    -0.328 A  
HETATM    9  C   UNL     1     -12.558  11.784  70.968  1.00  0.00    -0.409 A  
HETATM   10  C   UNL     1     -10.912  11.292  66.429  1.00  0.00    -0.285 A  
HETATM   11  C   UNL     1     -12.518  13.171  70.865  1.00  0.00    -0.407 A  
HETATM   12  C   UNL     1     -12.083  13.809  69.686  1.00  0.00    -0.392 A  
BRANCH  12  13
HETATM   13  C   UNL     1     -12.158  15.330  69.587  1.00  0.00    -0.342 C  
BRANCH  13  14
HETATM   14  C   UNL     1     -10.936  16.112  70.098  1.00  0.00    -0.358 C  
BRANCH  14  15
HETATM   15  N   UNL     1     -10.770  17.407  69.455  1.00  0.00    -0.335 N  
HETATM   16  C   UNL     1      -9.994  17.573  68.332  1.00  0.00    -0.335 C  
HETATM   17  H   UNL     1     -11.246  18.219  69.850  1.00  0.00     0.000 HD 
HETATM   18  C   UNL     1      -9.872  19.001  67.868  1.00  0.00    -0.400 C  
HETATM   19  O   UNL     1      -9.446  16.652  67.737  1.00  0.00    -0.224 OA 
ENDBRANCH  14  15
ENDBRANCH  13  14
ENDBRANCH  12  13
ENDBRANCH   2   3
TORSDOF 4
ENDMDL
MODEL       41
REMARK 921   NORMALIZED FREE ENERGY PREDICTED BY IDOCK:   -5.09 KCAL/MOL
REMARK 922        TOTAL FREE ENERGY PREDICTED BY IDOCK:   -6.72 KCAL/MOL
REMARK 923 INTER-LIGAND FREE ENERGY PREDICTED BY IDOCK:   -6.39 KCAL/MOL
REMARK 924 INTRA-LIGAND FREE ENERGY PREDICTED BY IDOCK:   -0.33 KCAL/MOL
REMARK 927      BINDING AFFINITY PREDICTED BY RF-SCORE:    0.00 PKD
ROOT
HETATM    1  C   UNL     1     -11.994  15.159  69.313  1.00  0.00    -0.292 C  
HETATM    2  O   UNL     1     -12.030  13.761  69.026  1.00  0.00    -0.334 OA 
ENDROOT
BRANCH   2   3
HETATM    3  C   UNL     1     -11.882  13.451  67.700  1.00  0.00    -0.354 A  
HETATM    4  C   UNL     1     -11.182  12.271  67.414  1.00  0.00    -0.358 A  
HETATM    5  C   UNL     1     -10.918  11.851  66.082  1.00  0.00    -0.352 A  
HETATM    6  C   UNL     1     -11.427  12.678  65.045  1.00  0.00    -0.366 A  
HETATM    7  C   UNL     1     -11.187  12.363  63.703  1.00  0.00    -0.544 A  
HETATM    8  C   UNL     1     -12.181  13.820  65.345  1.00  0.00    -0.465 A  
HETATM    9  C   UNL     1     -10.448  11.241  63.358  1.00  0.00    -0.424 A  
HETATM   10  C   UNL     1     -12.410  14.206  66.663  1.00  0.00    -0.375 A  
HETATM   11  C   UNL     1      -9.963  10.401  64.355  1.00  0.00    -0.388 A  
HETATM   12  C   UNL     1     -10.179  10.677  65.719  1.00  0.00    -0.317 A  
BRANCH  12  13
HETATM   13  C   UNL     1      -9.719   9.669  66.770  1.00  0.00    -0.252 C  
BRANCH  13  14
HETATM   14  C   UNL     1     -10.189   8.218  66.581  1.00  0.00    -0.263 C  
BRANCH  14  15
HETATM   15  N   UNL     1     -10.926   7.697  67.723  1.00  0.00    -0.501 N  
HETATM   16  C   UNL     1     -10.356   6.838  68.632  1.00  0.00    -0.186 C  
HETATM   17  H   UNL     1     -11.898   7.980  67.854  1.00  0.00     0.000 HD 
HETATM   18  C   UNL     1     -11.303   6.338  69.691  1.00  0.00    -0.492 C  
HETATM   19  O   UNL     1      -9.177   6.500  68.608  1.00  0.00    -0.128 OA 
ENDBRANCH  14  15
ENDBRANCH  13  14
ENDBRANCH  12  13
ENDBRANCH   2   3
TORSDOF 4
ENDMDL
MODEL       42
REMARK 921   NORMALIZED FREE ENERGY PREDICTED BY IDOCK:   -5.08 KCAL/MOL
REMARK 922        TOTAL FREE ENERGY PREDICTED BY IDOCK:   -6.70 KCAL/MOL
REMARK 923 INTER-LIGAND FREE ENERGY PREDICTED BY IDOCK:   -6.44 KCAL/MOL
REMARK 924 INTRA-LIGAND FREE ENERGY PREDICTED BY IDOCK:   -0.26 KCAL/MOL
REMARK 927      BINDING AFFINITY PREDICTED BY RF-SCORE:    0.00 PKD
ROOT
HETATM    1  C   UNL     1      -8.900   5.375  69.913  1.00  0.00    -0.125 C  
HETATM    2  O   UNL     1      -9.640   6.315  69.133  1.00  0.00    -0.135 OA 
ENDROOT
BRANCH   2   3
HETATM    3  C   UNL     1     -10.525   7.076  69.852  1.00  0.00    -0.217 A  
HETATM    4  C   UNL     1     -10.589   8.434  69.515  1.00  0.00    -0.217 A  
HETATM    5  C   UNL     1     -11.430   9.347  70.208  1.00  0.00    -0.223 A  
HETATM    6  C   UNL     1     -12.230   8.805  71.249  1.00  0.00    -0.332 A  
HETATM    7  C   UNL     1     -13.063   9.633  72.009  1.00  0.00    -0.537 A  
HETATM    8  C   UNL     1     -12.204   7.433  71.532  1.00  0.00    -0.368 A  
HETATM    9  C   UNL     1     -13.124  10.997  71.763  1.00  0.00    -0.554 A  
HETATM   10  C   UNL     1     -11.359   6.571  70.839  1.00  0.00    -0.393 A  
HETATM   11  C   UNL     1     -12.371  11.547  70.731  1.00  0.00    -0.472 A  
HETATM   12  C   UNL     1     -11.518  10.753  69.939  1.00  0.00    -0.398 A  
BRANCH  12  13
HETATM   13  C   UNL     1     -10.794  11.384  68.752  1.00  0.00    -0.251 C  
BRANCH  13  14
HETATM   14  C   UNL     1     -11.579  12.436  67.951  1.00  0.00    -0.356 C  
BRANCH  14  15
HETATM   15  N   UNL     1     -11.623  12.157  66.523  1.00  0.00    -0.374 N  
HETATM   16  C   UNL     1     -12.217  13.016  65.628  1.00  0.00    -0.466 C  
HETATM   17  H   UNL     1     -11.200  11.297  66.174  1.00  0.00     0.000 HD 
HETATM   18  C   UNL     1     -12.242  12.511  64.209  1.00  0.00    -0.535 C  
HETATM   19  O   UNL     1     -12.683  14.108  65.933  1.00  0.00    -0.487 OA 
ENDBRANCH  14  15
ENDBRANCH  13  14
ENDBRANCH  12  13
ENDBRANCH   2   3
TORSDOF 4
ENDMDL
MODEL       43
REMARK 921   NORMALIZED FREE ENERGY PREDICTED BY IDOCK:   -5.07 KCAL/MOL
REMARK 922        TOTAL FREE ENERGY PREDICTED BY IDOCK:   -6.69 KCAL/MOL
REMARK 923 INTER-LIGAND FREE ENERGY PREDICTED BY IDOCK:   -6.02 KCAL/MOL
REMARK 924 INTRA-LIGAND FREE ENERGY PREDICTED BY IDOCK:   -0.67 KCAL/MOL
REMARK 927      BINDING AFFINITY PREDICTED BY RF-SCORE:    0.00 PKD
ROOT
HETATM    1  C   UNL     1     -11.750  15.851  64.270  1.00  0.00    -0.132 C  
HETATM    2  O   UNL     1     -12.424  14.665  63.847  1.00  0.00    -0.813 OA 
ENDROOT
BRANCH   2   3
HETATM    3  C   UNL     1     -11.920  13.507  64.378  1.00  0.00    -0.422 A  
HETATM    4  C   UNL     1     -11.997  13.379  65.771  1.00  0.00    -0.447 A  
HETATM    5  C   UNL     1     -11.474  12.250  66.459  1.00  0.00    -0.438 A  
HETATM    6  C   UNL     1     -10.887  11.236  65.655  1.00  0.00    -0.242 A  
HETATM    7  C   UNL     1     -10.316  10.104  66.245  1.00  0.00    -0.245 A  
HETATM    8  C   UNL     1     -10.875  11.347  64.258  1.00  0.00    -0.416 A  
HETATM    9  C   UNL     1     -10.307   9.950  67.623  1.00  0.00    -0.275 A  
HETATM   10  C   UNL     1     -11.388  12.473  63.621  1.00  0.00    -0.555 A  
HETATM   11  C   UNL     1     -10.900  10.915  68.430  1.00  0.00    -0.266 A  
HETATM   12  C   UNL     1     -11.488  12.072  67.881  1.00  0.00    -0.396 A  
BRANCH  12  13
HETATM   13  C   UNL     1     -12.218  13.049  68.799  1.00  0.00    -0.047 C  
BRANCH  13  14
HETATM   14  C   UNL     1     -11.349  14.089  69.525  1.00  0.00    -0.245 C  
BRANCH  14  15
HETATM   15  N   UNL     1     -11.323  15.384  68.859  1.00  0.00    -0.293 N  
HETATM   16  C   UNL     1     -10.309  15.747  68.004  1.00  0.00    -0.252 C  
HETATM   17  H   UNL     1     -12.081  16.043  69.033  1.00  0.00     0.000 HD 
HETATM   18  C   UNL     1     -10.410  17.157  67.487  1.00  0.00    -0.341 C  
HETATM   19  O   UNL     1      -9.395  15.000  67.670  1.00  0.00    -0.191 OA 
ENDBRANCH  14  15
ENDBRANCH  13  14
ENDBRANCH  12  13
ENDBRANCH   2   3
TORSDOF 4
ENDMDL
MODEL       44
REMARK 921   NORMALIZED FREE ENERGY PREDICTED BY IDOCK:   -5.06 KCAL/MOL
REMARK 922        TOTAL FREE ENERGY PREDICTED BY IDOCK:   -6.68 KCAL/MOL
REMARK 923 INTER-LIGAND FREE ENERGY PREDICTED BY IDOCK:   -6.34 KCAL/MOL
REMARK 924 INTRA-LIGAND FREE ENERGY PREDICTED BY IDOCK:   -0.33 KCAL/MOL
REMARK 927      BINDING AFFINITY PREDICTED BY RF-SCORE:    0.00 PKD
ROOT
HETATM    1  C   UNL     1     -12.655  10.212  71.413  1.00  0.00    -0.422 C  
HETATM    2  O   UNL     1     -12.287  11.299  70.564  1.00  0.00    -0.333 OA 
ENDROOT
BRANCH   2   3
HETATM    3  C   UNL     1     -11.667  10.925  69.401  1.00  0.00    -0.325 A  
HETATM    4  C   UNL     1     -11.861  11.766  68.298  1.00  0.00    -0.340 A  
HETATM    5  C   UNL     1     -11.313  11.477  67.018  1.00  0.00    -0.340 A  
HETATM    6  C   UNL     1     -10.528  10.297  66.919  1.00  0.00    -0.291 A  
HETATM    7  C   UNL     1      -9.976   9.913  65.693  1.00  0.00    -0.353 A  
HETATM    8  C   UNL     1     -10.288   9.500  68.046  1.00  0.00    -0.260 A  
HETATM    9  C   UNL     1     -10.184  10.673  64.551  1.00  0.00    -0.399 A  
HETATM   10  C   UNL     1     -10.851   9.810  69.280  1.00  0.00    -0.240 A  
HETATM   11  C   UNL     1     -10.926  11.847  64.629  1.00  0.00    -0.370 A  
HETATM   12  C   UNL     1     -11.502  12.274  65.842  1.00  0.00    -0.428 A  
BRANCH  12  13
HETATM   13  C   UNL     1     -12.216  13.622  65.898  1.00  0.00    -0.502 C  
BRANCH  13  14
HETATM   14  C   UNL     1     -11.348  14.869  65.660  1.00  0.00    -0.325 C  
BRANCH  14  15
HETATM   15  N   UNL     1     -11.116  15.649  66.867  1.00  0.00    -0.242 N  
HETATM   16  C   UNL     1     -10.485  16.870  66.839  1.00  0.00    -0.271 C  
HETATM   17  H   UNL     1     -11.432  15.277  67.763  1.00  0.00     0.000 HD 
HETATM   18  C   UNL     1     -10.256  17.481  68.196  1.00  0.00    -0.359 C  
HETATM   19  O   UNL     1     -10.138  17.437  65.808  1.00  0.00    -0.544 OA 
ENDBRANCH  14  15
ENDBRANCH  13  14
ENDBRANCH  12  13
ENDBRANCH   2   3
TORSDOF 4
ENDMDL
MODEL       45
REMARK 921   NORMALIZED FREE ENERGY PREDICTED BY IDOCK:   -5.03 KCAL/MOL
REMARK 922        TOTAL FREE ENERGY PREDICTED BY IDOCK:   -6.64 KCAL/MOL
REMARK 923 INTER-LIGAND FREE ENERGY PREDICTED BY IDOCK:   -6.25 KCAL/MOL
REMARK 924 INTRA-LIGAND FREE ENERGY PREDICTED BY IDOCK:   -0.39 KCAL/MOL
REMARK 927      BINDING AFFINITY PREDICTED BY RF-SCORE:    0.00 PKD
ROOT
HETATM    1  C   UNL     1     -12.399  11.930  63.214  1.00  0.00    -0.391 C  
HETATM    2  O   UNL     1     -11.438  12.911  63.602  1.00  0.00    -0.439 OA 
ENDROOT
BRANCH   2   3
HETATM    3  C   UNL     1     -11.449  13.217  64.938  1.00  0.00    -0.318 A  
HETATM    4  C   UNL     1     -11.080  14.526  65.276  1.00  0.00    -0.355 A  
HETATM    5  C   UNL     1     -11.005  14.967  66.626  1.00  0.00    -0.325 A  
HETATM    6  C   UNL     1     -11.353  14.016  67.622  1.00  0.00    -0.336 A  
HETATM    7  C   UNL     1     -11.277  14.350  68.979  1.00  0.00    -0.288 A  
HETATM    8  C   UNL     1     -11.783  12.731  67.267  1.00  0.00    -0.440 A  
HETATM    9  C   UNL     1     -10.859  15.611  69.378  1.00  0.00    -0.264 A  
HETATM   10  C   UNL     1     -11.833  12.332  65.935  1.00  0.00    -0.420 A  
HETATM   11  C   UNL     1     -10.539  16.567  68.420  1.00  0.00    -0.323 A  
HETATM   12  C   UNL     1     -10.601  16.278  67.043  1.00  0.00    -0.284 A  
BRANCH  12  13
HETATM   13  C   UNL     1     -10.343  17.392  66.031  1.00  0.00    -0.309 C  
BRANCH  13  14
HETATM   14  C   UNL     1     -10.303  18.826  66.585  1.00  0.00    -0.420 C  
BRANCH  14  15
HETATM   15  N   UNL     1      -8.985  19.439  66.501  1.00  0.00    -0.341 N  
HETATM   16  C   UNL     1      -8.219  19.682  67.616  1.00  0.00    -0.300 C  
HETATM   17  H   UNL     1      -8.618  19.697  65.585  1.00  0.00     0.000 HD 
HETATM   18  C   UNL     1      -6.928  20.405  67.336  1.00  0.00    -0.336 C  
HETATM   19  O   UNL     1      -8.534  19.341  68.751  1.00  0.00    -0.361 OA 
ENDBRANCH  14  15
ENDBRANCH  13  14
ENDBRANCH  12  13
ENDBRANCH   2   3
TORSDOF 4
ENDMDL
MODEL       46
REMARK 921   NORMALIZED FREE ENERGY PREDICTED BY IDOCK:   -5.01 KCAL/MOL
REMARK 922        TOTAL FREE ENERGY PREDICTED BY IDOCK:   -6.62 KCAL/MOL
REMARK 923 INTER-LIGAND FREE ENERGY PREDICTED BY IDOCK:   -6.25 KCAL/MOL
REMARK 924 INTRA-LIGAND FREE ENERGY PREDICTED BY IDOCK:   -0.37 KCAL/MOL
REMARK 927      BINDING AFFINITY PREDICTED BY RF-SCORE:    0.00 PKD
ROOT
HETATM    1  C   UNL     1      -8.910   8.777  67.342  1.00  0.00    -0.133 C  
HETATM    2  O   UNL     1      -8.874   7.730  68.311  1.00  0.00    -0.130 OA 
ENDROOT
BRANCH   2   3
HETATM    3  C   UNL     1      -9.930   7.730  69.186  1.00  0.00    -0.182 A  
HETATM    4  C   UNL     1     -10.466   8.984  69.507  1.00  0.00    -0.223 A  
HETATM    5  C   UNL     1     -11.534   9.136  70.434  1.00  0.00    -0.228 A  
HETATM    6  C   UNL     1     -12.053   7.942  71.002  1.00  0.00    -0.246 A  
HETATM    7  C   UNL     1     -13.081   7.995  71.949  1.00  0.00    -0.336 A  
HETATM    8  C   UNL     1     -11.550   6.691  70.622  1.00  0.00    -0.439 A  
HETATM    9  C   UNL     1     -13.612   9.211  72.353  1.00  0.00    -0.544 A  
HETATM   10  C   UNL     1     -10.497   6.582  69.719  1.00  0.00    -0.256 A  
HETATM   11  C   UNL     1     -13.140  10.392  71.791  1.00  0.00    -0.567 A  
HETATM   12  C   UNL     1     -12.105  10.389  70.834  1.00  0.00    -0.477 A  
BRANCH  12  13
HETATM   13  C   UNL     1     -11.695  11.700  70.169  1.00  0.00    -0.381 C  
BRANCH  13  14
HETATM   14  C   UNL     1     -12.644  12.894  70.364  1.00  0.00    -0.074 C  
BRANCH  14  15
HETATM   15  N   UNL     1     -12.079  13.949  71.194  1.00  0.00    -0.454 N  
HETATM   16  C   UNL     1     -12.740  14.450  72.291  1.00  0.00    -0.317 C  
HETATM   17  H   UNL     1     -11.163  14.329  70.954  1.00  0.00     0.000 HD 
HETATM   18  C   UNL     1     -12.037  15.598  72.966  1.00  0.00    -0.590 C  
HETATM   19  O   UNL     1     -13.806  14.010  72.708  1.00  0.00    -0.674 OA 
ENDBRANCH  14  15
ENDBRANCH  13  14
ENDBRANCH  12  13
ENDBRANCH   2   3
TORSDOF 4
ENDMDL
MODEL       47
REMARK 921   NORMALIZED FREE ENERGY PREDICTED BY IDOCK:   -5.01 KCAL/MOL
REMARK 922        TOTAL FREE ENERGY PREDICTED BY IDOCK:   -6.62 KCAL/MOL
REMARK 923 INTER-LIGAND FREE ENERGY PREDICTED BY IDOCK:   -6.38 KCAL/MOL
REMARK 924 INTRA-LIGAND FREE ENERGY PREDICTED BY IDOCK:   -0.24 KCAL/MOL
REMARK 927      BINDING AFFINITY PREDICTED BY RF-SCORE:    0.00 PKD
ROOT
HETATM    1  C   UNL     1     -13.386   8.973  71.580  1.00  0.00    -0.377 C  
HETATM    2  O   UNL     1     -13.513  10.190  72.316  1.00  0.00    -0.398 OA 
ENDROOT
BRANCH   2   3
HETATM    3  C   UNL     1     -13.106  11.308  71.636  1.00  0.00    -0.408 A  
HETATM    4  C   UNL     1     -12.503  11.089  70.390  1.00  0.00    -0.397 A  
HETATM    5  C   UNL     1     -11.993  12.154  69.597  1.00  0.00    -0.351 A  
HETATM    6  C   UNL     1     -12.152  13.464  70.122  1.00  0.00    -0.415 A  
HETATM    7  C   UNL     1     -11.652  14.572  69.429  1.00  0.00    -0.343 A  
HETATM    8  C   UNL     1     -12.815  13.674  71.338  1.00  0.00    -0.442 A  
HETATM    9  C   UNL     1     -10.991  14.414  68.219  1.00  0.00    -0.259 A  
HETATM   10  C   UNL     1     -13.291  12.605  72.092  1.00  0.00    -0.570 A  
HETATM   11  C   UNL     1     -10.848  13.143  67.672  1.00  0.00    -0.269 A  
HETATM   12  C   UNL     1     -11.335  11.998  68.333  1.00  0.00    -0.332 A  
BRANCH  12  13
HETATM   13  C   UNL     1     -11.248  10.640  67.643  1.00  0.00    -0.361 C  
BRANCH  13  14
HETATM   14  C   UNL     1     -10.305   9.606  68.280  1.00  0.00    -0.204 C  
BRANCH  14  15
HETATM   15  N   UNL     1     -10.993   8.415  68.756  1.00  0.00    -0.428 N  
HETATM   16  C   UNL     1     -10.316   7.274  69.120  1.00  0.00    -0.205 C  
HETATM   17  H   UNL     1     -12.011   8.427  68.824  1.00  0.00     0.000 HD 
HETATM   18  C   UNL     1     -11.206   6.120  69.499  1.00  0.00    -0.482 C  
HETATM   19  O   UNL     1      -9.094   7.184  69.149  1.00  0.00    -0.138 OA 
ENDBRANCH  14  15
ENDBRANCH  13  14
ENDBRANCH  12  13
ENDBRANCH   2   3
TORSDOF 4
ENDMDL
MODEL       48
REMARK 921   NORMALIZED FREE ENERGY PREDICTED BY IDOCK:   -5.00 KCAL/MOL
REMARK 922        TOTAL FREE ENERGY PREDICTED BY IDOCK:   -6.61 KCAL/MOL
REMARK 923 INTER-LIGAND FREE ENERGY PREDICTED BY IDOCK:   -6.33 KCAL/MOL
REMARK 924 INTRA-LIGAND FREE ENERGY PREDICTED BY IDOCK:   -0.28 KCAL/MOL
REMARK 927      BINDING AFFINITY PREDICTED BY RF-SCORE:    0.00 PKD
ROOT
HETATM    1  C   UNL     1      -9.930  11.090  63.326  1.00  0.00    -0.369 C  
HETATM    2  O   UNL     1     -10.971  12.066  63.272  1.00  0.00    -0.388 OA 
ENDROOT
BRANCH   2   3
HETATM    3  C   UNL     1     -11.189  12.728  64.452  1.00  0.00    -0.347 A  
HETATM    4  C   UNL     1     -11.176  11.943  65.613  1.00  0.00    -0.360 A  
HETATM    5  C   UNL     1     -11.431  12.491  66.900  1.00  0.00    -0.416 A  
HETATM    6  C   UNL     1     -11.675  13.890  66.955  1.00  0.00    -0.425 A  
HETATM    7  C   UNL     1     -11.969  14.512  68.173  1.00  0.00    -0.296 A  
HETATM    8  C   UNL     1     -11.620  14.673  65.794  1.00  0.00    -0.328 A  
HETATM    9  C   UNL     1     -12.031  13.777  69.348  1.00  0.00    -0.397 A  
HETATM   10  C   UNL     1     -11.378  14.099  64.550  1.00  0.00    -0.355 A  
HETATM   11  C   UNL     1     -11.769  12.412  69.324  1.00  0.00    -0.386 A  
HETATM   12  C   UNL     1     -11.468  11.742  68.121  1.00  0.00    -0.382 A  
BRANCH  12  13
HETATM   13  C   UNL     1     -11.085  10.265  68.162  1.00  0.00    -0.324 C  
BRANCH  13  14
HETATM   14  C   UNL     1     -10.610   9.716  69.518  1.00  0.00    -0.229 C  
BRANCH  14  15
HETATM   15  N   UNL     1     -11.634   8.959  70.224  1.00  0.00    -0.456 N  
HETATM   16  C   UNL     1     -11.422   7.672  70.659  1.00  0.00    -0.258 C  
HETATM   17  H   UNL     1     -12.538   9.397  70.402  1.00  0.00     0.000 HD 
HETATM   18  C   UNL     1     -12.628   7.024  71.286  1.00  0.00    -0.418 C  
HETATM   19  O   UNL     1     -10.349   7.085  70.564  1.00  0.00    -0.199 OA 
ENDBRANCH  14  15
ENDBRANCH  13  14
ENDBRANCH  12  13
ENDBRANCH   2   3
TORSDOF 4
ENDMDL
MODEL       49
REMARK 921   NORMALIZED FREE ENERGY PREDICTED BY IDOCK:   -4.98 KCAL/MOL
REMARK 922        TOTAL FREE ENERGY PREDICTED BY IDOCK:   -6.58 KCAL/MOL
REMARK 923 INTER-LIGAND FREE ENERGY PREDICTED BY IDOCK:   -6.15 KCAL/MOL
REMARK 924 INTRA-LIGAND FREE ENERGY PREDICTED BY IDOCK:   -0.44 KCAL/MOL
REMARK 927      BINDING AFFINITY PREDICTED BY RF-SCORE:    0.00 PKD
ROOT
HETATM    1  C   UNL     1     -10.832  15.285  68.277  1.00  0.00    -0.262 C  
HETATM    2  O   UNL     1     -11.988  14.927  67.520  1.00  0.00    -0.314 OA 
ENDROOT
BRANCH   2   3
HETATM    3  C   UNL     1     -11.729  14.142  66.427  1.00  0.00    -0.390 A  
HETATM    4  C   UNL     1     -11.036  12.949  66.671  1.00  0.00    -0.316 A  
HETATM    5  C   UNL     1     -10.663  12.062  65.625  1.00  0.00    -0.313 A  
HETATM    6  C   UNL     1     -11.053  12.434  64.311  1.00  0.00    -0.399 A  
HETATM    7  C   UNL     1     -10.700  11.641  63.214  1.00  0.00    -0.404 A  
HETATM    8  C   UNL     1     -11.801  13.598  64.088  1.00  0.00    -0.463 A  
HETATM    9  C   UNL     1      -9.963  10.479  63.386  1.00  0.00    -0.251 A  
HETATM   10  C   UNL     1     -12.139  14.448  65.137  1.00  0.00    -0.395 A  
HETATM   11  C   UNL     1      -9.593  10.079  64.666  1.00  0.00    -0.363 A  
HETATM   12  C   UNL     1      -9.925  10.845  65.801  1.00  0.00    -0.299 A  
BRANCH  12  13
HETATM   13  C   UNL     1      -9.589  10.310  67.190  1.00  0.00    -0.199 C  
BRANCH  13  14
HETATM   14  C   UNL     1     -10.611   9.350  67.822  1.00  0.00    -0.258 C  
BRANCH  14  15
HETATM   15  N   UNL     1     -11.606  10.026  68.642  1.00  0.00    -0.506 N  
HETATM   16  C   UNL     1     -11.451  10.181  70.000  1.00  0.00    -0.277 C  
HETATM   17  H   UNL     1     -12.445  10.396  68.196  1.00  0.00     0.000 HD 
HETATM   18  C   UNL     1     -12.627  10.823  70.688  1.00  0.00    -0.446 C  
HETATM   19  O   UNL     1     -10.448   9.842  70.617  1.00  0.00    -0.292 OA 
ENDBRANCH  14  15
ENDBRANCH  13  14
ENDBRANCH  12  13
ENDBRANCH   2   3
TORSDOF 4
ENDMDL
MODEL       50
REMARK 921   NORMALIZED FREE ENERGY PREDICTED BY IDOCK:   -4.97 KCAL/MOL
REMARK 922        TOTAL FREE ENERGY PREDICTED BY IDOCK:   -6.57 KCAL/MOL
REMARK 923 INTER-LIGAND FREE ENERGY PREDICTED BY IDOCK:   -6.30 KCAL/MOL
REMARK 924 INTRA-LIGAND FREE ENERGY PREDICTED BY IDOCK:   -0.27 KCAL/MOL
REMARK 927      BINDING AFFINITY PREDICTED BY RF-SCORE:    0.00 PKD
ROOT
HETATM    1  C   UNL     1     -13.340  13.856  72.556  1.00  0.00    -0.554 C  
HETATM    2  O   UNL     1     -14.022  12.628  72.302  1.00  0.00    -0.361 OA 
ENDROOT
BRANCH   2   3
HETATM    3  C   UNL     1     -13.235  11.644  71.763  1.00  0.00    -0.333 A  
HETATM    4  C   UNL     1     -12.526  11.984  70.604  1.00  0.00    -0.335 A  
HETATM    5  C   UNL     1     -11.706  11.047  69.916  1.00  0.00    -0.424 A  
HETATM    6  C   UNL     1     -11.619   9.748  70.482  1.00  0.00    -0.365 A  
HETATM    7  C   UNL     1     -10.863   8.750  69.856  1.00  0.00    -0.211 A  
HETATM    8  C   UNL     1     -12.281   9.441  71.677  1.00  0.00    -0.467 A  
HETATM    9  C   UNL     1     -10.188   9.008  68.672  1.00  0.00    -0.226 A  
HETATM   10  C   UNL     1     -13.084  10.381  72.317  1.00  0.00    -0.284 A  
HETATM   11  C   UNL     1     -10.236  10.281  68.114  1.00  0.00    -0.192 A  
HETATM   12  C   UNL     1     -10.983  11.317  68.708  1.00  0.00    -0.270 A  
BRANCH  12  13
HETATM   13  C   UNL     1     -10.918  12.723  68.115  1.00  0.00    -0.273 C  
BRANCH  13  14
HETATM   14  C   UNL     1     -11.693  12.952  66.807  1.00  0.00    -0.383 C  
BRANCH  14  15
HETATM   15  N   UNL     1     -11.406  14.236  66.184  1.00  0.00    -0.335 N  
HETATM   16  C   UNL     1     -11.954  14.603  64.977  1.00  0.00    -0.364 C  
HETATM   17  H   UNL     1     -10.779  14.885  66.659  1.00  0.00     0.000 HD 
HETATM   18  C   UNL     1     -11.466  15.928  64.453  1.00  0.00    -0.268 C  
HETATM   19  O   UNL     1     -12.777  13.930  64.366  1.00  0.00    -0.656 OA 
ENDBRANCH  14  15
ENDBRANCH  13  14
ENDBRANCH  12  13
ENDBRANCH   2   3
TORSDOF 4
ENDMDL
MODEL       51
REMARK 921   NORMALIZED FREE ENERGY PREDICTED BY IDOCK:   -4.97 KCAL/MOL
REMARK 922        TOTAL FREE ENERGY PREDICTED BY IDOCK:   -6.57 KCAL/MOL
REMARK 923 INTER-LIGAND FREE ENERGY PREDICTED BY IDOCK:   -6.29 KCAL/MOL
REMARK 924 INTRA-LIGAND FREE ENERGY PREDICTED BY IDOCK:   -0.28 KCAL/MOL
REMARK 927      BINDING AFFINITY PREDICTED BY RF-SCORE:    0.00 PKD
ROOT
HETATM    1  C   UNL     1      -9.810   9.694  70.307  1.00  0.00    -0.266 C  
HETATM    2  O   UNL     1     -10.807   9.438  69.317  1.00  0.00    -0.226 OA 
ENDROOT
BRANCH   2   3
HETATM    3  C   UNL     1     -10.380   9.609  68.026  1.00  0.00    -0.218 A  
HETATM    4  C   UNL     1     -10.921  10.702  67.335  1.00  0.00    -0.361 A  
HETATM    5  C   UNL     1     -10.601  10.973  65.977  1.00  0.00    -0.275 A  
HETATM    6  C   UNL     1      -9.677  10.089  65.357  1.00  0.00    -0.368 A  
HETATM    7  C   UNL     1      -9.328  10.257  64.012  1.00  0.00    -0.337 A  
HETATM    8  C   UNL     1      -9.095   9.039  66.078  1.00  0.00    -0.257 A  
HETATM    9  C   UNL     1      -9.877  11.284  63.259  1.00  0.00    -0.418 A  
HETATM   10  C   UNL     1      -9.442   8.798  67.404  1.00  0.00    -0.183 A  
HETATM   11  C   UNL     1     -10.762  12.179  63.852  1.00  0.00    -0.456 A  
HETATM   12  C   UNL     1     -11.143  12.050  65.202  1.00  0.00    -0.369 A  
BRANCH  12  13
HETATM   13  C   UNL     1     -12.033  13.117  65.834  1.00  0.00    -0.479 C  
BRANCH  13  14
HETATM   14  C   UNL     1     -12.050  14.492  65.146  1.00  0.00    -0.363 C  
BRANCH  14  15
HETATM   15  N   UNL     1     -11.310  15.511  65.876  1.00  0.00    -0.119 N  
HETATM   16  C   UNL     1     -10.965  16.715  65.307  1.00  0.00    -0.120 C  
HETATM   17  H   UNL     1     -11.039  15.327  66.843  1.00  0.00     0.000 HD 
HETATM   18  C   UNL     1     -10.124  17.599  66.189  1.00  0.00    -0.307 C  
HETATM   19  O   UNL     1     -11.309  17.063  64.183  1.00  0.00    -1.164 OA 
ENDBRANCH  14  15
ENDBRANCH  13  14
ENDBRANCH  12  13
ENDBRANCH   2   3
TORSDOF 4
ENDMDL
MODEL       52
REMARK 921   NORMALIZED FREE ENERGY PREDICTED BY IDOCK:   -4.97 KCAL/MOL
REMARK 922        TOTAL FREE ENERGY PREDICTED BY IDOCK:   -6.57 KCAL/MOL
REMARK 923 INTER-LIGAND FREE ENERGY PREDICTED BY IDOCK:   -6.04 KCAL/MOL
REMARK 924 INTRA-LIGAND FREE ENERGY PREDICTED BY IDOCK:   -0.52 KCAL/MOL
REMARK 927      BINDING AFFINITY PREDICTED BY RF-SCORE:    0.00 PKD
ROOT
HETATM    1  C   UNL     1     -13.111  11.153  71.661  1.00  0.00    -0.424 C  
HETATM    2  O   UNL     1     -12.278  12.072  70.954  1.00  0.00    -0.352 OA 
ENDROOT
BRANCH   2   3
HETATM    3  C   UNL     1     -11.779  11.591  69.771  1.00  0.00    -0.353 A  
HETATM    4  C   UNL     1     -11.175  10.328  69.823  1.00  0.00    -0.339 A  
HETATM    5  C   UNL     1     -10.578   9.726  68.682  1.00  0.00    -0.249 A  
HETATM    6  C   UNL     1     -10.648  10.463  67.469  1.00  0.00    -0.312 A  
HETATM    7  C   UNL     1     -10.058   9.967  66.302  1.00  0.00    -0.310 A  
HETATM    8  C   UNL     1     -11.312  11.696  67.417  1.00  0.00    -0.367 A  
HETATM    9  C   UNL     1      -9.392   8.750  66.305  1.00  0.00    -0.283 A  
HETATM   10  C   UNL     1     -11.876  12.258  68.559  1.00  0.00    -0.359 A  
HETATM   11  C   UNL     1      -9.334   7.997  67.473  1.00  0.00    -0.171 A  
HETATM   12  C   UNL     1      -9.914   8.456  68.673  1.00  0.00    -0.197 A  
BRANCH  12  13
HETATM   13  C   UNL     1      -9.915   7.547  69.899  1.00  0.00    -0.189 C  
BRANCH  13  14
HETATM   14  C   UNL     1     -10.954   6.414  69.911  1.00  0.00    -0.348 C  
BRANCH  14  15
HETATM   15  N   UNL     1     -12.307   6.875  70.187  1.00  0.00    -0.578 N  
HETATM   16  C   UNL     1     -12.738   7.160  71.462  1.00  0.00    -0.393 C  
HETATM   17  H   UNL     1     -12.958   6.991  69.409  1.00  0.00     0.000 HD 
HETATM   18  C   UNL     1     -14.193   7.535  71.555  1.00  0.00    -0.580 C  
HETATM   19  O   UNL     1     -12.015   7.127  72.451  1.00  0.00    -0.239 OA 
ENDBRANCH  14  15
ENDBRANCH  13  14
ENDBRANCH  12  13
ENDBRANCH   2   3
TORSDOF 4
ENDMDL
MODEL       53
REMARK 921   NORMALIZED FREE ENERGY PREDICTED BY IDOCK:   -4.95 KCAL/MOL
REMARK 922        TOTAL FREE ENERGY PREDICTED BY IDOCK:   -6.55 KCAL/MOL
REMARK 923 INTER-LIGAND FREE ENERGY PREDICTED BY IDOCK:   -6.19 KCAL/MOL
REMARK 924 INTRA-LIGAND FREE ENERGY PREDICTED BY IDOCK:   -0.36 KCAL/MOL
REMARK 927      BINDING AFFINITY PREDICTED BY RF-SCORE:    0.00 PKD
ROOT
HETATM    1  C   UNL     1     -10.321   8.059  67.071  1.00  0.00    -0.344 C  
HETATM    2  O   UNL     1     -10.273   9.235  66.264  1.00  0.00    -0.273 OA 
ENDROOT
BRANCH   2   3
HETATM    3  C   UNL     1     -10.699  10.374  66.896  1.00  0.00    -0.207 A  
HETATM    4  C   UNL     1     -10.991  10.252  68.261  1.00  0.00    -0.315 A  
HETATM    5  C   UNL     1     -11.484  11.341  69.031  1.00  0.00    -0.369 A  
HETATM    6  C   UNL     1     -11.642  12.577  68.349  1.00  0.00    -0.368 A  
HETATM    7  C   UNL     1     -12.153  13.695  69.016  1.00  0.00    -0.348 A  
HETATM    8  C   UNL     1     -11.285  12.701  67.000  1.00  0.00    -0.348 A  
HETATM    9  C   UNL     1     -12.517  13.620  70.352  1.00  0.00    -0.364 A  
HETATM   10  C   UNL     1     -10.815  11.609  66.276  1.00  0.00    -0.333 A  
HETATM   11  C   UNL     1     -12.346  12.428  71.048  1.00  0.00    -0.309 A  
HETATM   12  C   UNL     1     -11.835  11.276  70.419  1.00  0.00    -0.443 A  
BRANCH  12  13
HETATM   13  C   UNL     1     -11.567  10.024  71.251  1.00  0.00    -0.430 C  
BRANCH  13  14
HETATM   14  C   UNL     1     -12.770   9.104  71.514  1.00  0.00    -0.341 C  
BRANCH  14  15
HETATM   15  N   UNL     1     -12.436   7.931  72.309  1.00  0.00    -0.492 N  
HETATM   16  C   UNL     1     -12.042   6.746  71.734  1.00  0.00    -0.350 C  
HETATM   17  H   UNL     1     -12.497   7.990  73.326  1.00  0.00     0.000 HD 
HETATM   18  C   UNL     1     -11.829   5.623  72.715  1.00  0.00    -0.164 C  
HETATM   19  O   UNL     1     -11.864   6.595  70.531  1.00  0.00    -0.390 OA 
ENDBRANCH  14  15
ENDBRANCH  13  14
ENDBRANCH  12  13
ENDBRANCH   2   3
TORSDOF 4
ENDMDL
MODEL       54
REMARK 921   NORMALIZED FREE ENERGY PREDICTED BY IDOCK:   -4.95 KCAL/MOL
REMARK 922        TOTAL FREE ENERGY PREDICTED BY IDOCK:   -6.55 KCAL/MOL
REMARK 923 INTER-LIGAND FREE ENERGY PREDICTED BY IDOCK:   -6.22 KCAL/MOL
REMARK 924 INTRA-LIGAND FREE ENERGY PREDICTED BY IDOCK:   -0.33 KCAL/MOL
REMARK 927      BINDING AFFINITY PREDICTED BY RF-SCORE:    0.00 PKD
ROOT
HETATM    1  C   UNL     1      -7.927   7.679  64.641  1.00  0.00    -0.136 C  
HETATM    2  O   UNL     1      -8.957   7.862  65.613  1.00  0.00    -0.133 OA 
ENDROOT
BRANCH   2   3
HETATM    3  C   UNL     1      -9.484   9.127  65.648  1.00  0.00    -0.240 A  
HETATM    4  C   UNL     1     -10.043   9.531  66.867  1.00  0.00    -0.295 A  
HETATM    5  C   UNL     1     -10.663  10.799  67.033  1.00  0.00    -0.320 A  
HETATM    6  C   UNL     1     -10.663  11.656  65.900  1.00  0.00    -0.328 A  
HETATM    7  C   UNL     1     -11.280  12.910  65.959  1.00  0.00    -0.325 A  
HETATM    8  C   UNL     1     -10.043  11.265  64.707  1.00  0.00    -0.338 A  
HETATM    9  C   UNL     1     -11.904  13.341  67.120  1.00  0.00    -0.424 A  
HETATM   10  C   UNL     1      -9.455  10.010  64.578  1.00  0.00    -0.359 A  
HETATM   11  C   UNL     1     -11.893  12.532  68.251  1.00  0.00    -0.361 A  
HETATM   12  C   UNL     1     -11.285  11.261  68.240  1.00  0.00    -0.331 A  
BRANCH  12  13
HETATM   13  C   UNL     1     -11.207  10.456  69.535  1.00  0.00    -0.325 C  
BRANCH  13  14
HETATM   14  C   UNL     1     -12.254  10.785  70.611  1.00  0.00    -0.379 C  
BRANCH  14  15
HETATM   15  N   UNL     1     -13.303   9.781  70.721  1.00  0.00    -0.606 N  
HETATM   16  C   UNL     1     -13.262   8.780  71.663  1.00  0.00    -0.357 C  
HETATM   17  H   UNL     1     -14.094   9.822  70.078  1.00  0.00     0.000 HD 
HETATM   18  C   UNL     1     -14.389   7.786  71.559  1.00  0.00    -0.574 C  
HETATM   19  O   UNL     1     -12.398   8.690  72.528  1.00  0.00    -0.390 OA 
ENDBRANCH  14  15
ENDBRANCH  13  14
ENDBRANCH  12  13
ENDBRANCH   2   3
TORSDOF 4
ENDMDL
MODEL       55
REMARK 921   NORMALIZED FREE ENERGY PREDICTED BY IDOCK:   -4.95 KCAL/MOL
REMARK 922        TOTAL FREE ENERGY PREDICTED BY IDOCK:   -6.55 KCAL/MOL
REMARK 923 INTER-LIGAND FREE ENERGY PREDICTED BY IDOCK:   -6.06 KCAL/MOL
REMARK 924 INTRA-LIGAND FREE ENERGY PREDICTED BY IDOCK:   -0.49 KCAL/MOL
REMARK 927      BINDING AFFINITY PREDICTED BY RF-SCORE:    0.00 PKD
ROOT
HETATM    1  C   UNL     1      -5.533  19.736  71.147  1.00  0.00    -0.292 C  
HETATM    2  O   UNL     1      -5.488  19.038  69.902  1.00  0.00    -0.200 OA 
ENDROOT
BRANCH   2   3
HETATM    3  C   UNL     1      -6.446  19.425  69.002  1.00  0.00    -0.299 A  
HETATM    4  C   UNL     1      -7.592  18.621  68.934  1.00  0.00    -0.283 A  
HETATM    5  C   UNL     1      -8.645  18.879  68.015  1.00  0.00    -0.330 A  
HETATM    6  C   UNL     1      -8.490  20.018  67.180  1.00  0.00    -0.390 A  
HETATM    7  C   UNL     1      -9.459  20.332  66.220  1.00  0.00    -0.387 A  
HETATM    8  C   UNL     1      -7.370  20.850  67.303  1.00  0.00    -0.378 A  
HETATM    9  C   UNL     1     -10.587  19.539  66.064  1.00  0.00    -0.589 A  
HETATM   10  C   UNL     1      -6.354  20.559  68.208  1.00  0.00    -0.352 A  
HETATM   11  C   UNL     1     -10.774  18.435  66.889  1.00  0.00    -0.303 A  
HETATM   12  C   UNL     1      -9.826  18.079  67.868  1.00  0.00    -0.308 A  
BRANCH  12  13
HETATM   13  C   UNL     1     -10.127  16.922  68.818  1.00  0.00    -0.295 C  
BRANCH  13  14
HETATM   14  C   UNL     1      -9.867  15.506  68.279  1.00  0.00    -0.213 C  
BRANCH  14  15
HETATM   15  N   UNL     1     -11.046  14.887  67.691  1.00  0.00    -0.301 N  
HETATM   16  C   UNL     1     -11.206  14.761  66.331  1.00  0.00    -0.342 C  
HETATM   17  H   UNL     1     -11.778  14.535  68.308  1.00  0.00     0.000 HD 
HETATM   18  C   UNL     1     -12.530  14.178  65.914  1.00  0.00    -0.479 C  
HETATM   19  O   UNL     1     -10.353  15.081  65.509  1.00  0.00    -0.317 OA 
ENDBRANCH  14  15
ENDBRANCH  13  14
ENDBRANCH  12  13
ENDBRANCH   2   3
TORSDOF 4
ENDMDL
MODEL       56
REMARK 921   NORMALIZED FREE ENERGY PREDICTED BY IDOCK:   -4.92 KCAL/MOL
REMARK 922        TOTAL FREE ENERGY PREDICTED BY IDOCK:   -6.51 KCAL/MOL
REMARK 923 INTER-LIGAND FREE ENERGY PREDICTED BY IDOCK:   -6.19 KCAL/MOL
REMARK 924 INTRA-LIGAND FREE ENERGY PREDICTED BY IDOCK:   -0.32 KCAL/MOL
REMARK 927      BINDING AFFINITY PREDICTED BY RF-SCORE:    0.00 PKD
ROOT
HETATM    1  C   UNL     1      -9.269  11.467  67.317  1.00  0.00    -0.167 C  
HETATM    2  O   UNL     1     -10.504  10.875  67.720  1.00  0.00    -0.184 OA 
ENDROOT
BRANCH   2   3
HETATM    3  C   UNL     1     -11.165  11.560  68.706  1.00  0.00    -0.249 A  
HETATM    4  C   UNL     1     -10.881  12.928  68.806  1.00  0.00    -0.277 A  
HETATM    5  C   UNL     1     -11.462  13.751  69.810  1.00  0.00    -0.267 A  
HETATM    6  C   UNL     1     -12.373  13.118  70.697  1.00  0.00    -0.405 A  
HETATM    7  C   UNL     1     -12.968  13.839  71.738  1.00  0.00    -0.441 A  
HETATM    8  C   UNL     1     -12.697  11.763  70.545  1.00  0.00    -0.132 A  
HETATM    9  C   UNL     1     -12.679  15.183  71.926  1.00  0.00    -0.414 A  
HETATM   10  C   UNL     1     -12.100  10.987  69.556  1.00  0.00    -0.400 A  
HETATM   11  C   UNL     1     -11.812  15.831  71.054  1.00  0.00    -0.460 A  
HETATM   12  C   UNL     1     -11.189  15.147  69.991  1.00  0.00    -0.301 A  
BRANCH  12  13
HETATM   13  C   UNL     1     -10.329  15.926  68.999  1.00  0.00    -0.231 C  
BRANCH  13  14
HETATM   14  C   UNL     1     -11.078  16.697  67.900  1.00  0.00    -0.212 C  
BRANCH  14  15
HETATM   15  N   UNL     1     -10.649  18.082  67.773  1.00  0.00    -0.411 N  
HETATM   16  C   UNL     1     -10.342  18.645  66.557  1.00  0.00    -0.421 C  
HETATM   17  H   UNL     1     -10.575  18.655  68.614  1.00  0.00     0.000 HD 
HETATM   18  C   UNL     1      -9.831  20.059  66.639  1.00  0.00    -0.577 C  
HETATM   19  O   UNL     1     -10.473  18.067  65.483  1.00  0.00    -0.636 OA 
ENDBRANCH  14  15
ENDBRANCH  13  14
ENDBRANCH  12  13
ENDBRANCH   2   3
TORSDOF 4
ENDMDL
MODEL       57
REMARK 921   NORMALIZED FREE ENERGY PREDICTED BY IDOCK:   -4.92 KCAL/MOL
REMARK 922        TOTAL FREE ENERGY PREDICTED BY IDOCK:   -6.50 KCAL/MOL
REMARK 923 INTER-LIGAND FREE ENERGY PREDICTED BY IDOCK:   -6.18 KCAL/MOL
REMARK 924 INTRA-LIGAND FREE ENERGY PREDICTED BY IDOCK:   -0.32 KCAL/MOL
REMARK 927      BINDING AFFINITY PREDICTED BY RF-SCORE:    0.00 PKD
ROOT
HETATM    1  C   UNL     1     -10.816  15.675  67.613  1.00  0.00    -0.307 C  
HETATM    2  O   UNL     1     -11.400  16.220  68.796  1.00  0.00    -0.350 OA 
ENDROOT
BRANCH   2   3
HETATM    3  C   UNL     1     -11.894  15.285  69.668  1.00  0.00    -0.339 A  
HETATM    4  C   UNL     1     -11.493  13.961  69.447  1.00  0.00    -0.334 A  
HETATM    5  C   UNL     1     -11.964  12.883  70.247  1.00  0.00    -0.359 A  
HETATM    6  C   UNL     1     -12.847  13.222  71.307  1.00  0.00    -0.398 A  
HETATM    7  C   UNL     1     -13.388  12.225  72.126  1.00  0.00    -0.473 A  
HETATM    8  C   UNL     1     -13.188  14.557  71.557  1.00  0.00    -0.431 A  
HETATM    9  C   UNL     1     -13.076  10.889  71.918  1.00  0.00    -0.537 A  
HETATM   10  C   UNL     1     -12.716  15.585  70.745  1.00  0.00    -0.511 A  
HETATM   11  C   UNL     1     -12.192  10.536  70.904  1.00  0.00    -0.490 A  
HETATM   12  C   UNL     1     -11.622  11.504  70.054  1.00  0.00    -0.364 A  
BRANCH  12  13
HETATM   13  C   UNL     1     -10.578  11.078  69.026  1.00  0.00    -0.258 C  
BRANCH  13  14
HETATM   14  C   UNL     1     -10.963   9.913  68.100  1.00  0.00    -0.207 C  
BRANCH  14  15
HETATM   15  N   UNL     1      -9.881   9.492  67.221  1.00  0.00    -0.167 N  
HETATM   16  C   UNL     1      -9.657  10.084  66.001  1.00  0.00    -0.222 C  
HETATM   17  H   UNL     1      -9.267   8.734  67.522  1.00  0.00     0.000 HD 
HETATM   18  C   UNL     1      -8.551   9.452  65.199  1.00  0.00    -0.188 C  
HETATM   19  O   UNL     1     -10.287  11.051  65.583  1.00  0.00    -0.246 OA 
ENDBRANCH  14  15
ENDBRANCH  13  14
ENDBRANCH  12  13
ENDBRANCH   2   3
TORSDOF 4
ENDMDL
MODEL       58
REMARK 921   NORMALIZED FREE ENERGY PREDICTED BY IDOCK:   -4.92 KCAL/MOL
REMARK 922        TOTAL FREE ENERGY PREDICTED BY IDOCK:   -6.50 KCAL/MOL
REMARK 923 INTER-LIGAND FREE ENERGY PREDICTED BY IDOCK:   -5.81 KCAL/MOL
REMARK 924 INTRA-LIGAND FREE ENERGY PREDICTED BY IDOCK:   -0.69 KCAL/MOL
REMARK 927      BINDING AFFINITY PREDICTED BY RF-SCORE:    0.00 PKD
ROOT
HETATM    1  C   UNL     1     -11.069  15.824  64.906  1.00  0.00    -0.399 C  
HETATM    2  O   UNL     1     -11.120  17.244  64.770  1.00  0.00    -0.954 OA 
ENDROOT
BRANCH   2   3
HETATM    3  C   UNL     1     -10.397  17.929  65.712  1.00  0.00    -0.180 A  
HETATM    4  C   UNL     1      -9.365  17.218  66.338  1.00  0.00    -0.281 A  
HETATM    5  C   UNL     1      -8.564  17.790  67.364  1.00  0.00    -0.233 A  
HETATM    6  C   UNL     1      -8.847  19.140  67.707  1.00  0.00    -0.339 A  
HETATM    7  C   UNL     1      -8.133  19.776  68.729  1.00  0.00    -0.230 A  
HETATM    8  C   UNL     1      -9.838  19.859  67.028  1.00  0.00    -0.540 A  
HETATM    9  C   UNL     1      -7.140  19.104  69.427  1.00  0.00    -0.248 A  
HETATM   10  C   UNL     1     -10.609  19.261  66.036  1.00  0.00    -0.550 A  
HETATM   11  C   UNL     1      -6.827  17.792  69.090  1.00  0.00    -0.227 A  
HETATM   12  C   UNL     1      -7.518  17.110  68.069  1.00  0.00    -0.197 A  
BRANCH  12  13
HETATM   13  C   UNL     1      -7.066  15.708  67.666  1.00  0.00    -0.192 C  
BRANCH  13  14
HETATM   14  C   UNL     1      -7.441  14.565  68.624  1.00  0.00    -0.128 C  
BRANCH  14  15
HETATM   15  N   UNL     1      -8.797  14.669  69.144  1.00  0.00    -0.365 N  
HETATM   16  C   UNL     1      -9.884  14.184  68.455  1.00  0.00    -0.230 C  
HETATM   17  H   UNL     1      -8.945  15.116  70.049  1.00  0.00     0.000 HD 
HETATM   18  C   UNL     1     -11.209  14.467  69.112  1.00  0.00    -0.294 C  
HETATM   19  O   UNL     1      -9.805  13.565  67.400  1.00  0.00    -0.221 OA 
ENDBRANCH  14  15
ENDBRANCH  13  14
ENDBRANCH  12  13
ENDBRANCH   2   3
TORSDOF 4
ENDMDL
MODEL       59
REMARK 921   NORMALIZED FREE ENERGY PREDICTED BY IDOCK:   -4.91 KCAL/MOL
REMARK 922        TOTAL FREE ENERGY PREDICTED BY IDOCK:   -6.50 KCAL/MOL
REMARK 923 INTER-LIGAND FREE ENERGY PREDICTED BY IDOCK:   -6.14 KCAL/MOL
REMARK 924 INTRA-LIGAND FREE ENERGY PREDICTED BY IDOCK:   -0.36 KCAL/MOL
REMARK 927      BINDING AFFINITY PREDICTED BY RF-SCORE:    0.00 PKD
ROOT
HETATM    1  C   UNL     1     -10.706  19.831  66.856  1.00  0.00    -0.421 C  
HETATM    2  O   UNL     1     -10.097  18.830  66.040  1.00  0.00    -0.468 OA 
ENDROOT
BRANCH   2   3
HETATM    3  C   UNL     1      -9.872  17.639  66.679  1.00  0.00    -0.309 A  
HETATM    4  C   UNL     1     -10.763  16.599  66.381  1.00  0.00    -0.123 A  
HETATM    5  C   UNL     1     -10.675  15.324  67.003  1.00  0.00    -0.313 A  
HETATM    6  C   UNL     1      -9.612  15.145  67.929  1.00  0.00    -0.203 A  
HETATM    7  C   UNL     1      -9.465  13.934  68.616  1.00  0.00    -0.123 A  
HETATM    8  C   UNL     1      -8.690  16.171  68.168  1.00  0.00    -0.175 A  
HETATM    9  C   UNL     1     -10.353  12.889  68.409  1.00  0.00    -0.249 A  
HETATM   10  C   UNL     1      -8.815  17.411  67.548  1.00  0.00    -0.224 A  
HETATM   11  C   UNL     1     -11.385  13.031  67.487  1.00  0.00    -0.346 A  
HETATM   12  C   UNL     1     -11.572  14.230  66.772  1.00  0.00    -0.407 A  
BRANCH  12  13
HETATM   13  C   UNL     1     -12.653  14.300  65.696  1.00  0.00    -0.429 C  
BRANCH  13  14
HETATM   14  C   UNL     1     -12.167  14.327  64.237  1.00  0.00    -0.423 C  
BRANCH  14  15
HETATM   15  N   UNL     1     -11.137  13.337  63.954  1.00  0.00    -0.562 N  
HETATM   16  C   UNL     1     -11.442  12.050  63.577  1.00  0.00    -0.446 C  
HETATM   17  H   UNL     1     -10.157  13.607  64.038  1.00  0.00     0.000 HD 
HETATM   18  C   UNL     1     -10.245  11.151  63.418  1.00  0.00    -0.435 C  
HETATM   19  O   UNL     1     -12.583  11.649  63.374  1.00  0.00    -0.485 OA 
ENDBRANCH  14  15
ENDBRANCH  13  14
ENDBRANCH  12  13
ENDBRANCH   2   3
TORSDOF 4
ENDMDL
MODEL       60
REMARK 921   NORMALIZED FREE ENERGY PREDICTED BY IDOCK:   -4.90 KCAL/MOL
REMARK 922        TOTAL FREE ENERGY PREDICTED BY IDOCK:   -6.48 KCAL/MOL
REMARK 923 INTER-LIGAND FREE ENERGY PREDICTED BY IDOCK:   -5.92 KCAL/MOL
REMARK 924 INTRA-LIGAND FREE ENERGY PREDICTED BY IDOCK:   -0.55 KCAL/MOL
REMARK 927      BINDING AFFINITY PREDICTED BY RF-SCORE:    0.00 PKD
ROOT
HETATM    1  C   UNL     1     -10.070  18.189  66.795  1.00  0.00    -0.362 C  
HETATM    2  O   UNL     1      -9.657  16.890  67.220  1.00  0.00    -0.239 OA 
ENDROOT
BRANCH   2   3
HETATM    3  C   UNL     1     -10.045  15.872  66.388  1.00  0.00    -0.292 A  
HETATM    4  C   UNL     1      -9.583  14.592  66.721  1.00  0.00    -0.274 A  
HETATM    5  C   UNL     1      -9.872  13.452  65.922  1.00  0.00    -0.251 A  
HETATM    6  C   UNL     1     -10.681  13.672  64.775  1.00  0.00    -0.420 A  
HETATM    7  C   UNL     1     -10.990  12.616  63.911  1.00  0.00    -0.468 A  
HETATM    8  C   UNL     1     -11.190  14.946  64.490  1.00  0.00    -0.273 A  
HETATM    9  C   UNL     1     -10.511  11.337  64.153  1.00  0.00    -0.431 A  
HETATM   10  C   UNL     1     -10.876  16.041  65.290  1.00  0.00    -0.376 A  
HETATM   11  C   UNL     1      -9.740  11.091  65.285  1.00  0.00    -0.286 A  
HETATM   12  C   UNL     1      -9.404  12.122  66.184  1.00  0.00    -0.198 A  
BRANCH  12  13
HETATM   13  C   UNL     1      -8.646  11.782  67.465  1.00  0.00    -0.157 C  
BRANCH  13  14
HETATM   14  C   UNL     1      -9.305  10.755  68.399  1.00  0.00    -0.167 C  
BRANCH  14  15
HETATM   15  N   UNL     1     -10.114  11.362  69.446  1.00  0.00    -0.424 N  
HETATM   16  C   UNL     1     -11.454  11.620  69.279  1.00  0.00    -0.300 C  
HETATM   17  H   UNL     1      -9.672  11.605  70.333  1.00  0.00     0.000 HD 
HETATM   18  C   UNL     1     -12.097  12.334  70.438  1.00  0.00    -0.385 C  
HETATM   19  O   UNL     1     -12.094  11.297  68.284  1.00  0.00    -0.619 OA 
ENDBRANCH  14  15
ENDBRANCH  13  14
ENDBRANCH  12  13
ENDBRANCH   2   3
TORSDOF 4
ENDMDL
MODEL       61
REMARK 921   NORMALIZED FREE ENERGY PREDICTED BY IDOCK:   -4.86 KCAL/MOL
REMARK 922        TOTAL FREE ENERGY PREDICTED BY IDOCK:   -6.44 KCAL/MOL
REMARK 923 INTER-LIGAND FREE ENERGY PREDICTED BY IDOCK:   -6.16 KCAL/MOL
REMARK 924 INTRA-LIGAND FREE ENERGY PREDICTED BY IDOCK:   -0.28 KCAL/MOL
REMARK 927      BINDING AFFINITY PREDICTED BY RF-SCORE:    0.00 PKD
ROOT
HETATM    1  C   UNL     1     -12.206   9.989  70.477  1.00  0.00    -0.222 C  
HETATM    2  O   UNL     1     -11.064   9.309  69.957  1.00  0.00    -0.235 OA 
ENDROOT
BRANCH   2   3
HETATM    3  C   UNL     1     -10.784   9.591  68.645  1.00  0.00    -0.184 A  
HETATM    4  C   UNL     1     -11.303  10.794  68.147  1.00  0.00    -0.377 A  
HETATM    5  C   UNL     1     -11.127  11.191  66.794  1.00  0.00    -0.280 A  
HETATM    6  C   UNL     1     -10.370  10.315  65.971  1.00  0.00    -0.248 A  
HETATM    7  C   UNL     1     -10.174  10.606  64.616  1.00  0.00    -0.404 A  
HETATM    8  C   UNL     1      -9.803   9.148  66.498  1.00  0.00    -0.333 A  
HETATM    9  C   UNL     1     -10.714  11.752  64.051  1.00  0.00    -0.434 A  
HETATM   10  C   UNL     1     -10.006   8.786  67.827  1.00  0.00    -0.243 A  
HETATM   11  C   UNL     1     -11.435  12.639  64.843  1.00  0.00    -0.361 A  
HETATM   12  C   UNL     1     -11.659  12.388  66.211  1.00  0.00    -0.449 A  
BRANCH  12  13
HETATM   13  C   UNL     1     -12.365  13.443  67.060  1.00  0.00    -0.231 C  
BRANCH  13  14
HETATM   14  C   UNL     1     -11.486  14.230  68.045  1.00  0.00    -0.314 C  
BRANCH  14  15
HETATM   15  N   UNL     1     -12.253  14.970  69.037  1.00  0.00    -0.577 N  
HETATM   16  C   UNL     1     -12.519  14.461  70.287  1.00  0.00    -0.354 C  
HETATM   17  H   UNL     1     -12.605  15.897  68.798  1.00  0.00     0.000 HD 
HETATM   18  C   UNL     1     -13.402  15.334  71.137  1.00  0.00    -0.568 C  
HETATM   19  O   UNL     1     -12.077  13.393  70.698  1.00  0.00    -0.346 OA 
ENDBRANCH  14  15
ENDBRANCH  13  14
ENDBRANCH  12  13
ENDBRANCH   2   3
TORSDOF 4
ENDMDL
MODEL       62
REMARK 921   NORMALIZED FREE ENERGY PREDICTED BY IDOCK:   -4.85 KCAL/MOL
REMARK 922        TOTAL FREE ENERGY PREDICTED BY IDOCK:   -6.42 KCAL/MOL
REMARK 923 INTER-LIGAND FREE ENERGY PREDICTED BY IDOCK:   -6.15 KCAL/MOL
REMARK 924 INTRA-LIGAND FREE ENERGY PREDICTED BY IDOCK:   -0.28 KCAL/MOL
REMARK 927      BINDING AFFINITY PREDICTED BY RF-SCORE:    0.00 PKD
ROOT
HETATM    1  C   UNL     1      -8.651   7.454  65.796  1.00  0.00    -0.136 C  
HETATM    2  O   UNL     1      -8.077   8.367  64.860  1.00  0.00    -0.134 OA 
ENDROOT
BRANCH   2   3
HETATM    3  C   UNL     1      -8.910   9.387  64.479  1.00  0.00    -0.198 A  
HETATM    4  C   UNL     1      -9.554  10.079  65.513  1.00  0.00    -0.328 A  
HETATM    5  C   UNL     1     -10.478  11.129  65.260  1.00  0.00    -0.326 A  
HETATM    6  C   UNL     1     -10.697  11.464  63.897  1.00  0.00    -0.462 A  
HETATM    7  C   UNL     1     -11.614  12.462  63.550  1.00  0.00    -0.577 A  
HETATM    8  C   UNL     1      -9.997  10.808  62.877  1.00  0.00    -0.229 A  
HETATM    9  C   UNL     1     -12.328  13.141  64.527  1.00  0.00    -0.447 A  
HETATM   10  C   UNL     1      -9.107   9.776  63.162  1.00  0.00    -0.270 A  
HETATM   11  C   UNL     1     -12.110  12.850  65.869  1.00  0.00    -0.503 A  
HETATM   12  C   UNL     1     -11.197  11.854  66.267  1.00  0.00    -0.392 A  
BRANCH  12  13
HETATM   13  C   UNL     1     -10.916  11.645  67.753  1.00  0.00    -0.287 C  
BRANCH  13  14
HETATM   14  C   UNL     1     -12.101  11.852  68.711  1.00  0.00    -0.124 C  
BRANCH  14  15
HETATM   15  N   UNL     1     -12.395  10.682  69.526  1.00  0.00    -0.548 N  
HETATM   16  C   UNL     1     -12.795  10.786  70.837  1.00  0.00    -0.351 C  
HETATM   17  H   UNL     1     -12.301   9.755  69.110  1.00  0.00     0.000 HD 
HETATM   18  C   UNL     1     -12.962   9.465  71.540  1.00  0.00    -0.449 C  
HETATM   19  O   UNL     1     -13.011  11.851  71.405  1.00  0.00    -0.385 OA 
ENDBRANCH  14  15
ENDBRANCH  13  14
ENDBRANCH  12  13
ENDBRANCH   2   3
TORSDOF 4
ENDMDL
MODEL       63
REMARK 921   NORMALIZED FREE ENERGY PREDICTED BY IDOCK:   -4.84 KCAL/MOL
REMARK 922        TOTAL FREE ENERGY PREDICTED BY IDOCK:   -6.41 KCAL/MOL
REMARK 923 INTER-LIGAND FREE ENERGY PREDICTED BY IDOCK:   -6.23 KCAL/MOL
REMARK 924 INTRA-LIGAND FREE ENERGY PREDICTED BY IDOCK:   -0.18 KCAL/MOL
REMARK 927      BINDING AFFINITY PREDICTED BY RF-SCORE:    0.00 PKD
ROOT
HETATM    1  C   UNL     1     -13.910   9.089  72.241  1.00  0.00    -0.484 C  
HETATM    2  O   UNL     1     -12.586   9.615  72.141  1.00  0.00    -0.362 OA 
ENDROOT
BRANCH   2   3
HETATM    3  C   UNL     1     -11.849   9.101  71.106  1.00  0.00    -0.307 A  
HETATM    4  C   UNL     1     -11.457  10.010  70.115  1.00  0.00    -0.344 A  
HETATM    5  C   UNL     1     -10.726   9.607  68.963  1.00  0.00    -0.232 A  
HETATM    6  C   UNL     1     -10.388   8.230  68.879  1.00  0.00    -0.230 A  
HETATM    7  C   UNL     1      -9.700   7.734  67.767  1.00  0.00    -0.186 A  
HETATM    8  C   UNL     1     -10.731   7.344  69.909  1.00  0.00    -0.254 A  
HETATM    9  C   UNL     1      -9.337   8.574  66.724  1.00  0.00    -0.232 A  
HETATM   10  C   UNL     1     -11.456   7.774  71.017  1.00  0.00    -0.298 A  
HETATM   11  C   UNL     1      -9.633   9.932  66.796  1.00  0.00    -0.231 A  
HETATM   12  C   UNL     1     -10.324  10.476  67.897  1.00  0.00    -0.226 A  
BRANCH  12  13
HETATM   13  C   UNL     1     -10.531  11.987  67.978  1.00  0.00    -0.224 C  
BRANCH  13  14
HETATM   14  C   UNL     1     -11.734  12.557  67.209  1.00  0.00    -0.362 C  
BRANCH  14  15
HETATM   15  N   UNL     1     -11.673  12.305  65.776  1.00  0.00    -0.401 N  
HETATM   16  C   UNL     1     -12.495  12.953  64.884  1.00  0.00    -0.478 C  
HETATM   17  H   UNL     1     -10.999  11.626  65.422  1.00  0.00     0.000 HD 
HETATM   18  C   UNL     1     -12.347  12.492  63.458  1.00  0.00    -0.623 C  
HETATM   19  O   UNL     1     -13.283  13.838  65.198  1.00  0.00    -0.757 OA 
ENDBRANCH  14  15
ENDBRANCH  13  14
ENDBRANCH  12  13
ENDBRANCH   2   3
TORSDOF 4
ENDMDL
MODEL       64
REMARK 921   NORMALIZED FREE ENERGY PREDICTED BY IDOCK:   -4.81 KCAL/MOL
REMARK 922        TOTAL FREE ENERGY PREDICTED BY IDOCK:   -6.37 KCAL/MOL
REMARK 923 INTER-LIGAND FREE ENERGY PREDICTED BY IDOCK:   -5.77 KCAL/MOL
REMARK 924 INTRA-LIGAND FREE ENERGY PREDICTED BY IDOCK:   -0.60 KCAL/MOL
REMARK 927      BINDING AFFINITY PREDICTED BY RF-SCORE:    0.00 PKD
ROOT
HETATM    1  C   UNL     1      -9.260   7.705  66.414  1.00  0.00    -0.175 C  
HETATM    2  O   UNL     1      -8.468   8.767  65.884  1.00  0.00    -0.127 OA 
ENDROOT
BRANCH   2   3
HETATM    3  C   UNL     1      -9.180   9.722  65.206  1.00  0.00    -0.238 A  
HETATM    4  C   UNL     1     -10.012  10.541  65.981  1.00  0.00    -0.295 A  
HETATM    5  C   UNL     1     -10.840  11.542  65.404  1.00  0.00    -0.318 A  
HETATM    6  C   UNL     1     -10.762  11.691  63.994  1.00  0.00    -0.442 A  
HETATM    7  C   UNL     1     -11.565  12.628  63.333  1.00  0.00    -0.536 A  
HETATM    8  C   UNL     1      -9.879  10.910  63.238  1.00  0.00    -0.409 A  
HETATM    9  C   UNL     1     -12.452  13.426  64.040  1.00  0.00    -0.310 A  
HETATM   10  C   UNL     1      -9.091   9.931  63.837  1.00  0.00    -0.298 A  
HETATM   11  C   UNL     1     -12.526  13.317  65.425  1.00  0.00    -0.543 A  
HETATM   12  C   UNL     1     -11.738  12.389  66.133  1.00  0.00    -0.460 A  
BRANCH  12  13
HETATM   13  C   UNL     1     -11.778  12.382  67.659  1.00  0.00    -0.412 C  
BRANCH  13  14
HETATM   14  C   UNL     1     -11.213  13.625  68.366  1.00  0.00    -0.276 C  
BRANCH  14  15
HETATM   15  N   UNL     1      -9.846  13.450  68.835  1.00  0.00    -0.426 N  
HETATM   16  C   UNL     1      -8.758  13.693  68.029  1.00  0.00    -0.176 C  
HETATM   17  H   UNL     1      -9.689  13.137  69.793  1.00  0.00     0.000 HD 
HETATM   18  C   UNL     1      -7.432  13.368  68.663  1.00  0.00    -0.104 C  
HETATM   19  O   UNL     1      -8.837  14.145  66.892  1.00  0.00    -0.227 OA 
ENDBRANCH  14  15
ENDBRANCH  13  14
ENDBRANCH  12  13
ENDBRANCH   2   3
TORSDOF 4
ENDMDL
MODEL       65
REMARK 921   NORMALIZED FREE ENERGY PREDICTED BY IDOCK:   -4.78 KCAL/MOL
REMARK 922        TOTAL FREE ENERGY PREDICTED BY IDOCK:   -6.34 KCAL/MOL
REMARK 923 INTER-LIGAND FREE ENERGY PREDICTED BY IDOCK:   -5.92 KCAL/MOL
REMARK 924 INTRA-LIGAND FREE ENERGY PREDICTED BY IDOCK:   -0.42 KCAL/MOL
REMARK 927      BINDING AFFINITY PREDICTED BY RF-SCORE:    0.00 PKD
ROOT
HETATM    1  C   UNL     1     -12.419   8.631  72.182  1.00  0.00    -0.389 C  
HETATM    2  O   UNL     1     -12.289   9.308  70.932  1.00  0.00    -0.264 OA 
ENDROOT
BRANCH   2   3
HETATM    3  C   UNL     1     -12.432  10.669  71.007  1.00  0.00    -0.413 A  
HETATM    4  C   UNL     1     -11.869  11.409  69.959  1.00  0.00    -0.440 A  
HETATM    5  C   UNL     1     -11.905  12.830  69.931  1.00  0.00    -0.371 A  
HETATM    6  C   UNL     1     -12.569  13.467  71.013  1.00  0.00    -0.438 A  
HETATM    7  C   UNL     1     -12.625  14.863  71.089  1.00  0.00    -0.404 A  
HETATM    8  C   UNL     1     -13.183  12.713  72.021  1.00  0.00    -0.531 A  
HETATM    9  C   UNL     1     -12.034  15.651  70.112  1.00  0.00    -0.387 A  
HETATM   10  C   UNL     1     -13.118  11.322  72.021  1.00  0.00    -0.431 A  
HETATM   11  C   UNL     1     -11.403  15.050  69.028  1.00  0.00    -0.306 A  
HETATM   12  C   UNL     1     -11.321  13.649  68.910  1.00  0.00    -0.332 A  
BRANCH  12  13
HETATM   13  C   UNL     1     -10.711  13.038  67.650  1.00  0.00    -0.239 C  
BRANCH  13  14
HETATM   14  C   UNL     1      -9.186  12.845  67.650  1.00  0.00    -0.193 C  
BRANCH  14  15
HETATM   15  N   UNL     1      -8.461  13.977  67.091  1.00  0.00    -0.287 N  
HETATM   16  C   UNL     1      -7.516  14.669  67.811  1.00  0.00    -0.166 C  
HETATM   17  H   UNL     1      -8.661  14.266  66.133  1.00  0.00     0.000 HD 
HETATM   18  C   UNL     1      -6.943  15.862  67.094  1.00  0.00    -0.227 C  
HETATM   19  O   UNL     1      -7.149  14.354  68.937  1.00  0.00    -0.104 OA 
ENDBRANCH  14  15
ENDBRANCH  13  14
ENDBRANCH  12  13
ENDBRANCH   2   3
TORSDOF 4
ENDMDL
MODEL       66
REMARK 921   NORMALIZED FREE ENERGY PREDICTED BY IDOCK:   -4.78 KCAL/MOL
REMARK 922        TOTAL FREE ENERGY PREDICTED BY IDOCK:   -6.34 KCAL/MOL
REMARK 923 INTER-LIGAND FREE ENERGY PREDICTED BY IDOCK:   -5.85 KCAL/MOL
REMARK 924 INTRA-LIGAND FREE ENERGY PREDICTED BY IDOCK:   -0.49 KCAL/MOL
REMARK 927      BINDING AFFINITY PREDICTED BY RF-SCORE:    0.00 PKD
ROOT
HETATM    1  C   UNL     1      -9.978  12.289  65.752  1.00  0.00    -0.254 C  
HETATM    2  O   UNL     1     -11.150  11.831  66.427  1.00  0.00    -0.287 OA 
ENDROOT
BRANCH   2   3
HETATM    3  C   UNL     1     -11.422  12.489  67.598  1.00  0.00    -0.334 A  
HETATM    4  C   UNL     1     -11.944  11.709  68.639  1.00  0.00    -0.311 A  
HETATM    5  C   UNL     1     -12.312  12.269  69.893  1.00  0.00    -0.121 A  
HETATM    6  C   UNL     1     -12.099  13.664  70.050  1.00  0.00    -0.417 A  
HETATM    7  C   UNL     1     -12.462  14.309  71.238  1.00  0.00    -0.439 A  
HETATM    8  C   UNL     1     -11.516  14.420  69.025  1.00  0.00    -0.314 A  
HETATM    9  C   UNL     1     -13.039  13.601  72.282  1.00  0.00    -0.491 A  
HETATM   10  C   UNL     1     -11.178  13.839  67.806  1.00  0.00    -0.312 A  
HETATM   11  C   UNL     1     -13.233  12.229  72.162  1.00  0.00    -0.466 A  
HETATM   12  C   UNL     1     -12.883  11.537  70.986  1.00  0.00    -0.358 A  
BRANCH  12  13
HETATM   13  C   UNL     1     -13.017  10.016  70.943  1.00  0.00    -0.397 C  
BRANCH  13  14
HETATM   14  C   UNL     1     -11.752   9.207  71.270  1.00  0.00    -0.326 C  
BRANCH  14  15
HETATM   15  N   UNL     1     -11.325   8.339  70.182  1.00  0.00    -0.439 N  
HETATM   16  C   UNL     1     -10.193   8.593  69.445  1.00  0.00    -0.210 C  
HETATM   17  H   UNL     1     -11.885   7.515  69.960  1.00  0.00     0.000 HD 
HETATM   18  C   UNL     1      -9.968   7.634  68.305  1.00  0.00    -0.198 C  
HETATM   19  O   UNL     1      -9.414   9.509  69.681  1.00  0.00    -0.173 OA 
ENDBRANCH  14  15
ENDBRANCH  13  14
ENDBRANCH  12  13
ENDBRANCH   2   3
TORSDOF 4
ENDMDL
MODEL       67
REMARK 921   NORMALIZED FREE ENERGY PREDICTED BY IDOCK:   -4.78 KCAL/MOL
REMARK 922        TOTAL FREE ENERGY PREDICTED BY IDOCK:   -6.33 KCAL/MOL
REMARK 923 INTER-LIGAND FREE ENERGY PREDICTED BY IDOCK:   -6.02 KCAL/MOL
REMARK 924 INTRA-LIGAND FREE ENERGY PREDICTED BY IDOCK:   -0.31 KCAL/MOL
REMARK 927      BINDING AFFINITY PREDICTED BY RF-SCORE:    0.00 PKD
ROOT
HETATM    1  C   UNL     1     -11.667  11.875  63.556  1.00  0.00    -0.452 C  
HETATM    2  O   UNL     1     -12.428  13.042  63.865  1.00  0.00    -0.606 OA 
ENDROOT
BRANCH   2   3
HETATM    3  C   UNL     1     -11.948  13.768  64.924  1.00  0.00    -0.390 A  
HETATM    4  C   UNL     1     -12.022  13.152  66.180  1.00  0.00    -0.478 A  
HETATM    5  C   UNL     1     -11.601  13.806  67.370  1.00  0.00    -0.393 A  
HETATM    6  C   UNL     1     -11.072  15.116  67.219  1.00  0.00    -0.332 A  
HETATM    7  C   UNL     1     -10.664  15.850  68.337  1.00  0.00    -0.281 A  
HETATM    8  C   UNL     1     -10.944  15.694  65.949  1.00  0.00    -0.231 A  
HETATM    9  C   UNL     1     -10.769  15.317  69.613  1.00  0.00    -0.289 A  
HETATM   10  C   UNL     1     -11.377  15.027  64.807  1.00  0.00    -0.409 A  
HETATM   11  C   UNL     1     -11.258  14.026  69.785  1.00  0.00    -0.175 A  
HETATM   12  C   UNL     1     -11.681  13.248  68.689  1.00  0.00    -0.376 A  
BRANCH  12  13
HETATM   13  C   UNL     1     -12.109  11.801  68.917  1.00  0.00    -0.238 C  
BRANCH  13  14
HETATM   14  C   UNL     1     -10.985  10.788  69.187  1.00  0.00    -0.244 C  
BRANCH  14  15
HETATM   15  N   UNL     1     -11.144   9.542  68.451  1.00  0.00    -0.482 N  
HETATM   16  C   UNL     1     -10.295   8.474  68.627  1.00  0.00    -0.198 C  
HETATM   17  H   UNL     1     -11.910   9.457  67.783  1.00  0.00     0.000 HD 
HETATM   18  C   UNL     1     -10.565   7.310  67.711  1.00  0.00    -0.289 C  
HETATM   19  O   UNL     1      -9.394   8.446  69.458  1.00  0.00    -0.157 OA 
ENDBRANCH  14  15
ENDBRANCH  13  14
ENDBRANCH  12  13
ENDBRANCH   2   3
TORSDOF 4
ENDMDL
MODEL       68
REMARK 921   NORMALIZED FREE ENERGY PREDICTED BY IDOCK:   -4.78 KCAL/MOL
REMARK 922        TOTAL FREE ENERGY PREDICTED BY IDOCK:   -6.33 KCAL/MOL
REMARK 923 INTER-LIGAND FREE ENERGY PREDICTED BY IDOCK:   -6.04 KCAL/MOL
REMARK 924 INTRA-LIGAND FREE ENERGY PREDICTED BY IDOCK:   -0.29 KCAL/MOL
REMARK 927      BINDING AFFINITY PREDICTED BY RF-SCORE:    0.00 PKD
ROOT
HETATM    1  C   UNL     1      -9.984  18.956  68.222  1.00  0.00    -0.376 C  
HETATM    2  O   UNL     1     -10.008  17.538  68.387  1.00  0.00    -0.296 OA 
ENDROOT
BRANCH   2   3
HETATM    3  C   UNL     1     -10.469  16.848  67.297  1.00  0.00    -0.301 A  
HETATM    4  C   UNL     1     -10.895  15.534  67.532  1.00  0.00    -0.306 A  
HETATM    5  C   UNL     1     -11.356  14.689  66.485  1.00  0.00    -0.353 A  
HETATM    6  C   UNL     1     -11.390  15.256  65.183  1.00  0.00    -0.321 A  
HETATM    7  C   UNL     1     -11.798  14.490  64.086  1.00  0.00    -0.290 A  
HETATM    8  C   UNL     1     -11.023  16.592  64.974  1.00  0.00    -0.222 A  
HETATM    9  C   UNL     1     -12.173  13.164  64.245  1.00  0.00    -0.463 A  
HETATM   10  C   UNL     1     -10.566  17.385  66.022  1.00  0.00    -0.210 A  
HETATM   11  C   UNL     1     -12.174  12.595  65.514  1.00  0.00    -0.501 A  
HETATM   12  C   UNL     1     -11.773  13.327  66.649  1.00  0.00    -0.425 A  
BRANCH  12  13
HETATM   13  C   UNL     1     -11.893  12.691  68.032  1.00  0.00    -0.376 C  
BRANCH  13  14
HETATM   14  C   UNL     1     -10.689  11.864  68.513  1.00  0.00    -0.224 C  
BRANCH  14  15
HETATM   15  N   UNL     1     -10.880  11.283  69.834  1.00  0.00    -0.466 N  
HETATM   16  C   UNL     1     -10.779   9.930  70.060  1.00  0.00    -0.292 C  
HETATM   17  H   UNL     1     -11.097  11.899  70.618  1.00  0.00     0.000 HD 
HETATM   18  C   UNL     1     -11.100   9.512  71.471  1.00  0.00    -0.406 C  
HETATM   19  O   UNL     1     -10.448   9.117  69.205  1.00  0.00    -0.212 OA 
ENDBRANCH  14  15
ENDBRANCH  13  14
ENDBRANCH  12  13
ENDBRANCH   2   3
TORSDOF 4
ENDMDL
MODEL       69
REMARK 921   NORMALIZED FREE ENERGY PREDICTED BY IDOCK:   -4.74 KCAL/MOL
REMARK 922        TOTAL FREE ENERGY PREDICTED BY IDOCK:   -6.28 KCAL/MOL
REMARK 923 INTER-LIGAND FREE ENERGY PREDICTED BY IDOCK:   -5.94 KCAL/MOL
REMARK 924 INTRA-LIGAND FREE ENERGY PREDICTED BY IDOCK:   -0.34 KCAL/MOL
REMARK 927      BINDING AFFINITY PREDICTED BY RF-SCORE:    0.00 PKD
ROOT
HETATM    1  C   UNL     1      -9.692   8.604  70.638  1.00  0.00    -0.184 C  
HETATM    2  O   UNL     1     -10.581   9.721  70.626  1.00  0.00    -0.292 OA 
ENDROOT
BRANCH   2   3
HETATM    3  C   UNL     1     -10.761  10.288  69.391  1.00  0.00    -0.241 A  
HETATM    4  C   UNL     1     -11.158  11.632  69.379  1.00  0.00    -0.268 A  
HETATM    5  C   UNL     1     -11.423  12.332  68.171  1.00  0.00    -0.371 A  
HETATM    6  C   UNL     1     -11.238  11.605  66.965  1.00  0.00    -0.376 A  
HETATM    7  C   UNL     1     -11.508  12.201  65.728  1.00  0.00    -0.414 A  
HETATM    8  C   UNL     1     -10.779  10.282  66.989  1.00  0.00    -0.281 A  
HETATM    9  C   UNL     1     -11.961  13.510  65.654  1.00  0.00    -0.429 A  
HETATM   10  C   UNL     1     -10.540   9.625  68.193  1.00  0.00    -0.273 A  
HETATM   11  C   UNL     1     -12.123  14.251  66.820  1.00  0.00    -0.446 A  
HETATM   12  C   UNL     1     -11.865  13.694  68.088  1.00  0.00    -0.407 A  
BRANCH  12  13
HETATM   13  C   UNL     1     -11.955  14.579  69.328  1.00  0.00    -0.355 C  
BRANCH  13  14
HETATM   14  C   UNL     1     -10.705  15.405  69.674  1.00  0.00    -0.276 C  
BRANCH  14  15
HETATM   15  N   UNL     1     -10.836  16.816  69.339  1.00  0.00    -0.312 N  
HETATM   16  C   UNL     1      -9.794  17.544  68.816  1.00  0.00    -0.326 C  
HETATM   17  H   UNL     1     -11.731  17.280  69.497  1.00  0.00     0.000 HD 
HETATM   18  C   UNL     1     -10.095  19.007  68.622  1.00  0.00    -0.449 C  
HETATM   19  O   UNL     1      -8.706  17.064  68.517  1.00  0.00    -0.237 OA 
ENDBRANCH  14  15
ENDBRANCH  13  14
ENDBRANCH  12  13
ENDBRANCH   2   3
TORSDOF 4
ENDMDL
MODEL       70
REMARK 921   NORMALIZED FREE ENERGY PREDICTED BY IDOCK:   -4.73 KCAL/MOL
REMARK 922        TOTAL FREE ENERGY PREDICTED BY IDOCK:   -6.28 KCAL/MOL
REMARK 923 INTER-LIGAND FREE ENERGY PREDICTED BY IDOCK:   -6.02 KCAL/MOL
REMARK 924 INTRA-LIGAND FREE ENERGY PREDICTED BY IDOCK:   -0.26 KCAL/MOL
REMARK 927      BINDING AFFINITY PREDICTED BY RF-SCORE:    0.00 PKD
ROOT
HETATM    1  C   UNL     1      -9.590   8.316  72.599  1.00  0.00    -0.282 C  
HETATM    2  O   UNL     1      -9.930   7.557  71.439  1.00  0.00    -0.184 OA 
ENDROOT
BRANCH   2   3
HETATM    3  C   UNL     1     -10.043   8.297  70.291  1.00  0.00    -0.192 A  
HETATM    4  C   UNL     1     -10.740   9.508  70.401  1.00  0.00    -0.341 A  
HETATM    5  C   UNL     1     -10.971  10.354  69.282  1.00  0.00    -0.287 A  
HETATM    6  C   UNL     1     -10.433   9.921  68.041  1.00  0.00    -0.266 A  
HETATM    7  C   UNL     1     -10.638  10.671  66.878  1.00  0.00    -0.311 A  
HETATM    8  C   UNL     1      -9.683   8.740  67.958  1.00  0.00    -0.183 A  
HETATM    9  C   UNL     1     -11.372  11.847  66.912  1.00  0.00    -0.392 A  
HETATM   10  C   UNL     1      -9.487   7.932  69.074  1.00  0.00    -0.151 A  
HETATM   11  C   UNL     1     -11.885  12.306  68.121  1.00  0.00    -0.372 A  
HETATM   12  C   UNL     1     -11.704  11.585  69.318  1.00  0.00    -0.397 A  
BRANCH  12  13
HETATM   13  C   UNL     1     -12.195  12.183  70.634  1.00  0.00    -0.392 C  
BRANCH  13  14
HETATM   14  C   UNL     1     -12.272  13.717  70.704  1.00  0.00    -0.360 C  
BRANCH  14  15
HETATM   15  N   UNL     1     -12.490  14.222  72.052  1.00  0.00    -0.294 N  
HETATM   16  C   UNL     1     -12.118  15.491  72.428  1.00  0.00    -0.433 C  
HETATM   17  H   UNL     1     -12.934  13.614  72.741  1.00  0.00     0.000 HD 
HETATM   18  C   UNL     1     -12.343  15.797  73.885  1.00  0.00    -0.723 C  
HETATM   19  O   UNL     1     -11.650  16.322  71.658  1.00  0.00    -0.458 OA 
ENDBRANCH  14  15
ENDBRANCH  13  14
ENDBRANCH  12  13
ENDBRANCH   2   3
TORSDOF 4
ENDMDL
MODEL       71
REMARK 921   NORMALIZED FREE ENERGY PREDICTED BY IDOCK:   -4.70 KCAL/MOL
REMARK 922        TOTAL FREE ENERGY PREDICTED BY IDOCK:   -6.24 KCAL/MOL
REMARK 923 INTER-LIGAND FREE ENERGY PREDICTED BY IDOCK:   -5.87 KCAL/MOL
REMARK 924 INTRA-LIGAND FREE ENERGY PREDICTED BY IDOCK:   -0.36 KCAL/MOL
REMARK 927      BINDING AFFINITY PREDICTED BY RF-SCORE:    0.00 PKD
ROOT
HETATM    1  C   UNL     1     -11.112   8.926  70.263  1.00  0.00    -0.228 C  
HETATM    2  O   UNL     1     -12.322   9.344  70.895  1.00  0.00    -0.274 OA 
ENDROOT
BRANCH   2   3
HETATM    3  C   UNL     1     -12.481  10.703  70.974  1.00  0.00    -0.413 A  
HETATM    4  C   UNL     1     -11.991  11.446  69.892  1.00  0.00    -0.434 A  
HETATM    5  C   UNL     1     -12.050  12.867  69.861  1.00  0.00    -0.335 A  
HETATM    6  C   UNL     1     -12.658  13.499  70.978  1.00  0.00    -0.438 A  
HETATM    7  C   UNL     1     -12.730  14.894  71.052  1.00  0.00    -0.412 A  
HETATM    8  C   UNL     1     -13.201  12.740  72.023  1.00  0.00    -0.538 A  
HETATM    9  C   UNL     1     -12.209  15.687  70.040  1.00  0.00    -0.351 A  
HETATM   10  C   UNL     1     -13.116  11.351  72.023  1.00  0.00    -0.423 A  
HETATM   11  C   UNL     1     -11.633  15.090  68.923  1.00  0.00    -0.349 A  
HETATM   12  C   UNL     1     -11.537  13.689  68.805  1.00  0.00    -0.359 A  
BRANCH  12  13
HETATM   13  C   UNL     1     -10.994  13.082  67.514  1.00  0.00    -0.282 C  
BRANCH  13  14
HETATM   14  C   UNL     1      -9.499  13.303  67.228  1.00  0.00    -0.233 C  
BRANCH  14  15
HETATM   15  N   UNL     1      -8.938  12.326  66.306  1.00  0.00    -0.393 N  
HETATM   16  C   UNL     1      -8.322  11.177  66.743  1.00  0.00    -0.152 C  
HETATM   17  H   UNL     1      -9.004  12.499  65.303  1.00  0.00     0.000 HD 
HETATM   18  C   UNL     1      -7.725  10.337  65.645  1.00  0.00    -0.148 C  
HETATM   19  O   UNL     1      -8.260  10.839  67.921  1.00  0.00    -0.110 OA 
ENDBRANCH  14  15
ENDBRANCH  13  14
ENDBRANCH  12  13
ENDBRANCH   2   3
TORSDOF 4
ENDMDL
MODEL       72
REMARK 921   NORMALIZED FREE ENERGY PREDICTED BY IDOCK:   -4.69 KCAL/MOL
REMARK 922        TOTAL FREE ENERGY PREDICTED BY IDOCK:   -6.23 KCAL/MOL
REMARK 923 INTER-LIGAND FREE ENERGY PREDICTED BY IDOCK:   -5.86 KCAL/MOL
REMARK 924 INTRA-LIGAND FREE ENERGY PREDICTED BY IDOCK:   -0.37 KCAL/MOL
REMARK 927      BINDING AFFINITY PREDICTED BY RF-SCORE:    0.00 PKD
ROOT
HETATM    1  C   UNL     1     -13.291   9.678  71.786  1.00  0.00    -0.419 C  
HETATM    2  O   UNL     1     -11.878   9.473  71.754  1.00  0.00    -0.377 OA 
ENDROOT
BRANCH   2   3
HETATM    3  C   UNL     1     -11.362   9.278  70.500  1.00  0.00    -0.258 A  
HETATM    4  C   UNL     1     -11.464  10.358  69.613  1.00  0.00    -0.326 A  
HETATM    5  C   UNL     1     -11.010  10.279  68.268  1.00  0.00    -0.315 A  
HETATM    6  C   UNL     1     -10.418   9.050  67.872  1.00  0.00    -0.291 A  
HETATM    7  C   UNL     1      -9.973   8.868  66.558  1.00  0.00    -0.358 A  
HETATM    8  C   UNL     1     -10.264   8.001  68.787  1.00  0.00    -0.220 A  
HETATM    9  C   UNL     1     -10.102   9.880  65.618  1.00  0.00    -0.307 A  
HETATM   10  C   UNL     1     -10.731   8.111  70.093  1.00  0.00    -0.243 A  
HETATM   11  C   UNL     1     -10.653  11.102  65.990  1.00  0.00    -0.298 A  
HETATM   12  C   UNL     1     -11.115  11.332  67.301  1.00  0.00    -0.367 A  
BRANCH  12  13
HETATM   13  C   UNL     1     -11.613  12.722  67.686  1.00  0.00    -0.412 C  
BRANCH  13  14
HETATM   14  C   UNL     1     -10.663  13.896  67.396  1.00  0.00    -0.272 C  
BRANCH  14  15
HETATM   15  N   UNL     1     -11.233  14.890  66.497  1.00  0.00    -0.343 N  
HETATM   16  C   UNL     1     -10.913  14.938  65.161  1.00  0.00    -0.399 C  
HETATM   17  H   UNL     1     -11.892  15.573  66.871  1.00  0.00     0.000 HD 
HETATM   18  C   UNL     1     -11.532  16.091  64.416  1.00  0.00    -0.246 C  
HETATM   19  O   UNL     1     -10.195  14.117  64.600  1.00  0.00    -0.408 OA 
ENDBRANCH  14  15
ENDBRANCH  13  14
ENDBRANCH  12  13
ENDBRANCH   2   3
TORSDOF 4
ENDMDL
MODEL       73
REMARK 921   NORMALIZED FREE ENERGY PREDICTED BY IDOCK:   -4.68 KCAL/MOL
REMARK 922        TOTAL FREE ENERGY PREDICTED BY IDOCK:   -6.21 KCAL/MOL
REMARK 923 INTER-LIGAND FREE ENERGY PREDICTED BY IDOCK:   -5.81 KCAL/MOL
REMARK 924 INTRA-LIGAND FREE ENERGY PREDICTED BY IDOCK:   -0.40 KCAL/MOL
REMARK 927      BINDING AFFINITY PREDICTED BY RF-SCORE:    0.00 PKD
ROOT
HETATM    1  C   UNL     1      -6.604  19.393  69.098  1.00  0.00    -0.322 C  
HETATM    2  O   UNL     1      -6.947  18.018  69.267  1.00  0.00    -0.241 OA 
ENDROOT
BRANCH   2   3
HETATM    3  C   UNL     1      -7.759  17.512  68.286  1.00  0.00    -0.247 A  
HETATM    4  C   UNL     1      -8.802  16.680  68.714  1.00  0.00    -0.264 A  
HETATM    5  C   UNL     1      -9.693  16.052  67.801  1.00  0.00    -0.221 A  
HETATM    6  C   UNL     1      -9.489  16.333  66.423  1.00  0.00    -0.322 A  
HETATM    7  C   UNL     1     -10.295  15.733  65.449  1.00  0.00    -0.417 A  
HETATM    8  C   UNL     1      -8.483  17.218  66.014  1.00  0.00    -0.136 A  
HETATM    9  C   UNL     1     -11.305  14.853  65.807  1.00  0.00    -0.314 A  
HETATM   10  C   UNL     1      -7.623  17.806  66.937  1.00  0.00    -0.238 A  
HETATM   11  C   UNL     1     -11.542  14.584  67.151  1.00  0.00    -0.406 A  
HETATM   12  C   UNL     1     -10.757  15.164  68.167  1.00  0.00    -0.254 A  
BRANCH  12  13
HETATM   13  C   UNL     1     -11.124  14.920  69.629  1.00  0.00    -0.298 C  
BRANCH  13  14
HETATM   14  C   UNL     1     -12.312  13.979  69.890  1.00  0.00    -0.310 C  
BRANCH  14  15
HETATM   15  N   UNL     1     -11.935  12.751  70.575  1.00  0.00    -0.532 N  
HETATM   16  C   UNL     1     -11.905  11.535  69.933  1.00  0.00    -0.355 C  
HETATM   17  H   UNL     1     -11.684  12.794  71.563  1.00  0.00     0.000 HD 
HETATM   18  C   UNL     1     -11.580  10.369  70.830  1.00  0.00    -0.450 C  
HETATM   19  O   UNL     1     -12.113  11.389  68.734  1.00  0.00    -0.480 OA 
ENDBRANCH  14  15
ENDBRANCH  13  14
ENDBRANCH  12  13
ENDBRANCH   2   3
TORSDOF 4
ENDMDL
MODEL       74
REMARK 921   NORMALIZED FREE ENERGY PREDICTED BY IDOCK:   -4.67 KCAL/MOL
REMARK 922        TOTAL FREE ENERGY PREDICTED BY IDOCK:   -6.20 KCAL/MOL
REMARK 923 INTER-LIGAND FREE ENERGY PREDICTED BY IDOCK:   -5.92 KCAL/MOL
REMARK 924 INTRA-LIGAND FREE ENERGY PREDICTED BY IDOCK:   -0.28 KCAL/MOL
REMARK 927      BINDING AFFINITY PREDICTED BY RF-SCORE:    0.00 PKD
ROOT
HETATM    1  C   UNL     1      -8.326   7.034  68.700  1.00  0.00    -0.122 C  
HETATM    2  O   UNL     1      -9.477   7.808  69.036  1.00  0.00    -0.150 OA 
ENDROOT
BRANCH   2   3
HETATM    3  C   UNL     1      -9.826   8.743  68.097  1.00  0.00    -0.168 A  
HETATM    4  C   UNL     1     -10.497   9.877  68.571  1.00  0.00    -0.232 A  
HETATM    5  C   UNL     1     -10.955  10.905  67.703  1.00  0.00    -0.350 A  
HETATM    6  C   UNL     1     -10.673  10.737  66.321  1.00  0.00    -0.205 A  
HETATM    7  C   UNL     1     -11.115  11.680  65.386  1.00  0.00    -0.299 A  
HETATM    8  C   UNL     1      -9.945   9.630  65.867  1.00  0.00    -0.351 A  
HETATM    9  C   UNL     1     -11.838  12.794  65.789  1.00  0.00    -0.484 A  
HETATM   10  C   UNL     1      -9.521   8.638  66.747  1.00  0.00    -0.250 A  
HETATM   11  C   UNL     1     -12.102  12.994  67.139  1.00  0.00    -0.325 A  
HETATM   12  C   UNL     1     -11.678  12.072  68.117  1.00  0.00    -0.398 A  
BRANCH  12  13
HETATM   13  C   UNL     1     -11.900  12.390  69.593  1.00  0.00    -0.380 C  
BRANCH  13  14
HETATM   14  C   UNL     1     -12.399  13.807  69.922  1.00  0.00    -0.275 C  
BRANCH  14  15
HETATM   15  N   UNL     1     -12.120  14.213  71.292  1.00  0.00    -0.420 N  
HETATM   16  C   UNL     1     -13.116  14.368  72.227  1.00  0.00    -0.389 C  
HETATM   17  H   UNL     1     -11.153  14.387  71.568  1.00  0.00     0.000 HD 
HETATM   18  C   UNL     1     -12.640  14.880  73.561  1.00  0.00    -0.622 C  
HETATM   19  O   UNL     1     -14.296  14.109  72.018  1.00  0.00    -0.503 OA 
ENDBRANCH  14  15
ENDBRANCH  13  14
ENDBRANCH  12  13
ENDBRANCH   2   3
TORSDOF 4
ENDMDL
MODEL       75
REMARK 921   NORMALIZED FREE ENERGY PREDICTED BY IDOCK:   -4.66 KCAL/MOL
REMARK 922        TOTAL FREE ENERGY PREDICTED BY IDOCK:   -6.18 KCAL/MOL
REMARK 923 INTER-LIGAND FREE ENERGY PREDICTED BY IDOCK:   -5.80 KCAL/MOL
REMARK 924 INTRA-LIGAND FREE ENERGY PREDICTED BY IDOCK:   -0.38 KCAL/MOL
REMARK 927      BINDING AFFINITY PREDICTED BY RF-SCORE:    0.00 PKD
ROOT
HETATM    1  C   UNL     1     -10.418   6.984  68.294  1.00  0.00    -0.202 C  
HETATM    2  O   UNL     1     -10.282   7.126  69.708  1.00  0.00    -0.198 OA 
ENDROOT
BRANCH   2   3
HETATM    3  C   UNL     1     -11.024   8.144  70.248  1.00  0.00    -0.240 A  
HETATM    4  C   UNL     1     -10.923   9.389  69.613  1.00  0.00    -0.216 A  
HETATM    5  C   UNL     1     -11.603  10.541  70.093  1.00  0.00    -0.408 A  
HETATM    6  C   UNL     1     -12.418  10.362  71.242  1.00  0.00    -0.521 A  
HETATM    7  C   UNL     1     -13.099  11.447  71.806  1.00  0.00    -0.523 A  
HETATM    8  C   UNL     1     -12.561   9.098  71.829  1.00  0.00    -0.446 A  
HETATM    9  C   UNL     1     -12.990  12.716  71.258  1.00  0.00    -0.306 A  
HETATM   10  C   UNL     1     -11.871   7.994  71.337  1.00  0.00    -0.326 A  
HETATM   11  C   UNL     1     -12.219  12.911  70.116  1.00  0.00    -0.336 A  
HETATM   12  C   UNL     1     -11.516  11.850  69.513  1.00  0.00    -0.357 A  
BRANCH  12  13
HETATM   13  C   UNL     1     -10.772  12.093  68.203  1.00  0.00    -0.238 C  
BRANCH  13  14
HETATM   14  C   UNL     1      -9.728  13.222  68.206  1.00  0.00    -0.225 C  
BRANCH  14  15
HETATM   15  N   UNL     1      -9.776  14.055  67.014  1.00  0.00    -0.248 N  
HETATM   16  C   UNL     1     -10.589  15.161  66.925  1.00  0.00    -0.297 C  
HETATM   17  H   UNL     1      -9.186  13.811  66.217  1.00  0.00     0.000 HD 
HETATM   18  C   UNL     1     -10.567  15.839  65.581  1.00  0.00    -0.393 C  
HETATM   19  O   UNL     1     -11.274  15.582  67.850  1.00  0.00    -0.319 OA 
ENDBRANCH  14  15
ENDBRANCH  13  14
ENDBRANCH  12  13
ENDBRANCH   2   3
TORSDOF 4
ENDMDL
MODEL       76
REMARK 921   NORMALIZED FREE ENERGY PREDICTED BY IDOCK:   -4.64 KCAL/MOL
REMARK 922        TOTAL FREE ENERGY PREDICTED BY IDOCK:   -6.16 KCAL/MOL
REMARK 923 INTER-LIGAND FREE ENERGY PREDICTED BY IDOCK:   -5.66 KCAL/MOL
REMARK 924 INTRA-LIGAND FREE ENERGY PREDICTED BY IDOCK:   -0.50 KCAL/MOL
REMARK 927      BINDING AFFINITY PREDICTED BY RF-SCORE:    0.00 PKD
ROOT
HETATM    1  C   UNL     1      -9.535  10.963  68.572  1.00  0.00    -0.185 C  
HETATM    2  O   UNL     1      -8.502  11.930  68.382  1.00  0.00    -0.162 OA 
ENDROOT
BRANCH   2   3
HETATM    3  C   UNL     1      -8.902  13.066  67.727  1.00  0.00    -0.188 A  
HETATM    4  C   UNL     1      -9.998  12.929  66.865  1.00  0.00    -0.238 A  
HETATM    5  C   UNL     1     -10.492  14.015  66.090  1.00  0.00    -0.297 A  
HETATM    6  C   UNL     1      -9.831  15.261  66.255  1.00  0.00    -0.316 A  
HETATM    7  C   UNL     1     -10.225  16.378  65.509  1.00  0.00    -0.296 A  
HETATM    8  C   UNL     1      -8.779  15.399  67.169  1.00  0.00    -0.243 A  
HETATM    9  C   UNL     1     -11.264  16.290  64.595  1.00  0.00    -0.264 A  
HETATM   10  C   UNL     1      -8.316  14.310  67.903  1.00  0.00    -0.162 A  
HETATM   11  C   UNL     1     -11.944  15.087  64.436  1.00  0.00    -0.366 A  
HETATM   12  C   UNL     1     -11.584  13.936  65.164  1.00  0.00    -0.340 A  
BRANCH  12  13
HETATM   13  C   UNL     1     -12.427  12.671  65.032  1.00  0.00    -0.556 C  
BRANCH  13  14
HETATM   14  C   UNL     1     -12.461  12.011  63.644  1.00  0.00    -0.525 C  
BRANCH  14  15
HETATM   15  N   UNL     1     -11.152  11.929  63.013  1.00  0.00    -0.663 N  
HETATM   16  C   UNL     1     -10.180  11.063  63.454  1.00  0.00    -0.346 C  
HETATM   17  H   UNL     1     -10.950  12.533  62.216  1.00  0.00     0.000 HD 
HETATM   18  C   UNL     1      -8.864  11.189  62.733  1.00  0.00    -0.274 C  
HETATM   19  O   UNL     1     -10.349  10.244  64.351  1.00  0.00    -0.235 OA 
ENDBRANCH  14  15
ENDBRANCH  13  14
ENDBRANCH  12  13
ENDBRANCH   2   3
TORSDOF 4
ENDMDL
MODEL       77
REMARK 921   NORMALIZED FREE ENERGY PREDICTED BY IDOCK:   -4.62 KCAL/MOL
REMARK 922        TOTAL FREE ENERGY PREDICTED BY IDOCK:   -6.14 KCAL/MOL
REMARK 923 INTER-LIGAND FREE ENERGY PREDICTED BY IDOCK:   -5.98 KCAL/MOL
REMARK 924 INTRA-LIGAND FREE ENERGY PREDICTED BY IDOCK:   -0.16 KCAL/MOL
REMARK 927      BINDING AFFINITY PREDICTED BY RF-SCORE:    0.00 PKD
ROOT
HETATM    1  C   UNL     1     -12.381  14.584  64.474  1.00  0.00    -0.414 C  
HETATM    2  O   UNL     1     -12.282  13.458  65.345  1.00  0.00    -0.397 OA 
ENDROOT
BRANCH   2   3
HETATM    3  C   UNL     1     -11.438  12.472  64.904  1.00  0.00    -0.325 A  
HETATM    4  C   UNL     1     -11.111  11.476  65.834  1.00  0.00    -0.274 A  
HETATM    5  C   UNL     1     -10.212  10.418  65.525  1.00  0.00    -0.316 A  
HETATM    6  C   UNL     1      -9.678  10.406  64.209  1.00  0.00    -0.389 A  
HETATM    7  C   UNL     1      -8.760   9.423  63.825  1.00  0.00    -0.223 A  
HETATM    8  C   UNL     1     -10.064  11.371  63.270  1.00  0.00    -0.424 A  
HETATM    9  C   UNL     1      -8.351   8.445  64.720  1.00  0.00    -0.151 A  
HETATM   10  C   UNL     1     -10.939  12.398  63.612  1.00  0.00    -0.525 A  
HETATM   11  C   UNL     1      -8.881   8.420  66.006  1.00  0.00    -0.202 A  
HETATM   12  C   UNL     1      -9.808   9.389  66.438  1.00  0.00    -0.337 A  
BRANCH  12  13
HETATM   13  C   UNL     1     -10.440   9.257  67.821  1.00  0.00    -0.313 C  
BRANCH  13  14
HETATM   14  C   UNL     1      -9.945  10.236  68.898  1.00  0.00    -0.201 C  
BRANCH  14  15
HETATM   15  N   UNL     1     -10.692  10.149  70.144  1.00  0.00    -0.291 N  
HETATM   16  C   UNL     1     -11.985  10.602  70.256  1.00  0.00    -0.339 C  
HETATM   17  H   UNL     1     -10.241   9.737  70.962  1.00  0.00     0.000 HD 
HETATM   18  C   UNL     1     -12.556  10.509  71.646  1.00  0.00    -0.498 C  
HETATM   19  O   UNL     1     -12.640  11.040  69.316  1.00  0.00    -0.361 OA 
ENDBRANCH  14  15
ENDBRANCH  13  14
ENDBRANCH  12  13
ENDBRANCH   2   3
TORSDOF 4
ENDMDL
MODEL       78
REMARK 921   NORMALIZED FREE ENERGY PREDICTED BY IDOCK:   -4.61 KCAL/MOL
REMARK 922        TOTAL FREE ENERGY PREDICTED BY IDOCK:   -6.13 KCAL/MOL
REMARK 923 INTER-LIGAND FREE ENERGY PREDICTED BY IDOCK:   -5.68 KCAL/MOL
REMARK 924 INTRA-LIGAND FREE ENERGY PREDICTED BY IDOCK:   -0.45 KCAL/MOL
REMARK 927      BINDING AFFINITY PREDICTED BY RF-SCORE:    0.00 PKD
ROOT
HETATM    1  C   UNL     1      -8.590   8.298  67.520  1.00  0.00    -0.129 C  
HETATM    2  O   UNL     1      -9.919   8.394  68.033  1.00  0.00    -0.167 OA 
ENDROOT
BRANCH   2   3
HETATM    3  C   UNL     1     -10.380   9.677  68.176  1.00  0.00    -0.209 A  
HETATM    4  C   UNL     1     -10.752  10.336  66.997  1.00  0.00    -0.281 A  
HETATM    5  C   UNL     1     -11.206  11.683  66.993  1.00  0.00    -0.376 A  
HETATM    6  C   UNL     1     -11.290  12.325  68.257  1.00  0.00    -0.339 A  
HETATM    7  C   UNL     1     -11.694  13.661  68.349  1.00  0.00    -0.393 A  
HETATM    8  C   UNL     1     -10.977  11.634  69.434  1.00  0.00    -0.211 A  
HETATM    9  C   UNL     1     -12.018  14.385  67.211  1.00  0.00    -0.409 A  
HETATM   10  C   UNL     1     -10.525  10.318  69.397  1.00  0.00    -0.259 A  
HETATM   11  C   UNL     1     -11.970  13.770  65.964  1.00  0.00    -0.443 A  
HETATM   12  C   UNL     1     -11.569  12.427  65.822  1.00  0.00    -0.449 A  
BRANCH  12  13
HETATM   13  C   UNL     1     -11.634  11.767  64.447  1.00  0.00    -0.325 C  
BRANCH  13  14
HETATM   14  C   UNL     1     -10.387  11.907  63.559  1.00  0.00    -0.458 C  
BRANCH  14  15
HETATM   15  N   UNL     1     -10.024  10.674  62.877  1.00  0.00    -0.670 N  
HETATM   16  C   UNL     1      -8.954   9.906  63.272  1.00  0.00    -0.257 C  
HETATM   17  H   UNL     1     -10.581  10.369  62.079  1.00  0.00     0.000 HD 
HETATM   18  C   UNL     1      -8.682   8.718  62.387  1.00  0.00    -0.150 C  
HETATM   19  O   UNL     1      -8.270  10.144  64.262  1.00  0.00    -0.156 OA 
ENDBRANCH  14  15
ENDBRANCH  13  14
ENDBRANCH  12  13
ENDBRANCH   2   3
TORSDOF 4
ENDMDL
MODEL       79
REMARK 921   NORMALIZED FREE ENERGY PREDICTED BY IDOCK:   -4.61 KCAL/MOL
REMARK 922        TOTAL FREE ENERGY PREDICTED BY IDOCK:   -6.13 KCAL/MOL
REMARK 923 INTER-LIGAND FREE ENERGY PREDICTED BY IDOCK:   -6.06 KCAL/MOL
REMARK 924 INTRA-LIGAND FREE ENERGY PREDICTED BY IDOCK:   -0.07 KCAL/MOL
REMARK 927      BINDING AFFINITY PREDICTED BY RF-SCORE:    0.00 PKD
ROOT
HETATM    1  C   UNL     1     -11.540  15.794  70.082  1.00  0.00    -0.357 C  
HETATM    2  O   UNL     1     -12.462  14.703  70.051  1.00  0.00    -0.326 OA 
ENDROOT
BRANCH   2   3
HETATM    3  C   UNL     1     -12.083  13.664  69.242  1.00  0.00    -0.314 A  
HETATM    4  C   UNL     1     -11.839  12.441  69.879  1.00  0.00    -0.376 A  
HETATM    5  C   UNL     1     -11.399  11.291  69.168  1.00  0.00    -0.349 A  
HETATM    6  C   UNL     1     -11.242  11.438  67.764  1.00  0.00    -0.346 A  
HETATM    7  C   UNL     1     -10.779  10.371  66.985  1.00  0.00    -0.298 A  
HETATM    8  C   UNL     1     -11.551  12.649  67.131  1.00  0.00    -0.434 A  
HETATM    9  C   UNL     1     -10.463   9.152  67.568  1.00  0.00    -0.335 A  
HETATM   10  C   UNL     1     -11.970  13.756  67.862  1.00  0.00    -0.391 A  
HETATM   11  C   UNL     1     -10.635   8.976  68.936  1.00  0.00    -0.203 A  
HETATM   12  C   UNL     1     -11.098  10.021  69.760  1.00  0.00    -0.319 A  
BRANCH  12  13
HETATM   13  C   UNL     1     -11.370   9.746  71.237  1.00  0.00    -0.445 C  
BRANCH  13  14
HETATM   14  C   UNL     1     -11.414   8.269  71.663  1.00  0.00    -0.278 C  
BRANCH  14  15
HETATM   15  N   UNL     1     -10.594   7.982  72.831  1.00  0.00    -0.356 N  
HETATM   16  C   UNL     1      -9.250   8.267  72.870  1.00  0.00    -0.259 C  
HETATM   17  H   UNL     1     -11.032   7.555  73.649  1.00  0.00     0.000 HD 
HETATM   18  C   UNL     1      -8.556   7.813  74.127  1.00  0.00    -0.307 C  
HETATM   19  O   UNL     1      -8.647   8.848  71.974  1.00  0.00    -0.367 OA 
ENDBRANCH  14  15
ENDBRANCH  13  14
ENDBRANCH  12  13
ENDBRANCH   2   3
TORSDOF 4
ENDMDL
MODEL       80
REMARK 921   NORMALIZED FREE ENERGY PREDICTED BY IDOCK:   -4.61 KCAL/MOL
REMARK 922        TOTAL FREE ENERGY PREDICTED BY IDOCK:   -6.12 KCAL/MOL
REMARK 923 INTER-LIGAND FREE ENERGY PREDICTED BY IDOCK:   -5.70 KCAL/MOL
REMARK 924 INTRA-LIGAND FREE ENERGY PREDICTED BY IDOCK:   -0.43 KCAL/MOL
REMARK 927      BINDING AFFINITY PREDICTED BY RF-SCORE:    0.00 PKD
ROOT
HETATM    1  C   UNL     1      -7.123  11.346  67.798  1.00  0.00    -0.081 C  
HETATM    2  O   UNL     1      -7.759  10.300  67.064  1.00  0.00    -0.098 OA 
ENDROOT
BRANCH   2   3
HETATM    3  C   UNL     1      -8.648  10.733  66.115  1.00  0.00    -0.168 A  
HETATM    4  C   UNL     1      -9.329  11.923  66.402  1.00  0.00    -0.233 A  
HETATM    5  C   UNL     1     -10.310  12.464  65.528  1.00  0.00    -0.298 A  
HETATM    6  C   UNL     1     -10.549  11.748  64.325  1.00  0.00    -0.386 A  
HETATM    7  C   UNL     1     -11.521  12.185  63.419  1.00  0.00    -0.501 A  
HETATM    8  C   UNL     1      -9.815  10.594  64.020  1.00  0.00    -0.399 A  
HETATM    9  C   UNL     1     -12.271  13.323  63.677  1.00  0.00    -0.522 A  
HETATM   10  C   UNL     1      -8.869  10.088  64.907  1.00  0.00    -0.219 A  
HETATM   11  C   UNL     1     -12.036  14.057  64.835  1.00  0.00    -0.435 A  
HETATM   12  C   UNL     1     -11.068  13.656  65.776  1.00  0.00    -0.292 A  
BRANCH  12  13
HETATM   13  C   UNL     1     -10.774  14.551  66.977  1.00  0.00    -0.291 C  
BRANCH  13  14
HETATM   14  C   UNL     1     -11.750  14.453  68.161  1.00  0.00    -0.342 C  
BRANCH  14  15
HETATM   15  N   UNL     1     -11.900  13.099  68.674  1.00  0.00    -0.325 N  
HETATM   16  C   UNL     1     -12.003  12.832  70.019  1.00  0.00    -0.301 C  
HETATM   17  H   UNL     1     -11.931  12.322  68.013  1.00  0.00     0.000 HD 
HETATM   18  C   UNL     1     -12.060  11.366  70.358  1.00  0.00    -0.473 C  
HETATM   19  O   UNL     1     -12.056  13.698  70.886  1.00  0.00    -0.333 OA 
ENDBRANCH  14  15
ENDBRANCH  13  14
ENDBRANCH  12  13
ENDBRANCH   2   3
TORSDOF 4
ENDMDL
MODEL       81
REMARK 921   NORMALIZED FREE ENERGY PREDICTED BY IDOCK:   -4.61 KCAL/MOL
REMARK 922        TOTAL FREE ENERGY PREDICTED BY IDOCK:   -6.12 KCAL/MOL
REMARK 923 INTER-LIGAND FREE ENERGY PREDICTED BY IDOCK:   -6.05 KCAL/MOL
REMARK 924 INTRA-LIGAND FREE ENERGY PREDICTED BY IDOCK:   -0.07 KCAL/MOL
REMARK 927      BINDING AFFINITY PREDICTED BY RF-SCORE:    0.00 PKD
ROOT
HETATM    1  C   UNL     1     -12.373  15.010  72.490  1.00  0.00    -0.357 C  
HETATM    2  O   UNL     1     -11.682  15.856  71.571  1.00  0.00    -0.400 OA 
ENDROOT
BRANCH   2   3
HETATM    3  C   UNL     1     -11.614  15.367  70.292  1.00  0.00    -0.320 A  
HETATM    4  C   UNL     1     -10.952  16.173  69.356  1.00  0.00    -0.333 A  
HETATM    5  C   UNL     1     -10.845  15.811  67.986  1.00  0.00    -0.309 A  
HETATM    6  C   UNL     1     -11.424  14.568  67.613  1.00  0.00    -0.374 A  
HETATM    7  C   UNL     1     -11.398  14.144  66.280  1.00  0.00    -0.340 A  
HETATM    8  C   UNL     1     -12.026  13.743  68.571  1.00  0.00    -0.402 A  
HETATM    9  C   UNL     1     -10.810  14.927  65.297  1.00  0.00    -0.398 A  
HETATM   10  C   UNL     1     -12.121  14.136  69.903  1.00  0.00    -0.405 A  
HETATM   11  C   UNL     1     -10.212  16.135  65.642  1.00  0.00    -0.390 A  
HETATM   12  C   UNL     1     -10.213  16.603  66.971  1.00  0.00    -0.290 A  
BRANCH  12  13
HETATM   13  C   UNL     1      -9.453  17.881  67.316  1.00  0.00    -0.263 C  
BRANCH  13  14
HETATM   14  C   UNL     1      -8.268  17.734  68.285  1.00  0.00    -0.285 C  
BRANCH  14  15
HETATM   15  N   UNL     1      -7.553  18.981  68.515  1.00  0.00    -0.316 N  
HETATM   16  C   UNL     1      -6.528  19.080  69.425  1.00  0.00    -0.294 C  
HETATM   17  H   UNL     1      -7.822  19.809  67.983  1.00  0.00     0.000 HD 
HETATM   18  C   UNL     1      -5.975  20.471  69.587  1.00  0.00    -0.358 C  
HETATM   19  O   UNL     1      -6.079  18.129  70.057  1.00  0.00    -0.213 OA 
ENDBRANCH  14  15
ENDBRANCH  13  14
ENDBRANCH  12  13
ENDBRANCH   2   3
TORSDOF 4
ENDMDL
MODEL       82
REMARK 921   NORMALIZED FREE ENERGY PREDICTED BY IDOCK:   -4.60 KCAL/MOL
REMARK 922        TOTAL FREE ENERGY PREDICTED BY IDOCK:   -6.11 KCAL/MOL
REMARK 923 INTER-LIGAND FREE ENERGY PREDICTED BY IDOCK:   -5.78 KCAL/MOL
REMARK 924 INTRA-LIGAND FREE ENERGY PREDICTED BY IDOCK:   -0.33 KCAL/MOL
REMARK 927      BINDING AFFINITY PREDICTED BY RF-SCORE:    0.00 PKD
ROOT
HETATM    1  C   UNL     1      -9.963  20.423  67.022  1.00  0.00    -0.428 C  
HETATM    2  O   UNL     1      -9.996  19.368  66.061  1.00  0.00    -0.396 OA 
ENDROOT
BRANCH   2   3
HETATM    3  C   UNL     1      -9.239  18.275  66.395  1.00  0.00    -0.263 A  
HETATM    4  C   UNL     1      -9.871  17.029  66.286  1.00  0.00    -0.310 A  
HETATM    5  C   UNL     1      -9.219  15.816  66.640  1.00  0.00    -0.283 A  
HETATM    6  C   UNL     1      -7.876  15.927  67.088  1.00  0.00    -0.249 A  
HETATM    7  C   UNL     1      -7.166  14.791  67.491  1.00  0.00    -0.222 A  
HETATM    8  C   UNL     1      -7.236  17.172  67.130  1.00  0.00    -0.205 A  
HETATM    9  C   UNL     1      -7.757  13.537  67.464  1.00  0.00    -0.182 A  
HETATM   10  C   UNL     1      -7.910  18.340  66.785  1.00  0.00    -0.255 A  
HETATM   11  C   UNL     1      -9.062  13.399  67.003  1.00  0.00    -0.245 A  
HETATM   12  C   UNL     1      -9.817  14.514  66.587  1.00  0.00    -0.282 A  
BRANCH  12  13
HETATM   13  C   UNL     1     -11.206  14.298  65.991  1.00  0.00    -0.324 C  
BRANCH  13  14
HETATM   14  C   UNL     1     -11.285  14.193  64.459  1.00  0.00    -0.337 C  
BRANCH  14  15
HETATM   15  N   UNL     1     -10.339  13.241  63.896  1.00  0.00    -0.537 N  
HETATM   16  C   UNL     1     -10.724  11.993  63.466  1.00  0.00    -0.455 C  
HETATM   17  H   UNL     1      -9.357  13.509  63.817  1.00  0.00     0.000 HD 
HETATM   18  C   UNL     1      -9.588  11.121  63.000  1.00  0.00    -0.389 C  
HETATM   19  O   UNL     1     -11.887  11.605  63.445  1.00  0.00    -0.415 OA 
ENDBRANCH  14  15
ENDBRANCH  13  14
ENDBRANCH  12  13
ENDBRANCH   2   3
TORSDOF 4
ENDMDL
MODEL       83
REMARK 921   NORMALIZED FREE ENERGY PREDICTED BY IDOCK:   -4.59 KCAL/MOL
REMARK 922        TOTAL FREE ENERGY PREDICTED BY IDOCK:   -6.11 KCAL/MOL
REMARK 923 INTER-LIGAND FREE ENERGY PREDICTED BY IDOCK:   -5.72 KCAL/MOL
REMARK 924 INTRA-LIGAND FREE ENERGY PREDICTED BY IDOCK:   -0.39 KCAL/MOL
REMARK 927      BINDING AFFINITY PREDICTED BY RF-SCORE:    0.00 PKD
ROOT
HETATM    1  C   UNL     1      -8.971   7.913  68.263  1.00  0.00    -0.132 C  
HETATM    2  O   UNL     1      -9.973   7.122  68.901  1.00  0.00    -0.157 OA 
ENDROOT
BRANCH   2   3
HETATM    3  C   UNL     1     -10.823   7.830  69.711  1.00  0.00    -0.209 A  
HETATM    4  C   UNL     1     -10.909   9.206  69.465  1.00  0.00    -0.194 A  
HETATM    5  C   UNL     1     -11.717  10.068  70.256  1.00  0.00    -0.327 A  
HETATM    6  C   UNL     1     -12.460   9.455  71.300  1.00  0.00    -0.416 A  
HETATM    7  C   UNL     1     -13.257  10.228  72.152  1.00  0.00    -0.443 A  
HETATM    8  C   UNL     1     -12.415   8.069  71.493  1.00  0.00    -0.334 A  
HETATM    9  C   UNL     1     -13.335  11.604  71.997  1.00  0.00    -0.405 A  
HETATM   10  C   UNL     1     -11.603   7.258  70.705  1.00  0.00    -0.322 A  
HETATM   11  C   UNL     1     -12.639  12.223  70.964  1.00  0.00    -0.352 A  
HETATM   12  C   UNL     1     -11.824  11.487  70.082  1.00  0.00    -0.440 A  
BRANCH  12  13
HETATM   13  C   UNL     1     -11.165  12.197  68.902  1.00  0.00    -0.320 C  
BRANCH  13  14
HETATM   14  C   UNL     1     -11.873  13.457  68.377  1.00  0.00    -0.366 C  
BRANCH  14  15
HETATM   15  N   UNL     1     -11.083  14.670  68.534  1.00  0.00    -0.249 N  
HETATM   16  C   UNL     1     -11.507  15.724  69.308  1.00  0.00    -0.365 C  
HETATM   17  H   UNL     1     -10.185  14.739  68.054  1.00  0.00     0.000 HD 
HETATM   18  C   UNL     1     -10.597  16.924  69.273  1.00  0.00    -0.325 C  
HETATM   19  O   UNL     1     -12.530  15.709  69.984  1.00  0.00    -0.360 OA 
ENDBRANCH  14  15
ENDBRANCH  13  14
ENDBRANCH  12  13
ENDBRANCH   2   3
TORSDOF 4
ENDMDL
MODEL       84
REMARK 921   NORMALIZED FREE ENERGY PREDICTED BY IDOCK:   -4.59 KCAL/MOL
REMARK 922        TOTAL FREE ENERGY PREDICTED BY IDOCK:   -6.10 KCAL/MOL
REMARK 923 INTER-LIGAND FREE ENERGY PREDICTED BY IDOCK:   -5.67 KCAL/MOL
REMARK 924 INTRA-LIGAND FREE ENERGY PREDICTED BY IDOCK:   -0.44 KCAL/MOL
REMARK 927      BINDING AFFINITY PREDICTED BY RF-SCORE:    0.00 PKD
ROOT
HETATM    1  C   UNL     1     -12.401  15.580  64.134  1.00  0.00     0.066 C  
HETATM    2  O   UNL     1     -12.660  14.285  63.591  1.00  0.00    -0.831 OA 
ENDROOT
BRANCH   2   3
HETATM    3  C   UNL     1     -11.777  13.316  63.990  1.00  0.00    -0.430 A  
HETATM    4  C   UNL     1     -11.112  13.547  65.201  1.00  0.00    -0.326 A  
HETATM    5  C   UNL     1     -10.137  12.646  65.713  1.00  0.00    -0.284 A  
HETATM    6  C   UNL     1      -9.890  11.478  64.944  1.00  0.00    -0.289 A  
HETATM    7  C   UNL     1      -8.924  10.551  65.351  1.00  0.00    -0.207 A  
HETATM    8  C   UNL     1     -10.610  11.228  63.768  1.00  0.00    -0.455 A  
HETATM    9  C   UNL     1      -8.189  10.755  66.510  1.00  0.00    -0.148 A  
HETATM   10  C   UNL     1     -11.549  12.139  63.292  1.00  0.00    -0.418 A  
HETATM   11  C   UNL     1      -8.433  11.877  67.294  1.00  0.00    -0.172 A  
HETATM   12  C   UNL     1      -9.395  12.838  66.925  1.00  0.00    -0.234 A  
BRANCH  12  13
HETATM   13  C   UNL     1      -9.700  13.996  67.871  1.00  0.00    -0.229 C  
BRANCH  13  14
HETATM   14  C   UNL     1      -8.843  15.262  67.705  1.00  0.00    -0.175 C  
BRANCH  14  15
HETATM   15  N   UNL     1      -9.591  16.494  67.908  1.00  0.00    -0.231 N  
HETATM   16  C   UNL     1      -9.872  17.358  66.875  1.00  0.00    -0.289 C  
HETATM   17  H   UNL     1      -9.917  16.725  68.846  1.00  0.00     0.000 HD 
HETATM   18  C   UNL     1     -10.574  18.622  67.298  1.00  0.00    -0.480 C  
HETATM   19  O   UNL     1      -9.593  17.136  65.702  1.00  0.00    -0.535 OA 
ENDBRANCH  14  15
ENDBRANCH  13  14
ENDBRANCH  12  13
ENDBRANCH   2   3
TORSDOF 4
ENDMDL
MODEL       85
REMARK 921   NORMALIZED FREE ENERGY PREDICTED BY IDOCK:   -4.56 KCAL/MOL
REMARK 922        TOTAL FREE ENERGY PREDICTED BY IDOCK:   -6.06 KCAL/MOL
REMARK 923 INTER-LIGAND FREE ENERGY PREDICTED BY IDOCK:   -5.49 KCAL/MOL
REMARK 924 INTRA-LIGAND FREE ENERGY PREDICTED BY IDOCK:   -0.57 KCAL/MOL
REMARK 927      BINDING AFFINITY PREDICTED BY RF-SCORE:    0.00 PKD
ROOT
HETATM    1  C   UNL     1     -10.741  16.340  69.616  1.00  0.00    -0.338 C  
HETATM    2  O   UNL     1     -11.146  17.016  68.426  1.00  0.00    -0.320 OA 
ENDROOT
BRANCH   2   3
HETATM    3  C   UNL     1     -10.305  18.025  68.033  1.00  0.00    -0.387 A  
HETATM    4  C   UNL     1      -9.014  18.002  68.579  1.00  0.00    -0.297 A  
HETATM    5  C   UNL     1      -8.053  19.010  68.293  1.00  0.00    -0.359 A  
HETATM    6  C   UNL     1      -8.460  20.035  67.398  1.00  0.00    -0.391 A  
HETATM    7  C   UNL     1      -7.594  21.088  67.084  1.00  0.00    -0.203 A  
HETATM    8  C   UNL     1      -9.731  20.010  66.808  1.00  0.00    -0.563 A  
HETATM    9  C   UNL     1      -6.325  21.154  67.640  1.00  0.00    -0.417 A  
HETATM   10  C   UNL     1     -10.649  19.012  67.121  1.00  0.00    -0.545 A  
HETATM   11  C   UNL     1      -5.894  20.147  68.498  1.00  0.00    -0.291 A  
HETATM   12  C   UNL     1      -6.731  19.067  68.843  1.00  0.00    -0.321 A  
BRANCH  12  13
HETATM   13  C   UNL     1      -6.176  17.934  69.703  1.00  0.00    -0.209 C  
BRANCH  13  14
HETATM   14  C   UNL     1      -5.460  16.796  68.958  1.00  0.00    -0.131 C  
BRANCH  14  15
HETATM   15  N   UNL     1      -6.322  15.656  68.682  1.00  0.00    -0.101 N  
HETATM   16  C   UNL     1      -6.963  15.498  67.476  1.00  0.00    -0.194 C  
HETATM   17  H   UNL     1      -6.455  14.950  69.407  1.00  0.00     0.000 HD 
HETATM   18  C   UNL     1      -7.881  14.306  67.413  1.00  0.00    -0.207 C  
HETATM   19  O   UNL     1      -6.808  16.245  66.516  1.00  0.00    -0.215 OA 
ENDBRANCH  14  15
ENDBRANCH  13  14
ENDBRANCH  12  13
ENDBRANCH   2   3
TORSDOF 4
ENDMDL
MODEL       86
REMARK 921   NORMALIZED FREE ENERGY PREDICTED BY IDOCK:   -4.55 KCAL/MOL
REMARK 922        TOTAL FREE ENERGY PREDICTED BY IDOCK:   -6.06 KCAL/MOL
REMARK 923 INTER-LIGAND FREE ENERGY PREDICTED BY IDOCK:   -5.73 KCAL/MOL
REMARK 924 INTRA-LIGAND FREE ENERGY PREDICTED BY IDOCK:   -0.33 KCAL/MOL
REMARK 927      BINDING AFFINITY PREDICTED BY RF-SCORE:    0.00 PKD
ROOT
HETATM    1  C   UNL     1      -9.591   6.751  67.171  1.00  0.00    -0.144 C  
HETATM    2  O   UNL     1      -9.662   6.381  68.548  1.00  0.00    -0.131 OA 
ENDROOT
BRANCH   2   3
HETATM    3  C   UNL     1     -10.361   7.258  69.335  1.00  0.00    -0.208 A  
HETATM    4  C   UNL     1     -10.567   8.538  68.804  1.00  0.00    -0.162 A  
HETATM    5  C   UNL     1     -11.238   9.560  69.529  1.00  0.00    -0.105 A  
HETATM    6  C   UNL     1     -11.717   9.209  70.819  1.00  0.00    -0.308 A  
HETATM    7  C   UNL     1     -12.360  10.159  71.620  1.00  0.00    -0.471 A  
HETATM    8  C   UNL     1     -11.562   7.907  71.312  1.00  0.00    -0.304 A  
HETATM    9  C   UNL     1     -12.539  11.460  71.173  1.00  0.00    -0.490 A  
HETATM   10  C   UNL     1     -10.890   6.935  70.576  1.00  0.00    -0.289 A  
HETATM   11  C   UNL     1     -12.103  11.820  69.903  1.00  0.00    -0.359 A  
HETATM   12  C   UNL     1     -11.451  10.898  69.060  1.00  0.00    -0.371 A  
BRANCH  12  13
HETATM   13  C   UNL     1     -11.086  11.312  67.637  1.00  0.00    -0.336 C  
BRANCH  13  14
HETATM   14  C   UNL     1     -11.746  12.595  67.105  1.00  0.00    -0.371 C  
BRANCH  14  15
HETATM   15  N   UNL     1     -12.202  12.480  65.727  1.00  0.00    -0.386 N  
HETATM   16  C   UNL     1     -11.511  13.039  64.678  1.00  0.00    -0.336 C  
HETATM   17  H   UNL     1     -13.063  11.968  65.534  1.00  0.00     0.000 HD 
HETATM   18  C   UNL     1     -12.188  12.892  63.342  1.00  0.00    -0.574 C  
HETATM   19  O   UNL     1     -10.430  13.606  64.796  1.00  0.00    -0.387 OA 
ENDBRANCH  14  15
ENDBRANCH  13  14
ENDBRANCH  12  13
ENDBRANCH   2   3
TORSDOF 4
ENDMDL
MODEL       87
REMARK 921   NORMALIZED FREE ENERGY PREDICTED BY IDOCK:   -4.54 KCAL/MOL
REMARK 922        TOTAL FREE ENERGY PREDICTED BY IDOCK:   -6.04 KCAL/MOL
REMARK 923 INTER-LIGAND FREE ENERGY PREDICTED BY IDOCK:   -5.52 KCAL/MOL
REMARK 924 INTRA-LIGAND FREE ENERGY PREDICTED BY IDOCK:   -0.53 KCAL/MOL
REMARK 927      BINDING AFFINITY PREDICTED BY RF-SCORE:    0.00 PKD
ROOT
HETATM    1  C   UNL     1     -10.122  20.204  66.743  1.00  0.00    -0.457 C  
HETATM    2  O   UNL     1      -9.964  19.185  65.755  1.00  0.00    -0.462 OA 
ENDROOT
BRANCH   2   3
HETATM    3  C   UNL     1      -9.196  18.122  66.155  1.00  0.00    -0.119 A  
HETATM    4  C   UNL     1      -9.765  16.852  65.994  1.00  0.00    -0.260 A  
HETATM    5  C   UNL     1      -9.099  15.666  66.406  1.00  0.00    -0.355 A  
HETATM    6  C   UNL     1      -7.805  15.831  66.969  1.00  0.00    -0.271 A  
HETATM    7  C   UNL     1      -7.087  14.723  67.434  1.00  0.00    -0.173 A  
HETATM    8  C   UNL     1      -7.221  17.101  67.064  1.00  0.00    -0.219 A  
HETATM    9  C   UNL     1      -7.623  13.447  67.358  1.00  0.00    -0.138 A  
HETATM   10  C   UNL     1      -7.909  18.241  66.660  1.00  0.00    -0.275 A  
HETATM   11  C   UNL     1      -8.876  13.257  66.785  1.00  0.00    -0.140 A  
HETATM   12  C   UNL     1      -9.636  14.341  66.303  1.00  0.00    -0.310 A  
BRANCH  12  13
HETATM   13  C   UNL     1     -10.958  14.070  65.589  1.00  0.00    -0.300 C  
BRANCH  13  14
HETATM   14  C   UNL     1     -12.156  13.702  66.479  1.00  0.00    -0.423 C  
BRANCH  14  15
HETATM   15  N   UNL     1     -12.108  14.321  67.796  1.00  0.00    -0.576 N  
HETATM   16  C   UNL     1     -12.007  13.580  68.950  1.00  0.00    -0.341 C  
HETATM   17  H   UNL     1     -12.150  15.338  67.865  1.00  0.00     0.000 HD 
HETATM   18  C   UNL     1     -12.063  14.393  70.215  1.00  0.00    -0.396 C  
HETATM   19  O   UNL     1     -11.872  12.361  68.970  1.00  0.00    -0.302 OA 
ENDBRANCH  14  15
ENDBRANCH  13  14
ENDBRANCH  12  13
ENDBRANCH   2   3
TORSDOF 4
ENDMDL
MODEL       88
REMARK 921   NORMALIZED FREE ENERGY PREDICTED BY IDOCK:   -4.53 KCAL/MOL
REMARK 922        TOTAL FREE ENERGY PREDICTED BY IDOCK:   -6.03 KCAL/MOL
REMARK 923 INTER-LIGAND FREE ENERGY PREDICTED BY IDOCK:   -5.65 KCAL/MOL
REMARK 924 INTRA-LIGAND FREE ENERGY PREDICTED BY IDOCK:   -0.38 KCAL/MOL
REMARK 927      BINDING AFFINITY PREDICTED BY RF-SCORE:    0.00 PKD
ROOT
HETATM    1  C   UNL     1      -6.024  15.618  67.665  1.00  0.00    -0.134 C  
HETATM    2  O   UNL     1      -7.108  14.780  68.065  1.00  0.00    -0.110 OA 
ENDROOT
BRANCH   2   3
HETATM    3  C   UNL     1      -8.220  14.875  67.271  1.00  0.00    -0.209 A  
HETATM    4  C   UNL     1      -9.018  13.726  67.184  1.00  0.00    -0.241 A  
HETATM    5  C   UNL     1     -10.177  13.669  66.362  1.00  0.00    -0.292 A  
HETATM    6  C   UNL     1     -10.505  14.853  65.648  1.00  0.00    -0.366 A  
HETATM    7  C   UNL     1     -11.608  14.881  64.789  1.00  0.00    -0.410 A  
HETATM    8  C   UNL     1      -9.735  16.014  65.795  1.00  0.00    -0.340 A  
HETATM    9  C   UNL     1     -12.401  13.757  64.614  1.00  0.00    -0.410 A  
HETATM   10  C   UNL     1      -8.600  16.029  66.601  1.00  0.00    -0.316 A  
HETATM   11  C   UNL     1     -12.117  12.594  65.323  1.00  0.00    -0.519 A  
HETATM   12  C   UNL     1     -11.016  12.518  66.200  1.00  0.00    -0.318 A  
BRANCH  12  13
HETATM   13  C   UNL     1     -10.809  11.257  67.034  1.00  0.00    -0.332 C  
BRANCH  13  14
HETATM   14  C   UNL     1     -11.701  11.102  68.277  1.00  0.00    -0.252 C  
BRANCH  14  15
HETATM   15  N   UNL     1     -11.899  12.348  69.003  1.00  0.00    -0.310 N  
HETATM   16  C   UNL     1     -12.178  12.374  70.350  1.00  0.00    -0.287 C  
HETATM   17  H   UNL     1     -11.829  13.231  68.497  1.00  0.00     0.000 HD 
HETATM   18  C   UNL     1     -12.441  13.750  70.902  1.00  0.00    -0.451 C  
HETATM   19  O   UNL     1     -12.207  11.376  71.062  1.00  0.00    -0.346 OA 
ENDBRANCH  14  15
ENDBRANCH  13  14
ENDBRANCH  12  13
ENDBRANCH   2   3
TORSDOF 4
ENDMDL
MODEL       89
REMARK 921   NORMALIZED FREE ENERGY PREDICTED BY IDOCK:   -4.51 KCAL/MOL
REMARK 922        TOTAL FREE ENERGY PREDICTED BY IDOCK:   -6.00 KCAL/MOL
REMARK 923 INTER-LIGAND FREE ENERGY PREDICTED BY IDOCK:   -5.65 KCAL/MOL
REMARK 924 INTRA-LIGAND FREE ENERGY PREDICTED BY IDOCK:   -0.35 KCAL/MOL
REMARK 927      BINDING AFFINITY PREDICTED BY RF-SCORE:    0.00 PKD
ROOT
HETATM    1  C   UNL     1     -11.308  16.029  68.225  1.00  0.00    -0.326 C  
HETATM    2  O   UNL     1     -11.605  16.322  69.590  1.00  0.00    -0.276 OA 
ENDROOT
BRANCH   2   3
HETATM    3  C   UNL     1     -12.053  15.249  70.316  1.00  0.00    -0.350 A  
HETATM    4  C   UNL     1     -11.786  13.984  69.778  1.00  0.00    -0.375 A  
HETATM    5  C   UNL     1     -12.230  12.786  70.403  1.00  0.00    -0.371 A  
HETATM    6  C   UNL     1     -12.941  12.936  71.624  1.00  0.00    -0.410 A  
HETATM    7  C   UNL     1     -13.447  11.816  72.293  1.00  0.00    -0.143 A  
HETATM    8  C   UNL     1     -13.144  14.204  72.184  1.00  0.00    -0.489 A  
HETATM    9  C   UNL     1     -13.267  10.541  71.778  1.00  0.00    -0.522 A  
HETATM   10  C   UNL     1     -12.703  15.355  71.537  1.00  0.00    -0.480 A  
HETATM   11  C   UNL     1     -12.551  10.366  70.599  1.00  0.00    -0.435 A  
HETATM   12  C   UNL     1     -12.023  11.463  69.890  1.00  0.00    -0.434 A  
BRANCH  12  13
HETATM   13  C   UNL     1     -11.155  11.213  68.659  1.00  0.00    -0.293 C  
BRANCH  13  14
HETATM   14  C   UNL     1      -9.904  10.344  68.868  1.00  0.00    -0.200 C  
BRANCH  14  15
HETATM   15  N   UNL     1      -8.668  11.012  68.484  1.00  0.00    -0.153 N  
HETATM   16  C   UNL     1      -7.527  10.935  69.248  1.00  0.00    -0.124 C  
HETATM   17  H   UNL     1      -8.648  11.554  67.620  1.00  0.00     0.000 HD 
HETATM   18  C   UNL     1      -6.381  11.766  68.735  1.00  0.00    -0.061 C  
HETATM   19  O   UNL     1      -7.426  10.249  70.259  1.00  0.00    -0.208 OA 
ENDBRANCH  14  15
ENDBRANCH  13  14
ENDBRANCH  12  13
ENDBRANCH   2   3
TORSDOF 4
ENDMDL
MODEL       90
REMARK 921   NORMALIZED FREE ENERGY PREDICTED BY IDOCK:   -4.49 KCAL/MOL
REMARK 922        TOTAL FREE ENERGY PREDICTED BY IDOCK:   -5.98 KCAL/MOL
REMARK 923 INTER-LIGAND FREE ENERGY PREDICTED BY IDOCK:   -5.70 KCAL/MOL
REMARK 924 INTRA-LIGAND FREE ENERGY PREDICTED BY IDOCK:   -0.28 KCAL/MOL
REMARK 927      BINDING AFFINITY PREDICTED BY RF-SCORE:    0.00 PKD
ROOT
HETATM    1  C   UNL     1     -12.510  12.439  63.402  1.00  0.00    -0.446 C  
HETATM    2  O   UNL     1     -12.740  13.029  64.682  1.00  0.00    -0.658 OA 
ENDROOT
BRANCH   2   3
HETATM    3  C   UNL     1     -11.707  12.878  65.570  1.00  0.00    -0.383 A  
HETATM    4  C   UNL     1     -10.820  13.957  65.678  1.00  0.00    -0.292 A  
HETATM    5  C   UNL     1      -9.681  13.920  66.527  1.00  0.00    -0.303 A  
HETATM    6  C   UNL     1      -9.498  12.734  67.288  1.00  0.00    -0.204 A  
HETATM    7  C   UNL     1      -8.387  12.592  68.125  1.00  0.00    -0.175 A  
HETATM    8  C   UNL     1     -10.428  11.688  67.219  1.00  0.00    -0.247 A  
HETATM    9  C   UNL     1      -7.441  13.602  68.228  1.00  0.00    -0.124 A  
HETATM   10  C   UNL     1     -11.527  11.757  66.367  1.00  0.00    -0.309 A  
HETATM   11  C   UNL     1      -7.613  14.784  67.514  1.00  0.00    -0.215 A  
HETATM   12  C   UNL     1      -8.716  14.972  66.658  1.00  0.00    -0.289 A  
BRANCH  12  13
HETATM   13  C   UNL     1      -8.915  16.325  65.979  1.00  0.00    -0.325 C  
BRANCH  13  14
HETATM   14  C   UNL     1      -7.938  17.443  66.378  1.00  0.00    -0.290 C  
BRANCH  14  15
HETATM   15  N   UNL     1      -8.548  18.765  66.388  1.00  0.00    -0.300 N  
HETATM   16  C   UNL     1      -9.413  19.165  67.380  1.00  0.00    -0.305 C  
HETATM   17  H   UNL     1      -8.326  19.416  65.635  1.00  0.00     0.000 HD 
HETATM   18  C   UNL     1     -10.010  20.531  67.167  1.00  0.00    -0.512 C  
HETATM   19  O   UNL     1      -9.683  18.489  68.366  1.00  0.00    -0.327 OA 
ENDBRANCH  14  15
ENDBRANCH  13  14
ENDBRANCH  12  13
ENDBRANCH   2   3
TORSDOF 4
ENDMDL
MODEL       91
REMARK 921   NORMALIZED FREE ENERGY PREDICTED BY IDOCK:   -4.48 KCAL/MOL
REMARK 922        TOTAL FREE ENERGY PREDICTED BY IDOCK:   -5.96 KCAL/MOL
REMARK 923 INTER-LIGAND FREE ENERGY PREDICTED BY IDOCK:   -5.62 KCAL/MOL
REMARK 924 INTRA-LIGAND FREE ENERGY PREDICTED BY IDOCK:   -0.34 KCAL/MOL
REMARK 927      BINDING AFFINITY PREDICTED BY RF-SCORE:    0.00 PKD
ROOT
HETATM    1  C   UNL     1      -7.252   9.967  69.168  1.00  0.00    -0.076 C  
HETATM    2  O   UNL     1      -7.276   8.932  70.150  1.00  0.00    -0.049 OA 
ENDROOT
BRANCH   2   3
HETATM    3  C   UNL     1      -8.496   8.745  70.746  1.00  0.00    -0.173 A  
HETATM    4  C   UNL     1      -9.509   9.639  70.377  1.00  0.00    -0.280 A  
HETATM    5  C   UNL     1     -10.809   9.588  70.949  1.00  0.00    -0.407 A  
HETATM    6  C   UNL     1     -11.041   8.561  71.902  1.00  0.00    -0.395 A  
HETATM    7  C   UNL     1     -12.280   8.453  72.543  1.00  0.00    -0.381 A  
HETATM    8  C   UNL     1     -10.039   7.633  72.214  1.00  0.00    -0.260 A  
HETATM    9  C   UNL     1     -13.304   9.347  72.264  1.00  0.00    -0.539 A  
HETATM   10  C   UNL     1      -8.774   7.721  71.641  1.00  0.00    -0.142 A  
HETATM   11  C   UNL     1     -13.110  10.345  71.314  1.00  0.00    -0.494 A  
HETATM   12  C   UNL     1     -11.880  10.492  70.643  1.00  0.00    -0.458 A  
BRANCH  12  13
HETATM   13  C   UNL     1     -11.751  11.534  69.535  1.00  0.00    -0.413 C  
BRANCH  13  14
HETATM   14  C   UNL     1     -12.261  12.947  69.859  1.00  0.00    -0.188 C  
BRANCH  14  15
HETATM   15  N   UNL     1     -11.191  13.911  70.072  1.00  0.00    -0.480 N  
HETATM   16  C   UNL     1     -11.001  14.990  69.240  1.00  0.00    -0.264 C  
HETATM   17  H   UNL     1     -10.562  13.783  70.865  1.00  0.00     0.000 HD 
HETATM   18  C   UNL     1      -9.789  15.821  69.570  1.00  0.00    -0.283 C  
HETATM   19  O   UNL     1     -11.746  15.275  68.309  1.00  0.00    -0.343 OA 
ENDBRANCH  14  15
ENDBRANCH  13  14
ENDBRANCH  12  13
ENDBRANCH   2   3
TORSDOF 4
ENDMDL
MODEL       92
REMARK 921   NORMALIZED FREE ENERGY PREDICTED BY IDOCK:   -4.47 KCAL/MOL
REMARK 922        TOTAL FREE ENERGY PREDICTED BY IDOCK:   -5.96 KCAL/MOL
REMARK 923 INTER-LIGAND FREE ENERGY PREDICTED BY IDOCK:   -5.70 KCAL/MOL
REMARK 924 INTRA-LIGAND FREE ENERGY PREDICTED BY IDOCK:   -0.26 KCAL/MOL
REMARK 927      BINDING AFFINITY PREDICTED BY RF-SCORE:    0.00 PKD
ROOT
HETATM    1  C   UNL     1     -13.456   8.854  72.265  1.00  0.00    -0.455 C  
HETATM    2  O   UNL     1     -12.177   8.220  72.266  1.00  0.00    -0.344 OA 
ENDROOT
BRANCH   2   3
HETATM    3  C   UNL     1     -11.665   7.975  71.019  1.00  0.00    -0.277 A  
HETATM    4  C   UNL     1     -11.177   9.087  70.321  1.00  0.00    -0.232 A  
HETATM    5  C   UNL     1     -10.658   8.986  69.001  1.00  0.00    -0.209 A  
HETATM    6  C   UNL     1     -10.633   7.685  68.430  1.00  0.00    -0.166 A  
HETATM    7  C   UNL     1     -10.171   7.492  67.124  1.00  0.00    -0.350 A  
HETATM    8  C   UNL     1     -11.063   6.572  69.164  1.00  0.00    -0.387 A  
HETATM    9  C   UNL     1      -9.732   8.564  66.360  1.00  0.00    -0.328 A  
HETATM   10  C   UNL     1     -11.575   6.713  70.451  1.00  0.00    -0.457 A  
HETATM   11  C   UNL     1      -9.721   9.843  66.907  1.00  0.00    -0.236 A  
HETATM   12  C   UNL     1     -10.177  10.086  68.218  1.00  0.00    -0.200 A  
BRANCH  12  13
HETATM   13  C   UNL     1     -10.046  11.488  68.809  1.00  0.00    -0.191 C  
BRANCH  13  14
HETATM   14  C   UNL     1     -11.320  12.349  68.819  1.00  0.00    -0.293 C  
BRANCH  14  15
HETATM   15  N   UNL     1     -11.984  12.381  70.114  1.00  0.00    -0.443 N  
HETATM   16  C   UNL     1     -12.494  13.541  70.647  1.00  0.00    -0.333 C  
HETATM   17  H   UNL     1     -12.074  11.513  70.644  1.00  0.00     0.000 HD 
HETATM   18  C   UNL     1     -13.061  13.389  72.034  1.00  0.00    -0.473 C  
HETATM   19  O   UNL     1     -12.506  14.617  70.058  1.00  0.00    -0.326 OA 
ENDBRANCH  14  15
ENDBRANCH  13  14
ENDBRANCH  12  13
ENDBRANCH   2   3
TORSDOF 4
ENDMDL
MODEL       93
REMARK 921   NORMALIZED FREE ENERGY PREDICTED BY IDOCK:   -4.46 KCAL/MOL
REMARK 922        TOTAL FREE ENERGY PREDICTED BY IDOCK:   -5.94 KCAL/MOL
REMARK 923 INTER-LIGAND FREE ENERGY PREDICTED BY IDOCK:   -5.51 KCAL/MOL
REMARK 924 INTRA-LIGAND FREE ENERGY PREDICTED BY IDOCK:   -0.44 KCAL/MOL
REMARK 927      BINDING AFFINITY PREDICTED BY RF-SCORE:    0.00 PKD
ROOT
HETATM    1  C   UNL     1     -10.647  16.448  69.475  1.00  0.00    -0.320 C  
HETATM    2  O   UNL     1     -10.937  16.960  68.175  1.00  0.00    -0.365 OA 
ENDROOT
BRANCH   2   3
HETATM    3  C   UNL     1     -10.838  16.037  67.167  1.00  0.00    -0.239 A  
HETATM    4  C   UNL     1     -11.147  14.713  67.507  1.00  0.00    -0.319 A  
HETATM    5  C   UNL     1     -11.045  13.647  66.572  1.00  0.00    -0.310 A  
HETATM    6  C   UNL     1     -10.636  13.996  65.258  1.00  0.00    -0.376 A  
HETATM    7  C   UNL     1     -10.475  13.009  64.279  1.00  0.00    -0.424 A  
HETATM    8  C   UNL     1     -10.393  15.332  64.914  1.00  0.00    -0.273 A  
HETATM    9  C   UNL     1     -10.707  11.674  64.572  1.00  0.00    -0.378 A  
HETATM   10  C   UNL     1     -10.494  16.348  65.860  1.00  0.00    -0.350 A  
HETATM   11  C   UNL     1     -11.135  11.310  65.845  1.00  0.00    -0.168 A  
HETATM   12  C   UNL     1     -11.311  12.269  66.863  1.00  0.00    -0.392 A  
BRANCH  12  13
HETATM   13  C   UNL     1     -11.883  11.834  68.210  1.00  0.00    -0.340 C  
BRANCH  13  14
HETATM   14  C   UNL     1     -10.969  10.974  69.098  1.00  0.00    -0.237 C  
BRANCH  14  15
HETATM   15  N   UNL     1     -11.103   9.545  68.850  1.00  0.00    -0.446 N  
HETATM   16  C   UNL     1     -10.092   8.802  68.288  1.00  0.00    -0.188 C  
HETATM   17  H   UNL     1     -11.975   9.080  69.103  1.00  0.00     0.000 HD 
HETATM   18  C   UNL     1     -10.452   7.363  68.027  1.00  0.00    -0.253 C  
HETATM   19  O   UNL     1      -8.982   9.248  68.021  1.00  0.00    -0.128 OA 
ENDBRANCH  14  15
ENDBRANCH  13  14
ENDBRANCH  12  13
ENDBRANCH   2   3
TORSDOF 4
ENDMDL
MODEL       94
REMARK 921   NORMALIZED FREE ENERGY PREDICTED BY IDOCK:   -4.43 KCAL/MOL
REMARK 922        TOTAL FREE ENERGY PREDICTED BY IDOCK:   -5.91 KCAL/MOL
REMARK 923 INTER-LIGAND FREE ENERGY PREDICTED BY IDOCK:   -5.72 KCAL/MOL
REMARK 924 INTRA-LIGAND FREE ENERGY PREDICTED BY IDOCK:   -0.19 KCAL/MOL
REMARK 927      BINDING AFFINITY PREDICTED BY RF-SCORE:    0.00 PKD
ROOT
HETATM    1  C   UNL     1      -9.137   7.095  70.587  1.00  0.00    -0.158 C  
HETATM    2  O   UNL     1     -10.463   7.355  71.049  1.00  0.00    -0.214 OA 
ENDROOT
BRANCH   2   3
HETATM    3  C   UNL     1     -10.937   8.603  70.739  1.00  0.00    -0.245 A  
HETATM    4  C   UNL     1     -10.488   9.153  69.531  1.00  0.00    -0.226 A  
HETATM    5  C   UNL     1     -10.864  10.456  69.106  1.00  0.00    -0.274 A  
HETATM    6  C   UNL     1     -11.747  11.170  69.961  1.00  0.00    -0.438 A  
HETATM    7  C   UNL     1     -12.145  12.473  69.642  1.00  0.00    -0.272 A  
HETATM    8  C   UNL     1     -12.239  10.583  71.134  1.00  0.00    -0.496 A  
HETATM    9  C   UNL     1     -11.686  13.093  68.490  1.00  0.00    -0.387 A  
HETATM   10  C   UNL     1     -11.839   9.307  71.523  1.00  0.00    -0.444 A  
HETATM   11  C   UNL     1     -10.843  12.405  67.623  1.00  0.00    -0.258 A  
HETATM   12  C   UNL     1     -10.415  11.092  67.902  1.00  0.00    -0.223 A  
BRANCH  12  13
HETATM   13  C   UNL     1      -9.578  10.342  66.870  1.00  0.00    -0.211 C  
BRANCH  13  14
HETATM   14  C   UNL     1      -9.431  11.006  65.491  1.00  0.00    -0.216 C  
BRANCH  14  15
HETATM   15  N   UNL     1     -10.665  11.007  64.718  1.00  0.00    -0.280 N  
HETATM   16  C   UNL     1     -11.118  12.128  64.063  1.00  0.00    -0.386 C  
HETATM   17  H   UNL     1     -11.211  10.147  64.659  1.00  0.00     0.000 HD 
HETATM   18  C   UNL     1     -12.456  11.957  63.394  1.00  0.00    -0.582 C  
HETATM   19  O   UNL     1     -10.498  13.185  64.006  1.00  0.00    -0.405 OA 
ENDBRANCH  14  15
ENDBRANCH  13  14
ENDBRANCH  12  13
ENDBRANCH   2   3
TORSDOF 4
ENDMDL
MODEL       95
REMARK 921   NORMALIZED FREE ENERGY PREDICTED BY IDOCK:   -4.43 KCAL/MOL
REMARK 922        TOTAL FREE ENERGY PREDICTED BY IDOCK:   -5.91 KCAL/MOL
REMARK 923 INTER-LIGAND FREE ENERGY PREDICTED BY IDOCK:   -5.63 KCAL/MOL
REMARK 924 INTRA-LIGAND FREE ENERGY PREDICTED BY IDOCK:   -0.27 KCAL/MOL
REMARK 927      BINDING AFFINITY PREDICTED BY RF-SCORE:    0.00 PKD
ROOT
HETATM    1  C   UNL     1     -12.548  15.248  74.031  1.00  0.00    -0.552 C  
HETATM    2  O   UNL     1     -11.936  15.872  72.901  1.00  0.00    -0.443 OA 
ENDROOT
BRANCH   2   3
HETATM    3  C   UNL     1     -11.954  15.116  71.758  1.00  0.00    -0.382 A  
HETATM    4  C   UNL     1     -11.450  15.729  70.603  1.00  0.00    -0.415 A  
HETATM    5  C   UNL     1     -11.448  15.078  69.340  1.00  0.00    -0.320 A  
HETATM    6  C   UNL     1     -11.962  13.754  69.310  1.00  0.00    -0.399 A  
HETATM    7  C   UNL     1     -12.031  13.046  68.105  1.00  0.00    -0.322 A  
HETATM    8  C   UNL     1     -12.402  13.130  70.484  1.00  0.00    -0.380 A  
HETATM    9  C   UNL     1     -11.604  13.622  66.918  1.00  0.00    -0.397 A  
HETATM   10  C   UNL     1     -12.399  13.804  71.702  1.00  0.00    -0.223 A  
HETATM   11  C   UNL     1     -11.072  14.907  66.926  1.00  0.00    -0.337 A  
HETATM   12  C   UNL     1     -10.981  15.658  68.115  1.00  0.00    -0.314 A  
BRANCH  12  13
HETATM   13  C   UNL     1     -10.293  17.021  68.090  1.00  0.00    -0.347 C  
BRANCH  13  14
HETATM   14  C   UNL     1      -8.756  17.013  68.079  1.00  0.00    -0.218 C  
BRANCH  14  15
HETATM   15  N   UNL     1      -8.189  15.716  67.739  1.00  0.00    -0.141 N  
HETATM   16  C   UNL     1      -7.481  14.965  68.648  1.00  0.00    -0.124 C  
HETATM   17  H   UNL     1      -8.321  15.351  66.795  1.00  0.00     0.000 HD 
HETATM   18  C   UNL     1      -6.896  13.697  68.083  1.00  0.00    -0.121 C  
HETATM   19  O   UNL     1      -7.332  15.277  69.824  1.00  0.00    -0.199 OA 
ENDBRANCH  14  15
ENDBRANCH  13  14
ENDBRANCH  12  13
ENDBRANCH   2   3
TORSDOF 4
ENDMDL
MODEL       96
REMARK 921   NORMALIZED FREE ENERGY PREDICTED BY IDOCK:   -4.43 KCAL/MOL
REMARK 922        TOTAL FREE ENERGY PREDICTED BY IDOCK:   -5.90 KCAL/MOL
REMARK 923 INTER-LIGAND FREE ENERGY PREDICTED BY IDOCK:   -5.60 KCAL/MOL
REMARK 924 INTRA-LIGAND FREE ENERGY PREDICTED BY IDOCK:   -0.29 KCAL/MOL
REMARK 927      BINDING AFFINITY PREDICTED BY RF-SCORE:    0.00 PKD
ROOT
HETATM    1  C   UNL     1     -12.444  12.816  70.742  1.00  0.00    -0.271 C  
HETATM    2  O   UNL     1     -13.137  11.930  71.622  1.00  0.00    -0.436 OA 
ENDROOT
BRANCH   2   3
HETATM    3  C   UNL     1     -12.764  10.615  71.511  1.00  0.00    -0.444 A  
HETATM    4  C   UNL     1     -11.886  10.308  70.464  1.00  0.00    -0.419 A  
HETATM    5  C   UNL     1     -11.452   8.978  70.206  1.00  0.00    -0.147 A  
HETATM    6  C   UNL     1     -11.936   7.973  71.085  1.00  0.00    -0.297 A  
HETATM    7  C   UNL     1     -11.590   6.632  70.888  1.00  0.00    -0.416 A  
HETATM    8  C   UNL     1     -12.762   8.305  72.167  1.00  0.00    -0.366 A  
HETATM    9  C   UNL     1     -10.772   6.257  69.833  1.00  0.00    -0.355 A  
HETATM   10  C   UNL     1     -13.174   9.616  72.382  1.00  0.00    -0.413 A  
HETATM   11  C   UNL     1     -10.263   7.226  68.975  1.00  0.00    -0.197 A  
HETATM   12  C   UNL     1     -10.584   8.589  69.133  1.00  0.00    -0.188 A  
BRANCH  12  13
HETATM   13  C   UNL     1      -9.917   9.625  68.232  1.00  0.00    -0.178 C  
BRANCH  13  14
HETATM   14  C   UNL     1     -10.243   9.541  66.732  1.00  0.00    -0.243 C  
BRANCH  14  15
HETATM   15  N   UNL     1     -10.501  10.839  66.124  1.00  0.00    -0.239 N  
HETATM   16  C   UNL     1     -10.162  11.117  64.821  1.00  0.00    -0.306 C  
HETATM   17  H   UNL     1     -10.948  11.566  66.684  1.00  0.00     0.000 HD 
HETATM   18  C   UNL     1     -10.424  12.540  64.403  1.00  0.00    -0.384 C  
HETATM   19  O   UNL     1      -9.693  10.292  64.045  1.00  0.00    -0.306 OA 
ENDBRANCH  14  15
ENDBRANCH  13  14
ENDBRANCH  12  13
ENDBRANCH   2   3
TORSDOF 4
ENDMDL
MODEL       97
REMARK 921   NORMALIZED FREE ENERGY PREDICTED BY IDOCK:   -4.41 KCAL/MOL
REMARK 922        TOTAL FREE ENERGY PREDICTED BY IDOCK:   -5.88 KCAL/MOL
REMARK 923 INTER-LIGAND FREE ENERGY PREDICTED BY IDOCK:   -5.33 KCAL/MOL
REMARK 924 INTRA-LIGAND FREE ENERGY PREDICTED BY IDOCK:   -0.56 KCAL/MOL
REMARK 927      BINDING AFFINITY PREDICTED BY RF-SCORE:    0.00 PKD
ROOT
HETATM    1  C   UNL     1      -9.294  13.189  67.987  1.00  0.00    -0.219 C  
HETATM    2  O   UNL     1      -8.364  14.182  67.555  1.00  0.00    -0.160 OA 
ENDROOT
BRANCH   2   3
HETATM    3  C   UNL     1      -8.941  15.337  67.097  1.00  0.00    -0.209 A  
HETATM    4  C   UNL     1      -8.470  16.530  67.662  1.00  0.00    -0.182 A  
HETATM    5  C   UNL     1      -9.009  17.798  67.312  1.00  0.00    -0.246 A  
HETATM    6  C   UNL     1     -10.038  17.799  66.333  1.00  0.00    -0.357 A  
HETATM    7  C   UNL     1     -10.652  18.997  65.950  1.00  0.00    -0.466 A  
HETATM    8  C   UNL     1     -10.453  16.606  65.728  1.00  0.00    -0.324 A  
HETATM    9  C   UNL     1     -10.272  20.203  66.518  1.00  0.00    -0.558 A  
HETATM   10  C   UNL     1      -9.910  15.381  66.105  1.00  0.00    -0.337 A  
HETATM   11  C   UNL     1      -9.247  20.231  67.459  1.00  0.00    -0.491 A  
HETATM   12  C   UNL     1      -8.600  19.051  67.876  1.00  0.00    -0.333 A  
BRANCH  12  13
HETATM   13  C   UNL     1      -7.412  19.146  68.830  1.00  0.00    -0.378 C  
BRANCH  13  14
HETATM   14  C   UNL     1      -6.096  19.674  68.237  1.00  0.00    -0.231 C  
BRANCH  14  15
HETATM   15  N   UNL     1      -5.740  19.046  66.973  1.00  0.00    -0.156 N  
HETATM   16  C   UNL     1      -5.945  19.667  65.763  1.00  0.00    -0.178 C  
HETATM   17  H   UNL     1      -5.324  18.114  66.984  1.00  0.00     0.000 HD 
HETATM   18  C   UNL     1      -5.598  18.822  64.566  1.00  0.00    -0.261 C  
HETATM   19  O   UNL     1      -6.365  20.813  65.645  1.00  0.00    -0.239 OA 
ENDBRANCH  14  15
ENDBRANCH  13  14
ENDBRANCH  12  13
ENDBRANCH   2   3
TORSDOF 4
ENDMDL
MODEL       98
REMARK 921   NORMALIZED FREE ENERGY PREDICTED BY IDOCK:   -4.39 KCAL/MOL
REMARK 922        TOTAL FREE ENERGY PREDICTED BY IDOCK:   -5.85 KCAL/MOL
REMARK 923 INTER-LIGAND FREE ENERGY PREDICTED BY IDOCK:   -5.46 KCAL/MOL
REMARK 924 INTRA-LIGAND FREE ENERGY PREDICTED BY IDOCK:   -0.38 KCAL/MOL
REMARK 927      BINDING AFFINITY PREDICTED BY RF-SCORE:    0.00 PKD
ROOT
HETATM    1  C   UNL     1      -7.953   5.782  67.025  1.00  0.00    -0.102 C  
HETATM    2  O   UNL     1      -9.085   6.016  67.863  1.00  0.00    -0.119 OA 
ENDROOT
BRANCH   2   3
HETATM    3  C   UNL     1      -9.604   7.281  67.774  1.00  0.00    -0.138 A  
HETATM    4  C   UNL     1     -10.046   7.854  68.973  1.00  0.00    -0.204 A  
HETATM    5  C   UNL     1     -10.646   9.142  69.022  1.00  0.00    -0.219 A  
HETATM    6  C   UNL     1     -10.751   9.837  67.787  1.00  0.00    -0.329 A  
HETATM    7  C   UNL     1     -11.357  11.097  67.731  1.00  0.00    -0.364 A  
HETATM    8  C   UNL     1     -10.245   9.280  66.606  1.00  0.00    -0.323 A  
HETATM    9  C   UNL     1     -11.870  11.690  68.876  1.00  0.00    -0.392 A  
HETATM   10  C   UNL     1      -9.674   8.011  66.596  1.00  0.00    -0.313 A  
HETATM   11  C   UNL     1     -11.754  11.041  70.101  1.00  0.00    -0.442 A  
HETATM   12  C   UNL     1     -11.152   9.772  70.206  1.00  0.00    -0.349 A  
BRANCH  12  13
HETATM   13  C   UNL     1     -10.954   9.149  71.586  1.00  0.00    -0.445 C  
BRANCH  13  14
HETATM   14  C   UNL     1     -12.029   8.151  72.048  1.00  0.00    -0.340 C  
BRANCH  14  15
HETATM   15  N   UNL     1     -11.565   7.246  73.090  1.00  0.00    -0.560 N  
HETATM   16  C   UNL     1     -11.075   5.993  72.807  1.00  0.00    -0.269 C  
HETATM   17  H   UNL     1     -11.605   7.552  74.063  1.00  0.00     0.000 HD 
HETATM   18  C   UNL     1     -10.732   5.172  74.022  1.00  0.00    -0.320 C  
HETATM   19  O   UNL     1     -10.914   5.562  71.670  1.00  0.00    -0.238 OA 
ENDBRANCH  14  15
ENDBRANCH  13  14
ENDBRANCH  12  13
ENDBRANCH   2   3
TORSDOF 4
ENDMDL
MODEL       99
REMARK 921   NORMALIZED FREE ENERGY PREDICTED BY IDOCK:   -4.37 KCAL/MOL
REMARK 922        TOTAL FREE ENERGY PREDICTED BY IDOCK:   -5.83 KCAL/MOL
REMARK 923 INTER-LIGAND FREE ENERGY PREDICTED BY IDOCK:   -5.52 KCAL/MOL
REMARK 924 INTRA-LIGAND FREE ENERGY PREDICTED BY IDOCK:   -0.31 KCAL/MOL
REMARK 927      BINDING AFFINITY PREDICTED BY RF-SCORE:    0.00 PKD
ROOT
HETATM    1  C   UNL     1     -13.174   9.889  71.713  1.00  0.00    -0.434 C  
HETATM    2  O   UNL     1     -11.932  10.220  71.092  1.00  0.00    -0.342 OA 
ENDROOT
BRANCH   2   3
HETATM    3  C   UNL     1     -11.932  11.418  70.427  1.00  0.00    -0.374 A  
HETATM    4  C   UNL     1     -11.377  11.412  69.140  1.00  0.00    -0.353 A  
HETATM    5  C   UNL     1     -11.272  12.592  68.354  1.00  0.00    -0.313 A  
HETATM    6  C   UNL     1     -11.787  13.783  68.932  1.00  0.00    -0.396 A  
HETATM    7  C   UNL     1     -11.697  15.000  68.247  1.00  0.00    -0.338 A  
HETATM    8  C   UNL     1     -12.398  13.763  70.192  1.00  0.00    -0.390 A  
HETATM    9  C   UNL     1     -11.104  15.068  66.995  1.00  0.00    -0.334 A  
HETATM   10  C   UNL     1     -12.472  12.589  70.937  1.00  0.00    -0.361 A  
HETATM   11  C   UNL     1     -10.618  13.910  66.397  1.00  0.00    -0.280 A  
HETATM   12  C   UNL     1     -10.686  12.663  67.048  1.00  0.00    -0.268 A  
BRANCH  12  13
HETATM   13  C   UNL     1     -10.235  11.406  66.308  1.00  0.00    -0.274 C  
BRANCH  13  14
HETATM   14  C   UNL     1     -10.480  11.379  64.790  1.00  0.00    -0.308 C  
BRANCH  14  15
HETATM   15  N   UNL     1      -9.255  11.293  64.009  1.00  0.00    -0.389 N  
HETATM   16  C   UNL     1      -8.633  10.094  63.751  1.00  0.00    -0.200 C  
HETATM   17  H   UNL     1      -8.843  12.151  63.641  1.00  0.00     0.000 HD 
HETATM   18  C   UNL     1      -7.330  10.219  63.007  1.00  0.00    -0.125 C  
HETATM   19  O   UNL     1      -9.087   9.004  64.081  1.00  0.00    -0.038 OA 
ENDBRANCH  14  15
ENDBRANCH  13  14
ENDBRANCH  12  13
ENDBRANCH   2   3
TORSDOF 4
ENDMDL
MODEL      100
REMARK 921   NORMALIZED FREE ENERGY PREDICTED BY IDOCK:   -4.36 KCAL/MOL
REMARK 922        TOTAL FREE ENERGY PREDICTED BY IDOCK:   -5.82 KCAL/MOL
REMARK 923 INTER-LIGAND FREE ENERGY PREDICTED BY IDOCK:   -5.42 KCAL/MOL
REMARK 924 INTRA-LIGAND FREE ENERGY PREDICTED BY IDOCK:   -0.40 KCAL/MOL
REMARK 927      BINDING AFFINITY PREDICTED BY RF-SCORE:    0.00 PKD
ROOT
HETATM    1  C   UNL     1     -10.800   7.139  67.343  1.00  0.00    -0.276 C  
HETATM    2  O   UNL     1     -10.098   7.608  68.495  1.00  0.00    -0.178 OA 
ENDROOT
BRANCH   2   3
HETATM    3  C   UNL     1     -10.632   8.735  69.064  1.00  0.00    -0.171 A  
HETATM    4  C   UNL     1     -10.809   9.833  68.212  1.00  0.00    -0.256 A  
HETATM    5  C   UNL     1     -11.312  11.079  68.678  1.00  0.00    -0.346 A  
HETATM    6  C   UNL     1     -11.654  11.148  70.055  1.00  0.00    -0.421 A  
HETATM    7  C   UNL     1     -12.125  12.343  70.610  1.00  0.00    -0.317 A  
HETATM    8  C   UNL     1     -11.534  10.023  70.880  1.00  0.00    -0.452 A  
HETATM    9  C   UNL     1     -12.264  13.482  69.831  1.00  0.00    -0.356 A  
HETATM   10  C   UNL     1     -11.027   8.822  70.391  1.00  0.00    -0.262 A  
HETATM   11  C   UNL     1     -11.961  13.432  68.474  1.00  0.00    -0.363 A  
HETATM   12  C   UNL     1     -11.484  12.251  67.870  1.00  0.00    -0.390 A  
BRANCH  12  13
HETATM   13  C   UNL     1     -11.267  12.218  66.360  1.00  0.00    -0.370 C  
BRANCH  13  14
HETATM   14  C   UNL     1      -9.807  12.218  65.876  1.00  0.00    -0.251 C  
BRANCH  14  15
HETATM   15  N   UNL     1      -9.110  13.467  66.149  1.00  0.00    -0.468 N  
HETATM   16  C   UNL     1      -8.358  13.652  67.285  1.00  0.00    -0.171 C  
HETATM   17  H   UNL     1      -9.182  14.229  65.475  1.00  0.00     0.000 HD 
HETATM   18  C   UNL     1      -7.790  15.039  67.433  1.00  0.00    -0.226 C  
HETATM   19  O   UNL     1      -8.146  12.776  68.116  1.00  0.00    -0.141 OA 
ENDBRANCH  14  15
ENDBRANCH  13  14
ENDBRANCH  12  13
ENDBRANCH   2   3
TORSDOF 4
ENDMDL
MODEL      101
REMARK 921   NORMALIZED FREE ENERGY PREDICTED BY IDOCK:   -4.36 KCAL/MOL
REMARK 922        TOTAL FREE ENERGY PREDICTED BY IDOCK:   -5.81 KCAL/MOL
REMARK 923 INTER-LIGAND FREE ENERGY PREDICTED BY IDOCK:   -5.49 KCAL/MOL
REMARK 924 INTRA-LIGAND FREE ENERGY PREDICTED BY IDOCK:   -0.32 KCAL/MOL
REMARK 927      BINDING AFFINITY PREDICTED BY RF-SCORE:    0.00 PKD
ROOT
HETATM    1  C   UNL     1     -11.940  15.187  64.125  1.00  0.00    -0.170 C  
HETATM    2  O   UNL     1     -11.510  16.539  64.283  1.00  0.00    -1.000 OA 
ENDROOT
BRANCH   2   3
HETATM    3  C   UNL     1     -10.686  16.749  65.358  1.00  0.00    -0.189 A  
HETATM    4  C   UNL     1     -10.098  15.608  65.919  1.00  0.00    -0.378 A  
HETATM    5  C   UNL     1      -9.258  15.675  67.064  1.00  0.00    -0.239 A  
HETATM    6  C   UNL     1      -9.020  16.969  67.600  1.00  0.00    -0.221 A  
HETATM    7  C   UNL     1      -8.234  17.129  68.746  1.00  0.00    -0.238 A  
HETATM    8  C   UNL     1      -9.562  18.107  66.990  1.00  0.00    -0.287 A  
HETATM    9  C   UNL     1      -7.673  16.031  69.382  1.00  0.00    -0.173 A  
HETATM   10  C   UNL     1     -10.389  18.002  65.876  1.00  0.00    -0.274 A  
HETATM   11  C   UNL     1      -7.869  14.757  68.861  1.00  0.00    -0.152 A  
HETATM   12  C   UNL     1      -8.653  14.546  67.709  1.00  0.00    -0.176 A  
BRANCH  12  13
HETATM   13  C   UNL     1      -8.751  13.143  67.116  1.00  0.00    -0.214 C  
BRANCH  13  14
HETATM   14  C   UNL     1     -10.063  12.382  67.365  1.00  0.00    -0.201 C  
BRANCH  14  15
HETATM   15  N   UNL     1     -10.550  12.505  68.732  1.00  0.00    -0.333 N  
HETATM   16  C   UNL     1     -11.713  11.904  69.152  1.00  0.00    -0.319 C  
HETATM   17  H   UNL     1     -10.011  13.056  69.400  1.00  0.00     0.000 HD 
HETATM   18  C   UNL     1     -12.098  12.222  70.572  1.00  0.00    -0.371 C  
HETATM   19  O   UNL     1     -12.391  11.161  68.450  1.00  0.00    -0.556 OA 
ENDBRANCH  14  15
ENDBRANCH  13  14
ENDBRANCH  12  13
ENDBRANCH   2   3
TORSDOF 4
ENDMDL
MODEL      102
REMARK 921   NORMALIZED FREE ENERGY PREDICTED BY IDOCK:   -4.35 KCAL/MOL
REMARK 922        TOTAL FREE ENERGY PREDICTED BY IDOCK:   -5.81 KCAL/MOL
REMARK 923 INTER-LIGAND FREE ENERGY PREDICTED BY IDOCK:   -5.41 KCAL/MOL
REMARK 924 INTRA-LIGAND FREE ENERGY PREDICTED BY IDOCK:   -0.40 KCAL/MOL
REMARK 927      BINDING AFFINITY PREDICTED BY RF-SCORE:    0.00 PKD
ROOT
HETATM    1  C   UNL     1      -7.741  15.467  69.396  1.00  0.00    -0.227 C  
HETATM    2  O   UNL     1      -8.762  16.380  68.994  1.00  0.00    -0.248 OA 
ENDROOT
BRANCH   2   3
HETATM    3  C   UNL     1      -9.441  16.008  67.863  1.00  0.00    -0.210 A  
HETATM    4  C   UNL     1     -10.168  14.813  67.942  1.00  0.00    -0.229 A  
HETATM    5  C   UNL     1     -10.882  14.286  66.831  1.00  0.00    -0.298 A  
HETATM    6  C   UNL     1     -10.846  15.051  65.635  1.00  0.00    -0.356 A  
HETATM    7  C   UNL     1     -11.491  14.595  64.481  1.00  0.00    -0.340 A  
HETATM    8  C   UNL     1     -10.170  16.277  65.590  1.00  0.00    -0.368 A  
HETATM    9  C   UNL     1     -12.176  13.389  64.480  1.00  0.00    -0.450 A  
HETATM   10  C   UNL     1      -9.472  16.756  66.695  1.00  0.00    -0.275 A  
HETATM   11  C   UNL     1     -12.249  12.635  65.646  1.00  0.00    -0.474 A  
HETATM   12  C   UNL     1     -11.615  13.054  66.833  1.00  0.00    -0.419 A  
BRANCH  12  13
HETATM   13  C   UNL     1     -11.813  12.246  68.113  1.00  0.00    -0.372 C  
BRANCH  13  14
HETATM   14  C   UNL     1     -10.596  11.454  68.620  1.00  0.00    -0.199 C  
BRANCH  14  15
HETATM   15  N   UNL     1     -10.603  10.058  68.205  1.00  0.00    -0.213 N  
HETATM   16  C   UNL     1      -9.990   9.635  67.049  1.00  0.00    -0.206 C  
HETATM   17  H   UNL     1     -11.078   9.372  68.792  1.00  0.00     0.000 HD 
HETATM   18  C   UNL     1     -10.184   8.173  66.745  1.00  0.00    -0.372 C  
HETATM   19  O   UNL     1      -9.330  10.365  66.318  1.00  0.00    -0.159 OA 
ENDBRANCH  14  15
ENDBRANCH  13  14
ENDBRANCH  12  13
ENDBRANCH   2   3
TORSDOF 4
ENDMDL
MODEL      103
REMARK 921   NORMALIZED FREE ENERGY PREDICTED BY IDOCK:   -4.34 KCAL/MOL
REMARK 922        TOTAL FREE ENERGY PREDICTED BY IDOCK:   -5.79 KCAL/MOL
REMARK 923 INTER-LIGAND FREE ENERGY PREDICTED BY IDOCK:   -5.22 KCAL/MOL
REMARK 924 INTRA-LIGAND FREE ENERGY PREDICTED BY IDOCK:   -0.57 KCAL/MOL
REMARK 927      BINDING AFFINITY PREDICTED BY RF-SCORE:    0.00 PKD
ROOT
HETATM    1  C   UNL     1     -10.057  10.463  66.328  1.00  0.00    -0.231 C  
HETATM    2  O   UNL     1      -9.465  10.211  67.603  1.00  0.00    -0.146 OA 
ENDROOT
BRANCH   2   3
HETATM    3  C   UNL     1     -10.347  10.236  68.651  1.00  0.00    -0.184 A  
HETATM    4  C   UNL     1     -10.656   8.998  69.230  1.00  0.00    -0.226 A  
HETATM    5  C   UNL     1     -11.588   8.871  70.296  1.00  0.00    -0.049 A  
HETATM    6  C   UNL     1     -12.176  10.075  70.768  1.00  0.00    -0.408 A  
HETATM    7  C   UNL     1     -13.130  10.046  71.791  1.00  0.00    -0.562 A  
HETATM    8  C   UNL     1     -11.810  11.313  70.223  1.00  0.00    -0.446 A  
HETATM    9  C   UNL     1     -13.522   8.844  72.362  1.00  0.00    -0.499 A  
HETATM   10  C   UNL     1     -10.901  11.396  69.173  1.00  0.00    -0.260 A  
HETATM   11  C   UNL     1     -12.940   7.655  71.936  1.00  0.00    -0.299 A  
HETATM   12  C   UNL     1     -11.975   7.634  70.909  1.00  0.00    -0.252 A  
BRANCH  12  13
HETATM   13  C   UNL     1     -11.289   6.318  70.551  1.00  0.00    -0.428 C  
BRANCH  13  14
HETATM   14  C   UNL     1     -10.386   5.700  71.631  1.00  0.00    -0.215 C  
BRANCH  14  15
HETATM   15  N   UNL     1      -9.392   6.627  72.152  1.00  0.00    -0.142 N  
HETATM   16  C   UNL     1      -9.501   7.190  73.402  1.00  0.00    -0.193 C  
HETATM   17  H   UNL     1      -8.589   6.867  71.571  1.00  0.00     0.000 HD 
HETATM   18  C   UNL     1      -8.425   8.193  73.725  1.00  0.00    -0.309 C  
HETATM   19  O   UNL     1     -10.384   6.909  74.204  1.00  0.00    -0.373 OA 
ENDBRANCH  14  15
ENDBRANCH  13  14
ENDBRANCH  12  13
ENDBRANCH   2   3
TORSDOF 4
ENDMDL
MODEL      104
REMARK 921   NORMALIZED FREE ENERGY PREDICTED BY IDOCK:   -4.30 KCAL/MOL
REMARK 922        TOTAL FREE ENERGY PREDICTED BY IDOCK:   -5.74 KCAL/MOL
REMARK 923 INTER-LIGAND FREE ENERGY PREDICTED BY IDOCK:   -5.42 KCAL/MOL
REMARK 924 INTRA-LIGAND FREE ENERGY PREDICTED BY IDOCK:   -0.32 KCAL/MOL
REMARK 927      BINDING AFFINITY PREDICTED BY RF-SCORE:    0.00 PKD
ROOT
HETATM    1  C   UNL     1     -13.821  16.042  73.185  1.00  0.00    -0.257 C  
HETATM    2  O   UNL     1     -13.772  15.720  71.795  1.00  0.00    -0.435 OA 
ENDROOT
BRANCH   2   3
HETATM    3  C   UNL     1     -13.307  14.460  71.522  1.00  0.00    -0.355 A  
HETATM    4  C   UNL     1     -12.830  14.246  70.222  1.00  0.00    -0.207 A  
HETATM    5  C   UNL     1     -12.358  12.976  69.788  1.00  0.00    -0.141 A  
HETATM    6  C   UNL     1     -12.369  11.934  70.753  1.00  0.00    -0.416 A  
HETATM    7  C   UNL     1     -11.955  10.643  70.409  1.00  0.00    -0.436 A  
HETATM    8  C   UNL     1     -12.787  12.179  72.068  1.00  0.00    -0.256 A  
HETATM    9  C   UNL     1     -11.530  10.354  69.121  1.00  0.00    -0.261 A  
HETATM   10  C   UNL     1     -13.253  13.433  72.453  1.00  0.00    -0.564 A  
HETATM   11  C   UNL     1     -11.484  11.364  68.165  1.00  0.00    -0.375 A  
HETATM   12  C   UNL     1     -11.890  12.679  68.466  1.00  0.00    -0.342 A  
BRANCH  12  13
HETATM   13  C   UNL     1     -11.722  13.774  67.415  1.00  0.00    -0.417 C  
BRANCH  13  14
HETATM   14  C   UNL     1     -10.530  14.727  67.603  1.00  0.00    -0.254 C  
BRANCH  14  15
HETATM   15  N   UNL     1      -9.265  14.035  67.803  1.00  0.00    -0.188 N  
HETATM   16  C   UNL     1      -8.297  14.511  68.656  1.00  0.00    -0.164 C  
HETATM   17  H   UNL     1      -9.090  13.168  67.293  1.00  0.00     0.000 HD 
HETATM   18  C   UNL     1      -7.023  13.707  68.658  1.00  0.00    -0.103 C  
HETATM   19  O   UNL     1      -8.439  15.498  69.369  1.00  0.00    -0.247 OA 
ENDBRANCH  14  15
ENDBRANCH  13  14
ENDBRANCH  12  13
ENDBRANCH   2   3
TORSDOF 4
ENDMDL
MODEL      105
REMARK 921   NORMALIZED FREE ENERGY PREDICTED BY IDOCK:   -4.30 KCAL/MOL
REMARK 922        TOTAL FREE ENERGY PREDICTED BY IDOCK:   -5.74 KCAL/MOL
REMARK 923 INTER-LIGAND FREE ENERGY PREDICTED BY IDOCK:   -5.34 KCAL/MOL
REMARK 924 INTRA-LIGAND FREE ENERGY PREDICTED BY IDOCK:   -0.40 KCAL/MOL
REMARK 927      BINDING AFFINITY PREDICTED BY RF-SCORE:    0.00 PKD
ROOT
HETATM    1  C   UNL     1     -10.618   5.123  66.436  1.00  0.00    -0.276 C  
HETATM    2  O   UNL     1      -9.780   5.273  67.582  1.00  0.00    -0.130 OA 
ENDROOT
BRANCH   2   3
HETATM    3  C   UNL     1     -10.250   6.160  68.515  1.00  0.00    -0.185 A  
HETATM    4  C   UNL     1     -10.323   7.500  68.113  1.00  0.00    -0.244 A  
HETATM    5  C   UNL     1     -10.751   8.533  68.992  1.00  0.00    -0.113 A  
HETATM    6  C   UNL     1     -11.129   8.132  70.301  1.00  0.00    -0.221 A  
HETATM    7  C   UNL     1     -11.531   9.082  71.246  1.00  0.00    -0.390 A  
HETATM    8  C   UNL     1     -11.113   6.780  70.669  1.00  0.00    -0.338 A  
HETATM    9  C   UNL     1     -11.566  10.431  70.926  1.00  0.00    -0.428 A  
HETATM   10  C   UNL     1     -10.678   5.798  69.784  1.00  0.00    -0.418 A  
HETATM   11  C   UNL     1     -11.226  10.845  69.642  1.00  0.00    -0.348 A  
HETATM   12  C   UNL     1     -10.816   9.925  68.657  1.00  0.00    -0.244 A  
BRANCH  12  13
HETATM   13  C   UNL     1     -10.556  10.416  67.235  1.00  0.00    -0.322 C  
BRANCH  13  14
HETATM   14  C   UNL     1     -10.063  11.865  67.089  1.00  0.00    -0.204 C  
BRANCH  14  15
HETATM   15  N   UNL     1     -10.841  12.645  66.137  1.00  0.00    -0.268 N  
HETATM   16  C   UNL     1     -11.890  13.444  66.528  1.00  0.00    -0.396 C  
HETATM   17  H   UNL     1     -10.600  12.598  65.146  1.00  0.00     0.000 HD 
HETATM   18  C   UNL     1     -12.628  14.099  65.391  1.00  0.00    -0.485 C  
HETATM   19  O   UNL     1     -12.209  13.630  67.697  1.00  0.00    -0.326 OA 
ENDBRANCH  14  15
ENDBRANCH  13  14
ENDBRANCH  12  13
ENDBRANCH   2   3
TORSDOF 4
ENDMDL
MODEL      106
REMARK 921   NORMALIZED FREE ENERGY PREDICTED BY IDOCK:   -4.29 KCAL/MOL
REMARK 922        TOTAL FREE ENERGY PREDICTED BY IDOCK:   -5.73 KCAL/MOL
REMARK 923 INTER-LIGAND FREE ENERGY PREDICTED BY IDOCK:   -5.35 KCAL/MOL
REMARK 924 INTRA-LIGAND FREE ENERGY PREDICTED BY IDOCK:   -0.38 KCAL/MOL
REMARK 927      BINDING AFFINITY PREDICTED BY RF-SCORE:    0.00 PKD
ROOT
HETATM    1  C   UNL     1     -10.783  18.761  67.407  1.00  0.00    -0.424 C  
HETATM    2  O   UNL     1     -10.228  17.526  66.955  1.00  0.00    -0.307 OA 
ENDROOT
BRANCH   2   3
HETATM    3  C   UNL     1     -10.573  16.438  67.715  1.00  0.00    -0.321 A  
HETATM    4  C   UNL     1     -10.665  15.215  67.038  1.00  0.00    -0.307 A  
HETATM    5  C   UNL     1     -11.056  14.015  67.692  1.00  0.00    -0.298 A  
HETATM    6  C   UNL     1     -11.324  14.112  69.084  1.00  0.00    -0.318 A  
HETATM    7  C   UNL     1     -11.748  12.990  69.805  1.00  0.00    -0.346 A  
HETATM    8  C   UNL     1     -11.164  15.328  69.761  1.00  0.00    -0.300 A  
HETATM    9  C   UNL     1     -11.917  11.765  69.177  1.00  0.00    -0.356 A  
HETATM   10  C   UNL     1     -10.790  16.485  69.084  1.00  0.00    -0.334 A  
HETATM   11  C   UNL     1     -11.634  11.638  67.821  1.00  0.00    -0.359 A  
HETATM   12  C   UNL     1     -11.205  12.739  67.054  1.00  0.00    -0.336 A  
BRANCH  12  13
HETATM   13  C   UNL     1     -10.806  12.526  65.596  1.00  0.00    -0.311 C  
BRANCH  13  14
HETATM   14  C   UNL     1     -10.240  11.143  65.235  1.00  0.00    -0.280 C  
BRANCH  14  15
HETATM   15  N   UNL     1      -8.793  11.138  65.069  1.00  0.00    -0.372 N  
HETATM   16  C   UNL     1      -7.969  10.374  65.862  1.00  0.00    -0.151 C  
HETATM   17  H   UNL     1      -8.378  11.719  64.341  1.00  0.00     0.000 HD 
HETATM   18  C   UNL     1      -6.500  10.572  65.600  1.00  0.00    -0.119 C  
HETATM   19  O   UNL     1      -8.373   9.586  66.710  1.00  0.00    -0.115 OA 
ENDBRANCH  14  15
ENDBRANCH  13  14
ENDBRANCH  12  13
ENDBRANCH   2   3
TORSDOF 4
ENDMDL
MODEL      107
REMARK 921   NORMALIZED FREE ENERGY PREDICTED BY IDOCK:   -4.29 KCAL/MOL
REMARK 922        TOTAL FREE ENERGY PREDICTED BY IDOCK:   -5.73 KCAL/MOL
REMARK 923 INTER-LIGAND FREE ENERGY PREDICTED BY IDOCK:   -5.27 KCAL/MOL
REMARK 924 INTRA-LIGAND FREE ENERGY PREDICTED BY IDOCK:   -0.46 KCAL/MOL
REMARK 927      BINDING AFFINITY PREDICTED BY RF-SCORE:    0.00 PKD
ROOT
HETATM    1  C   UNL     1     -13.058   9.910  71.789  1.00  0.00    -0.452 C  
HETATM    2  O   UNL     1     -11.820  10.231  71.156  1.00  0.00    -0.353 OA 
ENDROOT
BRANCH   2   3
HETATM    3  C   UNL     1     -11.846  11.382  70.411  1.00  0.00    -0.335 A  
HETATM    4  C   UNL     1     -11.424  11.267  69.080  1.00  0.00    -0.364 A  
HETATM    5  C   UNL     1     -11.359  12.387  68.207  1.00  0.00    -0.332 A  
HETATM    6  C   UNL     1     -11.772  13.634  68.747  1.00  0.00    -0.383 A  
HETATM    7  C   UNL     1     -11.710  14.798  67.973  1.00  0.00    -0.360 A  
HETATM    8  C   UNL     1     -12.253  13.723  70.060  1.00  0.00    -0.407 A  
HETATM    9  C   UNL     1     -11.244  14.759  66.667  1.00  0.00    -0.346 A  
HETATM   10  C   UNL     1     -12.292  12.605  70.889  1.00  0.00    -0.352 A  
HETATM   11  C   UNL     1     -10.860  13.545  66.108  1.00  0.00    -0.284 A  
HETATM   12  C   UNL     1     -10.905  12.347  66.848  1.00  0.00    -0.286 A  
BRANCH  12  13
HETATM   13  C   UNL     1     -10.574  11.026  66.157  1.00  0.00    -0.288 C  
BRANCH  13  14
HETATM   14  C   UNL     1      -9.083  10.672  66.032  1.00  0.00    -0.180 C  
BRANCH  14  15
HETATM   15  N   UNL     1      -8.576   9.906  67.161  1.00  0.00    -0.125 N  
HETATM   16  C   UNL     1      -8.640   8.533  67.202  1.00  0.00    -0.122 C  
HETATM   17  H   UNL     1      -8.159  10.404  67.948  1.00  0.00     0.000 HD 
HETATM   18  C   UNL     1      -8.149   7.927  68.490  1.00  0.00    -0.123 C  
HETATM   19  O   UNL     1      -9.050   7.839  66.277  1.00  0.00    -0.172 OA 
ENDBRANCH  14  15
ENDBRANCH  13  14
ENDBRANCH  12  13
ENDBRANCH   2   3
TORSDOF 4
ENDMDL
MODEL      108
REMARK 921   NORMALIZED FREE ENERGY PREDICTED BY IDOCK:   -4.28 KCAL/MOL
REMARK 922        TOTAL FREE ENERGY PREDICTED BY IDOCK:   -5.72 KCAL/MOL
REMARK 923 INTER-LIGAND FREE ENERGY PREDICTED BY IDOCK:   -5.42 KCAL/MOL
REMARK 924 INTRA-LIGAND FREE ENERGY PREDICTED BY IDOCK:   -0.30 KCAL/MOL
REMARK 927      BINDING AFFINITY PREDICTED BY RF-SCORE:    0.00 PKD
ROOT
HETATM    1  C   UNL     1     -12.697  10.946  71.245  1.00  0.00    -0.437 C  
HETATM    2  O   UNL     1     -11.438  10.600  70.666  1.00  0.00    -0.324 OA 
ENDROOT
BRANCH   2   3
HETATM    3  C   UNL     1     -11.325  10.904  69.334  1.00  0.00    -0.280 A  
HETATM    4  C   UNL     1     -10.667   9.957  68.538  1.00  0.00    -0.260 A  
HETATM    5  C   UNL     1     -10.441  10.161  67.150  1.00  0.00    -0.305 A  
HETATM    6  C   UNL     1     -10.942  11.371  66.599  1.00  0.00    -0.341 A  
HETATM    7  C   UNL     1     -10.737  11.674  65.248  1.00  0.00    -0.346 A  
HETATM    8  C   UNL     1     -11.654  12.279  67.393  1.00  0.00    -0.425 A  
HETATM    9  C   UNL     1     -10.040  10.804  64.423  1.00  0.00    -0.419 A  
HETATM   10  C   UNL     1     -11.847  12.049  68.752  1.00  0.00    -0.358 A  
HETATM   11  C   UNL     1      -9.563   9.601  64.933  1.00  0.00    -0.244 A  
HETATM   12  C   UNL     1      -9.746   9.252  66.286  1.00  0.00    -0.340 A  
BRANCH  12  13
HETATM   13  C   UNL     1      -9.298   7.876  66.771  1.00  0.00    -0.232 C  
BRANCH  13  14
HETATM   14  C   UNL     1     -10.375   6.779  66.813  1.00  0.00    -0.215 C  
BRANCH  14  15
HETATM   15  N   UNL     1     -10.046   5.616  66.002  1.00  0.00    -0.394 N  
HETATM   16  C   UNL     1      -9.583   4.446  66.555  1.00  0.00    -0.197 C  
HETATM   17  H   UNL     1     -10.162   5.671  64.990  1.00  0.00     0.000 HD 
HETATM   18  C   UNL     1      -9.211   3.389  65.549  1.00  0.00    -0.153 C  
HETATM   19  O   UNL     1      -9.482   4.252  67.762  1.00  0.00    -0.150 OA 
ENDBRANCH  14  15
ENDBRANCH  13  14
ENDBRANCH  12  13
ENDBRANCH   2   3
TORSDOF 4
ENDMDL
MODEL      109
REMARK 921   NORMALIZED FREE ENERGY PREDICTED BY IDOCK:   -4.27 KCAL/MOL
REMARK 922        TOTAL FREE ENERGY PREDICTED BY IDOCK:   -5.70 KCAL/MOL
REMARK 923 INTER-LIGAND FREE ENERGY PREDICTED BY IDOCK:   -5.41 KCAL/MOL
REMARK 924 INTRA-LIGAND FREE ENERGY PREDICTED BY IDOCK:   -0.30 KCAL/MOL
REMARK 927      BINDING AFFINITY PREDICTED BY RF-SCORE:    0.00 PKD
ROOT
HETATM    1  C   UNL     1      -5.641   8.675  73.938  1.00  0.00    -0.110 C  
HETATM    2  O   UNL     1      -7.067   8.754  73.955  1.00  0.00    -0.357 OA 
ENDROOT
BRANCH   2   3
HETATM    3  C   UNL     1      -7.686   8.025  72.973  1.00  0.00    -0.144 A  
HETATM    4  C   UNL     1      -9.051   8.277  72.784  1.00  0.00    -0.332 A  
HETATM    5  C   UNL     1      -9.828   7.563  71.830  1.00  0.00    -0.196 A  
HETATM    6  C   UNL     1      -9.140   6.593  71.054  1.00  0.00    -0.156 A  
HETATM    7  C   UNL     1      -9.828   5.817  70.114  1.00  0.00    -0.240 A  
HETATM    8  C   UNL     1      -7.761   6.397  71.208  1.00  0.00    -0.095 A  
HETATM    9  C   UNL     1     -11.193   5.977  69.925  1.00  0.00    -0.438 A  
HETATM   10  C   UNL     1      -7.036   7.108  72.160  1.00  0.00    -0.067 A  
HETATM   11  C   UNL     1     -11.883   6.940  70.654  1.00  0.00    -0.418 A  
HETATM   12  C   UNL     1     -11.233   7.744  71.610  1.00  0.00    -0.286 A  
BRANCH  12  13
HETATM   13  C   UNL     1     -12.011   8.857  72.307  1.00  0.00    -0.380 C  
BRANCH  13  14
HETATM   14  C   UNL     1     -12.603   9.951  71.403  1.00  0.00    -0.398 C  
BRANCH  14  15
HETATM   15  N   UNL     1     -13.180  11.063  72.144  1.00  0.00    -0.583 N  
HETATM   16  C   UNL     1     -13.014  12.370  71.751  1.00  0.00    -0.316 C  
HETATM   17  H   UNL     1     -13.726  10.866  72.983  1.00  0.00     0.000 HD 
HETATM   18  C   UNL     1     -13.607  13.381  72.696  1.00  0.00    -0.543 C  
HETATM   19  O   UNL     1     -12.443  12.707  70.719  1.00  0.00    -0.348 OA 
ENDBRANCH  14  15
ENDBRANCH  13  14
ENDBRANCH  12  13
ENDBRANCH   2   3
TORSDOF 4
ENDMDL
MODEL      110
REMARK 921   NORMALIZED FREE ENERGY PREDICTED BY IDOCK:   -4.26 KCAL/MOL
REMARK 922        TOTAL FREE ENERGY PREDICTED BY IDOCK:   -5.69 KCAL/MOL
REMARK 923 INTER-LIGAND FREE ENERGY PREDICTED BY IDOCK:   -5.38 KCAL/MOL
REMARK 924 INTRA-LIGAND FREE ENERGY PREDICTED BY IDOCK:   -0.31 KCAL/MOL
REMARK 927      BINDING AFFINITY PREDICTED BY RF-SCORE:    0.00 PKD
ROOT
HETATM    1  C   UNL     1      -9.669   8.060  70.501  1.00  0.00    -0.178 C  
HETATM    2  O   UNL     1     -10.724   8.173  69.546  1.00  0.00    -0.227 OA 
ENDROOT
BRANCH   2   3
HETATM    3  C   UNL     1     -10.326   8.620  68.313  1.00  0.00    -0.207 A  
HETATM    4  C   UNL     1     -10.825   9.868  67.917  1.00  0.00    -0.312 A  
HETATM    5  C   UNL     1     -10.529  10.433  66.646  1.00  0.00    -0.279 A  
HETATM    6  C   UNL     1      -9.675   9.676  65.801  1.00  0.00    -0.350 A  
HETATM    7  C   UNL     1      -9.355  10.135  64.519  1.00  0.00    -0.345 A  
HETATM    8  C   UNL     1      -9.131   8.460  66.236  1.00  0.00    -0.241 A  
HETATM    9  C   UNL     1      -9.868  11.335  64.046  1.00  0.00    -0.334 A  
HETATM   10  C   UNL     1      -9.452   7.933  67.483  1.00  0.00    -0.175 A  
HETATM   11  C   UNL     1     -10.685  12.107  64.866  1.00  0.00    -0.336 A  
HETATM   12  C   UNL     1     -11.033  11.685  66.164  1.00  0.00    -0.339 A  
BRANCH  12  13
HETATM   13  C   UNL     1     -11.845  12.616  67.061  1.00  0.00    -0.415 C  
BRANCH  13  14
HETATM   14  C   UNL     1     -11.695  14.124  66.800  1.00  0.00    -0.410 C  
BRANCH  14  15
HETATM   15  N   UNL     1     -11.875  14.937  67.994  1.00  0.00    -0.486 N  
HETATM   16  C   UNL     1     -10.850  15.671  68.542  1.00  0.00    -0.282 C  
HETATM   17  H   UNL     1     -12.793  14.964  68.438  1.00  0.00     0.000 HD 
HETATM   18  C   UNL     1     -11.207  16.373  69.825  1.00  0.00    -0.252 C  
HETATM   19  O   UNL     1      -9.734  15.768  68.041  1.00  0.00    -0.210 OA 
ENDBRANCH  14  15
ENDBRANCH  13  14
ENDBRANCH  12  13
ENDBRANCH   2   3
TORSDOF 4
ENDMDL
MODEL      111
REMARK 921   NORMALIZED FREE ENERGY PREDICTED BY IDOCK:   -4.25 KCAL/MOL
REMARK 922        TOTAL FREE ENERGY PREDICTED BY IDOCK:   -5.68 KCAL/MOL
REMARK 923 INTER-LIGAND FREE ENERGY PREDICTED BY IDOCK:   -5.42 KCAL/MOL
REMARK 924 INTRA-LIGAND FREE ENERGY PREDICTED BY IDOCK:   -0.26 KCAL/MOL
REMARK 927      BINDING AFFINITY PREDICTED BY RF-SCORE:    0.00 PKD
ROOT
HETATM    1  C   UNL     1      -9.005   6.689  68.719  1.00  0.00    -0.125 C  
HETATM    2  O   UNL     1      -9.277   6.517  70.110  1.00  0.00    -0.156 OA 
ENDROOT
BRANCH   2   3
HETATM    3  C   UNL     1     -10.255   7.341  70.602  1.00  0.00    -0.195 A  
HETATM    4  C   UNL     1     -10.297   8.637  70.071  1.00  0.00    -0.213 A  
HETATM    5  C   UNL     1     -11.231   9.610  70.521  1.00  0.00    -0.359 A  
HETATM    6  C   UNL     1     -12.145   9.192  71.525  1.00  0.00    -0.422 A  
HETATM    7  C   UNL     1     -13.079  10.090  72.053  1.00  0.00    -0.541 A  
HETATM    8  C   UNL     1     -12.135   7.874  72.000  1.00  0.00    -0.363 A  
HETATM    9  C   UNL     1     -13.129  11.404  71.611  1.00  0.00    -0.498 A  
HETATM   10  C   UNL     1     -11.198   6.952  71.543  1.00  0.00    -0.290 A  
HETATM   11  C   UNL     1     -12.262  11.829  70.610  1.00  0.00    -0.443 A  
HETATM   12  C   UNL     1     -11.306  10.961  70.048  1.00  0.00    -0.386 A  
BRANCH  12  13
HETATM   13  C   UNL     1     -10.450  11.445  68.879  1.00  0.00    -0.219 C  
BRANCH  13  14
HETATM   14  C   UNL     1     -10.795  10.873  67.494  1.00  0.00    -0.272 C  
BRANCH  14  15
HETATM   15  N   UNL     1      -9.748  10.024  66.944  1.00  0.00    -0.181 N  
HETATM   16  C   UNL     1      -9.538   9.904  65.590  1.00  0.00    -0.256 C  
HETATM   17  H   UNL     1      -9.149   9.501  67.584  1.00  0.00     0.000 HD 
HETATM   18  C   UNL     1      -8.471   8.911  65.214  1.00  0.00    -0.185 C  
HETATM   19  O   UNL     1     -10.150  10.547  64.744  1.00  0.00    -0.318 OA 
ENDBRANCH  14  15
ENDBRANCH  13  14
ENDBRANCH  12  13
ENDBRANCH   2   3
TORSDOF 4
ENDMDL
MODEL      112
REMARK 921   NORMALIZED FREE ENERGY PREDICTED BY IDOCK:   -4.22 KCAL/MOL
REMARK 922        TOTAL FREE ENERGY PREDICTED BY IDOCK:   -5.64 KCAL/MOL
REMARK 923 INTER-LIGAND FREE ENERGY PREDICTED BY IDOCK:   -5.12 KCAL/MOL
REMARK 924 INTRA-LIGAND FREE ENERGY PREDICTED BY IDOCK:   -0.52 KCAL/MOL
REMARK 927      BINDING AFFINITY PREDICTED BY RF-SCORE:    0.00 PKD
ROOT
HETATM    1  C   UNL     1     -11.380  16.415  64.730  1.00  0.00    -0.150 C  
HETATM    2  O   UNL     1     -12.141  15.428  64.035  1.00  0.00    -0.574 OA 
ENDROOT
BRANCH   2   3
HETATM    3  C   UNL     1     -11.710  14.141  64.226  1.00  0.00    -0.345 A  
HETATM    4  C   UNL     1     -10.629  13.974  65.102  1.00  0.00    -0.400 A  
HETATM    5  C   UNL     1     -10.052  12.701  65.359  1.00  0.00    -0.277 A  
HETATM    6  C   UNL     1     -10.647  11.592  64.699  1.00  0.00    -0.366 A  
HETATM    7  C   UNL     1     -10.126  10.304  64.864  1.00  0.00    -0.346 A  
HETATM    8  C   UNL     1     -11.768  11.765  63.877  1.00  0.00    -0.461 A  
HETATM    9  C   UNL     1      -9.019  10.085  65.671  1.00  0.00    -0.203 A  
HETATM   10  C   UNL     1     -12.299  13.030  63.640  1.00  0.00    -0.499 A  
HETATM   11  C   UNL     1      -8.436  11.150  66.349  1.00  0.00    -0.167 A  
HETATM   12  C   UNL     1      -8.926  12.464  66.214  1.00  0.00    -0.041 A  
BRANCH  12  13
HETATM   13  C   UNL     1      -8.320  13.581  67.060  1.00  0.00    -0.096 C  
BRANCH  13  14
HETATM   14  C   UNL     1      -8.693  13.591  68.552  1.00  0.00    -0.082 C  
BRANCH  14  15
HETATM   15  N   UNL     1     -10.089  13.928  68.794  1.00  0.00    -0.348 N  
HETATM   16  C   UNL     1     -10.558  15.217  68.697  1.00  0.00    -0.236 C  
HETATM   17  H   UNL     1     -10.740  13.184  69.043  1.00  0.00     0.000 HD 
HETATM   18  C   UNL     1     -12.007  15.379  69.073  1.00  0.00    -0.313 C  
HETATM   19  O   UNL     1      -9.876  16.168  68.329  1.00  0.00    -0.219 OA 
ENDBRANCH  14  15
ENDBRANCH  13  14
ENDBRANCH  12  13
ENDBRANCH   2   3
TORSDOF 4
ENDMDL
MODEL      113
REMARK 921   NORMALIZED FREE ENERGY PREDICTED BY IDOCK:   -4.22 KCAL/MOL
REMARK 922        TOTAL FREE ENERGY PREDICTED BY IDOCK:   -5.64 KCAL/MOL
REMARK 923 INTER-LIGAND FREE ENERGY PREDICTED BY IDOCK:   -5.35 KCAL/MOL
REMARK 924 INTRA-LIGAND FREE ENERGY PREDICTED BY IDOCK:   -0.29 KCAL/MOL
REMARK 927      BINDING AFFINITY PREDICTED BY RF-SCORE:    0.00 PKD
ROOT
HETATM    1  C   UNL     1      -8.081  11.821  68.343  1.00  0.00    -0.150 C  
HETATM    2  O   UNL     1      -8.673  11.045  67.301  1.00  0.00    -0.128 OA 
ENDROOT
BRANCH   2   3
HETATM    3  C   UNL     1      -9.554  11.737  66.510  1.00  0.00    -0.210 A  
HETATM    4  C   UNL     1      -9.398  13.129  66.482  1.00  0.00    -0.222 A  
HETATM    5  C   UNL     1     -10.268  13.973  65.739  1.00  0.00    -0.343 A  
HETATM    6  C   UNL     1     -11.295  13.329  64.999  1.00  0.00    -0.326 A  
HETATM    7  C   UNL     1     -12.220  14.080  64.266  1.00  0.00    -0.453 A  
HETATM    8  C   UNL     1     -11.399  11.932  64.985  1.00  0.00    -0.333 A  
HETATM    9  C   UNL     1     -12.155  15.465  64.248  1.00  0.00    -0.178 A  
HETATM   10  C   UNL     1     -10.535  11.138  65.733  1.00  0.00    -0.305 A  
HETATM   11  C   UNL     1     -11.141  16.118  64.942  1.00  0.00    -0.336 A  
HETATM   12  C   UNL     1     -10.188  15.404  65.695  1.00  0.00    -0.403 A  
BRANCH  12  13
HETATM   13  C   UNL     1      -9.034  16.158  66.352  1.00  0.00    -0.353 C  
BRANCH  13  14
HETATM   14  C   UNL     1      -9.347  16.869  67.678  1.00  0.00    -0.233 C  
BRANCH  14  15
HETATM   15  N   UNL     1      -8.254  17.702  68.158  1.00  0.00    -0.249 N  
HETATM   16  C   UNL     1      -8.459  18.974  68.639  1.00  0.00    -0.359 C  
HETATM   17  H   UNL     1      -7.304  17.330  68.137  1.00  0.00     0.000 HD 
HETATM   18  C   UNL     1      -7.196  19.710  69.002  1.00  0.00    -0.379 C  
HETATM   19  O   UNL     1      -9.565  19.483  68.778  1.00  0.00    -0.391 OA 
ENDBRANCH  14  15
ENDBRANCH  13  14
ENDBRANCH  12  13
ENDBRANCH   2   3
TORSDOF 4
ENDMDL
MODEL      114
REMARK 921   NORMALIZED FREE ENERGY PREDICTED BY IDOCK:   -4.20 KCAL/MOL
REMARK 922        TOTAL FREE ENERGY PREDICTED BY IDOCK:   -5.62 KCAL/MOL
REMARK 923 INTER-LIGAND FREE ENERGY PREDICTED BY IDOCK:   -5.21 KCAL/MOL
REMARK 924 INTRA-LIGAND FREE ENERGY PREDICTED BY IDOCK:   -0.41 KCAL/MOL
REMARK 927      BINDING AFFINITY PREDICTED BY RF-SCORE:    0.00 PKD
ROOT
HETATM    1  C   UNL     1     -11.314  16.012  64.607  1.00  0.00    -0.306 C  
HETATM    2  O   UNL     1     -10.521  16.972  65.306  1.00  0.00    -0.649 OA 
ENDROOT
BRANCH   2   3
HETATM    3  C   UNL     1      -9.439  16.444  65.961  1.00  0.00    -0.310 A  
HETATM    4  C   UNL     1      -9.597  15.150  66.474  1.00  0.00    -0.293 A  
HETATM    5  C   UNL     1      -8.572  14.498  67.213  1.00  0.00    -0.231 A  
HETATM    6  C   UNL     1      -7.360  15.218  67.384  1.00  0.00    -0.241 A  
HETATM    7  C   UNL     1      -6.308  14.671  68.126  1.00  0.00    -0.144 A  
HETATM    8  C   UNL     1      -7.193  16.485  66.811  1.00  0.00    -0.260 A  
HETATM    9  C   UNL     1      -6.427  13.418  68.710  1.00  0.00    -0.098 A  
HETATM   10  C   UNL     1      -8.223  17.097  66.102  1.00  0.00    -0.269 A  
HETATM   11  C   UNL     1      -7.594  12.682  68.532  1.00  0.00    -0.121 A  
HETATM   12  C   UNL     1      -8.680  13.191  67.794  1.00  0.00    -0.188 A  
BRANCH  12  13
HETATM   13  C   UNL     1      -9.895  12.303  67.539  1.00  0.00    -0.193 C  
BRANCH  13  14
HETATM   14  C   UNL     1      -9.943  11.579  66.184  1.00  0.00    -0.224 C  
BRANCH  14  15
HETATM   15  N   UNL     1     -11.190  11.788  65.462  1.00  0.00    -0.292 N  
HETATM   16  C   UNL     1     -11.220  12.051  64.113  1.00  0.00    -0.373 C  
HETATM   17  H   UNL     1     -12.071  11.737  65.975  1.00  0.00     0.000 HD 
HETATM   18  C   UNL     1     -12.596  12.328  63.566  1.00  0.00    -0.589 C  
HETATM   19  O   UNL     1     -10.227  12.057  63.395  1.00  0.00    -0.428 OA 
ENDBRANCH  14  15
ENDBRANCH  13  14
ENDBRANCH  12  13
ENDBRANCH   2   3
TORSDOF 4
ENDMDL
MODEL      115
REMARK 921   NORMALIZED FREE ENERGY PREDICTED BY IDOCK:   -4.19 KCAL/MOL
REMARK 922        TOTAL FREE ENERGY PREDICTED BY IDOCK:   -5.61 KCAL/MOL
REMARK 923 INTER-LIGAND FREE ENERGY PREDICTED BY IDOCK:   -5.29 KCAL/MOL
REMARK 924 INTRA-LIGAND FREE ENERGY PREDICTED BY IDOCK:   -0.32 KCAL/MOL
REMARK 927      BINDING AFFINITY PREDICTED BY RF-SCORE:    0.00 PKD
ROOT
HETATM    1  C   UNL     1     -11.898  13.412  68.048  1.00  0.00    -0.357 C  
HETATM    2  O   UNL     1     -12.081  13.683  69.438  1.00  0.00    -0.326 OA 
ENDROOT
BRANCH   2   3
HETATM    3  C   UNL     1     -12.253  12.567  70.215  1.00  0.00    -0.267 A  
HETATM    4  C   UNL     1     -11.554  11.421  69.814  1.00  0.00    -0.407 A  
HETATM    5  C   UNL     1     -11.674  10.182  70.502  1.00  0.00    -0.407 A  
HETATM    6  C   UNL     1     -12.523  10.171  71.641  1.00  0.00    -0.506 A  
HETATM    7  C   UNL     1     -12.729   8.989  72.361  1.00  0.00    -0.433 A  
HETATM    8  C   UNL     1     -13.164  11.341  72.068  1.00  0.00    -0.437 A  
HETATM    9  C   UNL     1     -12.112   7.807  71.977  1.00  0.00    -0.351 A  
HETATM   10  C   UNL     1     -13.031  12.533  71.362  1.00  0.00    -0.347 A  
HETATM   11  C   UNL     1     -11.255   7.800  70.882  1.00  0.00    -0.284 A  
HETATM   12  C   UNL     1     -11.016   8.965  70.126  1.00  0.00    -0.245 A  
BRANCH  12  13
HETATM   13  C   UNL     1      -9.987   8.930  69.000  1.00  0.00    -0.195 C  
BRANCH  13  14
HETATM   14  C   UNL     1     -10.040   7.714  68.060  1.00  0.00    -0.187 C  
BRANCH  14  15
HETATM   15  N   UNL     1      -8.779   7.455  67.380  1.00  0.00    -0.121 N  
HETATM   16  C   UNL     1      -8.471   8.024  66.167  1.00  0.00    -0.135 C  
HETATM   17  H   UNL     1      -8.101   6.832  67.819  1.00  0.00     0.000 HD 
HETATM   18  C   UNL     1      -7.162   7.564  65.581  1.00  0.00    -0.066 C  
HETATM   19  O   UNL     1      -9.181   8.845  65.596  1.00  0.00    -0.218 OA 
ENDBRANCH  14  15
ENDBRANCH  13  14
ENDBRANCH  12  13
ENDBRANCH   2   3
TORSDOF 4
ENDMDL
MODEL      116
REMARK 921   NORMALIZED FREE ENERGY PREDICTED BY IDOCK:   -4.17 KCAL/MOL
REMARK 922        TOTAL FREE ENERGY PREDICTED BY IDOCK:   -5.58 KCAL/MOL
REMARK 923 INTER-LIGAND FREE ENERGY PREDICTED BY IDOCK:   -5.08 KCAL/MOL
REMARK 924 INTRA-LIGAND FREE ENERGY PREDICTED BY IDOCK:   -0.50 KCAL/MOL
REMARK 927      BINDING AFFINITY PREDICTED BY RF-SCORE:    0.00 PKD
ROOT
HETATM    1  C   UNL     1     -12.831  11.986  63.391  1.00  0.00    -0.291 C  
HETATM    2  O   UNL     1     -12.942  12.904  64.478  1.00  0.00    -0.725 OA 
ENDROOT
BRANCH   2   3
HETATM    3  C   UNL     1     -11.786  13.079  65.193  1.00  0.00    -0.343 A  
HETATM    4  C   UNL     1     -11.432  12.038  66.061  1.00  0.00    -0.399 A  
HETATM    5  C   UNL     1     -10.283  12.105  66.895  1.00  0.00    -0.228 A  
HETATM    6  C   UNL     1      -9.488  13.278  66.783  1.00  0.00    -0.257 A  
HETATM    7  C   UNL     1      -8.356  13.448  67.588  1.00  0.00    -0.179 A  
HETATM    8  C   UNL     1      -9.818  14.282  65.863  1.00  0.00    -0.322 A  
HETATM    9  C   UNL     1      -7.989  12.479  68.511  1.00  0.00    -0.097 A  
HETATM   10  C   UNL     1     -10.958  14.185  65.071  1.00  0.00    -0.391 A  
HETATM   11  C   UNL     1      -8.736  11.310  68.619  1.00  0.00    -0.136 A  
HETATM   12  C   UNL     1      -9.883  11.095  67.830  1.00  0.00    -0.186 A  
BRANCH  12  13
HETATM   13  C   UNL     1     -10.606   9.752  67.910  1.00  0.00    -0.310 C  
BRANCH  13  14
HETATM   14  C   UNL     1     -10.019   8.606  67.071  1.00  0.00    -0.249 C  
BRANCH  14  15
HETATM   15  N   UNL     1      -9.867   8.942  65.662  1.00  0.00    -0.453 N  
HETATM   16  C   UNL     1      -8.674   9.383  65.140  1.00  0.00    -0.181 C  
HETATM   17  H   UNL     1     -10.671   8.846  65.043  1.00  0.00     0.000 HD 
HETATM   18  C   UNL     1      -8.739   9.766  63.685  1.00  0.00    -0.235 C  
HETATM   19  O   UNL     1      -7.632   9.457  65.782  1.00  0.00    -0.097 OA 
ENDBRANCH  14  15
ENDBRANCH  13  14
ENDBRANCH  12  13
ENDBRANCH   2   3
TORSDOF 4
ENDMDL
MODEL      117
REMARK 921   NORMALIZED FREE ENERGY PREDICTED BY IDOCK:   -4.16 KCAL/MOL
REMARK 922        TOTAL FREE ENERGY PREDICTED BY IDOCK:   -5.57 KCAL/MOL
REMARK 923 INTER-LIGAND FREE ENERGY PREDICTED BY IDOCK:   -5.03 KCAL/MOL
REMARK 924 INTRA-LIGAND FREE ENERGY PREDICTED BY IDOCK:   -0.55 KCAL/MOL
REMARK 927      BINDING AFFINITY PREDICTED BY RF-SCORE:    0.00 PKD
ROOT
HETATM    1  C   UNL     1      -5.199  19.842  70.949  1.00  0.00    -0.245 C  
HETATM    2  O   UNL     1      -5.164  19.410  69.589  1.00  0.00    -0.191 OA 
ENDROOT
BRANCH   2   3
HETATM    3  C   UNL     1      -6.297  19.700  68.874  1.00  0.00    -0.286 A  
HETATM    4  C   UNL     1      -7.376  18.823  69.044  1.00  0.00    -0.288 A  
HETATM    5  C   UNL     1      -8.597  18.978  68.331  1.00  0.00    -0.383 A  
HETATM    6  C   UNL     1      -8.678  20.090  67.451  1.00  0.00    -0.417 A  
HETATM    7  C   UNL     1      -9.828  20.304  66.682  1.00  0.00    -0.562 A  
HETATM    8  C   UNL     1      -7.615  20.995  67.339  1.00  0.00    -0.216 A  
HETATM    9  C   UNL     1     -10.907  19.436  66.761  1.00  0.00    -0.490 A  
HETATM   10  C   UNL     1      -6.431  20.804  68.046  1.00  0.00    -0.362 A  
HETATM   11  C   UNL     1     -10.861  18.356  67.637  1.00  0.00    -0.295 A  
HETATM   12  C   UNL     1      -9.726  18.100  68.431  1.00  0.00    -0.363 A  
BRANCH  12  13
HETATM   13  C   UNL     1      -9.766  16.966  69.452  1.00  0.00    -0.012 C  
BRANCH  13  14
HETATM   14  C   UNL     1      -9.297  15.586  68.962  1.00  0.00    -0.235 C  
BRANCH  14  15
HETATM   15  N   UNL     1      -8.033  15.165  69.550  1.00  0.00    -0.316 N  
HETATM   16  C   UNL     1      -6.855  15.178  68.840  1.00  0.00    -0.120 C  
HETATM   17  H   UNL     1      -8.020  14.851  70.520  1.00  0.00     0.000 HD 
HETATM   18  C   UNL     1      -5.674  14.621  69.589  1.00  0.00    -0.099 C  
HETATM   19  O   UNL     1      -6.750  15.609  67.697  1.00  0.00    -0.147 OA 
ENDBRANCH  14  15
ENDBRANCH  13  14
ENDBRANCH  12  13
ENDBRANCH   2   3
TORSDOF 4
ENDMDL
MODEL      118
REMARK 921   NORMALIZED FREE ENERGY PREDICTED BY IDOCK:   -4.16 KCAL/MOL
REMARK 922        TOTAL FREE ENERGY PREDICTED BY IDOCK:   -5.57 KCAL/MOL
REMARK 923 INTER-LIGAND FREE ENERGY PREDICTED BY IDOCK:   -5.15 KCAL/MOL
REMARK 924 INTRA-LIGAND FREE ENERGY PREDICTED BY IDOCK:   -0.42 KCAL/MOL
REMARK 927      BINDING AFFINITY PREDICTED BY RF-SCORE:    0.00 PKD
ROOT
HETATM    1  C   UNL     1      -7.447  11.080  67.126  1.00  0.00    -0.117 C  
HETATM    2  O   UNL     1      -7.323  12.001  68.210  1.00  0.00    -0.081 OA 
ENDROOT
BRANCH   2   3
HETATM    3  C   UNL     1      -7.455  13.317  67.854  1.00  0.00    -0.143 A  
HETATM    4  C   UNL     1      -8.762  13.771  67.636  1.00  0.00    -0.185 A  
HETATM    5  C   UNL     1      -9.043  15.102  67.220  1.00  0.00    -0.210 A  
HETATM    6  C   UNL     1      -7.924  15.963  67.059  1.00  0.00    -0.270 A  
HETATM    7  C   UNL     1      -8.100  17.279  66.620  1.00  0.00    -0.300 A  
HETATM    8  C   UNL     1      -6.628  15.514  67.343  1.00  0.00    -0.174 A  
HETATM    9  C   UNL     1      -9.365  17.769  66.330  1.00  0.00    -0.219 A  
HETATM   10  C   UNL     1      -6.391  14.201  67.739  1.00  0.00    -0.169 A  
HETATM   11  C   UNL     1     -10.478  16.953  66.505  1.00  0.00    -0.253 A  
HETATM   12  C   UNL     1     -10.351  15.621  66.946  1.00  0.00    -0.293 A  
BRANCH  12  13
HETATM   13  C   UNL     1     -11.608  14.801  67.225  1.00  0.00    -0.385 C  
BRANCH  13  14
HETATM   14  C   UNL     1     -12.369  14.274  65.997  1.00  0.00    -0.395 C  
BRANCH  14  15
HETATM   15  N   UNL     1     -11.588  13.349  65.188  1.00  0.00    -0.301 N  
HETATM   16  C   UNL     1     -11.845  13.149  63.852  1.00  0.00    -0.472 C  
HETATM   17  H   UNL     1     -10.824  12.834  65.626  1.00  0.00     0.000 HD 
HETATM   18  C   UNL     1     -10.991  12.088  63.209  1.00  0.00    -0.399 C  
HETATM   19  O   UNL     1     -12.687  13.774  63.216  1.00  0.00    -0.783 OA 
ENDBRANCH  14  15
ENDBRANCH  13  14
ENDBRANCH  12  13
ENDBRANCH   2   3
TORSDOF 4
ENDMDL
MODEL      119
REMARK 921   NORMALIZED FREE ENERGY PREDICTED BY IDOCK:   -4.15 KCAL/MOL
REMARK 922        TOTAL FREE ENERGY PREDICTED BY IDOCK:   -5.56 KCAL/MOL
REMARK 923 INTER-LIGAND FREE ENERGY PREDICTED BY IDOCK:   -5.25 KCAL/MOL
REMARK 924 INTRA-LIGAND FREE ENERGY PREDICTED BY IDOCK:   -0.31 KCAL/MOL
REMARK 927      BINDING AFFINITY PREDICTED BY RF-SCORE:    0.00 PKD
ROOT
HETATM    1  C   UNL     1     -11.759   5.659  72.562  1.00  0.00    -0.197 C  
HETATM    2  O   UNL     1     -10.802   6.716  72.644  1.00  0.00    -0.227 OA 
ENDROOT
BRANCH   2   3
HETATM    3  C   UNL     1     -11.226   7.906  72.113  1.00  0.00    -0.307 A  
HETATM    4  C   UNL     1     -10.502   8.386  71.013  1.00  0.00    -0.251 A  
HETATM    5  C   UNL     1     -10.805   9.628  70.391  1.00  0.00    -0.353 A  
HETATM    6  C   UNL     1     -11.903  10.352  70.926  1.00  0.00    -0.475 A  
HETATM    7  C   UNL     1     -12.254  11.600  70.400  1.00  0.00    -0.434 A  
HETATM    8  C   UNL     1     -12.659   9.829  71.983  1.00  0.00    -0.432 A  
HETATM    9  C   UNL     1     -11.537  12.156  69.351  1.00  0.00    -0.381 A  
HETATM   10  C   UNL     1     -12.326   8.614  72.574  1.00  0.00    -0.378 A  
HETATM   11  C   UNL     1     -10.474  11.453  68.792  1.00  0.00    -0.228 A  
HETATM   12  C   UNL     1     -10.084  10.193  69.288  1.00  0.00    -0.237 A  
BRANCH  12  13
HETATM   13  C   UNL     1      -8.981   9.416  68.574  1.00  0.00    -0.128 C  
BRANCH  13  14
HETATM   14  C   UNL     1      -9.417   8.538  67.390  1.00  0.00    -0.150 C  
BRANCH  14  15
HETATM   15  N   UNL     1     -10.079   9.285  66.330  1.00  0.00    -0.279 N  
HETATM   16  C   UNL     1      -9.375   9.998  65.388  1.00  0.00    -0.229 C  
HETATM   17  H   UNL     1     -11.098   9.280  66.285  1.00  0.00     0.000 HD 
HETATM   18  C   UNL     1     -10.237  10.778  64.431  1.00  0.00    -0.432 C  
HETATM   19  O   UNL     1      -8.152  10.005  65.309  1.00  0.00    -0.133 OA 
ENDBRANCH  14  15
ENDBRANCH  13  14
ENDBRANCH  12  13
ENDBRANCH   2   3
TORSDOF 4
ENDMDL
MODEL      120
REMARK 921   NORMALIZED FREE ENERGY PREDICTED BY IDOCK:   -4.14 KCAL/MOL
REMARK 922        TOTAL FREE ENERGY PREDICTED BY IDOCK:   -5.55 KCAL/MOL
REMARK 923 INTER-LIGAND FREE ENERGY PREDICTED BY IDOCK:   -5.18 KCAL/MOL
REMARK 924 INTRA-LIGAND FREE ENERGY PREDICTED BY IDOCK:   -0.36 KCAL/MOL
REMARK 927      BINDING AFFINITY PREDICTED BY RF-SCORE:    0.00 PKD
ROOT
HETATM    1  C   UNL     1     -12.499  12.495  63.774  1.00  0.00    -0.455 C  
HETATM    2  O   UNL     1     -12.624  12.430  65.194  1.00  0.00    -0.622 OA 
ENDROOT
BRANCH   2   3
HETATM    3  C   UNL     1     -11.437  12.528  65.873  1.00  0.00    -0.373 A  
HETATM    4  C   UNL     1     -11.045  11.396  66.599  1.00  0.00    -0.333 A  
HETATM    5  C   UNL     1      -9.859  11.373  67.383  1.00  0.00    -0.199 A  
HETATM    6  C   UNL     1      -9.071  12.555  67.373  1.00  0.00    -0.185 A  
HETATM    7  C   UNL     1      -7.905  12.637  68.141  1.00  0.00    -0.145 A  
HETATM    8  C   UNL     1      -9.442  13.656  66.591  1.00  0.00    -0.285 A  
HETATM    9  C   UNL     1      -7.496  11.571  68.928  1.00  0.00    -0.106 A  
HETATM   10  C   UNL     1     -10.616  13.646  65.844  1.00  0.00    -0.289 A  
HETATM   11  C   UNL     1      -8.236  10.393  68.934  1.00  0.00    -0.132 A  
HETATM   12  C   UNL     1      -9.417  10.263  68.176  1.00  0.00    -0.155 A  
BRANCH  12  13
HETATM   13  C   UNL     1     -10.135   8.917  68.133  1.00  0.00    -0.227 C  
BRANCH  13  14
HETATM   14  C   UNL     1     -10.110   8.084  69.425  1.00  0.00    -0.197 C  
BRANCH  14  15
HETATM   15  N   UNL     1     -11.429   7.877  70.003  1.00  0.00    -0.471 N  
HETATM   16  C   UNL     1     -11.830   8.508  71.158  1.00  0.00    -0.284 C  
HETATM   17  H   UNL     1     -12.079   7.243  69.537  1.00  0.00     0.000 HD 
HETATM   18  C   UNL     1     -13.193   8.097  71.648  1.00  0.00    -0.357 C  
HETATM   19  O   UNL     1     -11.155   9.344  71.749  1.00  0.00    -0.370 OA 
ENDBRANCH  14  15
ENDBRANCH  13  14
ENDBRANCH  12  13
ENDBRANCH   2   3
TORSDOF 4
ENDMDL
MODEL      121
REMARK 921   NORMALIZED FREE ENERGY PREDICTED BY IDOCK:   -4.14 KCAL/MOL
REMARK 922        TOTAL FREE ENERGY PREDICTED BY IDOCK:   -5.54 KCAL/MOL
REMARK 923 INTER-LIGAND FREE ENERGY PREDICTED BY IDOCK:   -5.22 KCAL/MOL
REMARK 924 INTRA-LIGAND FREE ENERGY PREDICTED BY IDOCK:   -0.33 KCAL/MOL
REMARK 927      BINDING AFFINITY PREDICTED BY RF-SCORE:    0.00 PKD
ROOT
HETATM    1  C   UNL     1     -10.753  11.922  63.591  1.00  0.00    -0.442 C  
HETATM    2  O   UNL     1     -10.524  13.277  63.976  1.00  0.00    -0.374 OA 
ENDROOT
BRANCH   2   3
HETATM    3  C   UNL     1     -10.888  13.570  65.264  1.00  0.00    -0.310 A  
HETATM    4  C   UNL     1     -10.299  14.708  65.830  1.00  0.00    -0.334 A  
HETATM    5  C   UNL     1     -10.554  15.104  67.172  1.00  0.00    -0.295 A  
HETATM    6  C   UNL     1     -11.463  14.298  67.908  1.00  0.00    -0.341 A  
HETATM    7  C   UNL     1     -11.748  14.591  69.246  1.00  0.00    -0.350 A  
HETATM    8  C   UNL     1     -12.094  13.201  67.308  1.00  0.00    -0.329 A  
HETATM    9  C   UNL     1     -11.149  15.669  69.880  1.00  0.00    -0.323 A  
HETATM   10  C   UNL     1     -11.812  12.837  65.995  1.00  0.00    -0.495 A  
HETATM   11  C   UNL     1     -10.277  16.489  69.173  1.00  0.00    -0.298 A  
HETATM   12  C   UNL     1      -9.959  16.234  67.824  1.00  0.00    -0.246 A  
BRANCH  12  13
HETATM   13  C   UNL     1      -9.080  17.223  67.061  1.00  0.00    -0.247 C  
BRANCH  13  14
HETATM   14  C   UNL     1      -7.611  16.818  66.857  1.00  0.00    -0.217 C  
BRANCH  14  15
HETATM   15  N   UNL     1      -7.263  15.562  67.506  1.00  0.00    -0.176 N  
HETATM   16  C   UNL     1      -6.754  15.514  68.782  1.00  0.00    -0.114 C  
HETATM   17  H   UNL     1      -7.402  14.689  66.997  1.00  0.00     0.000 HD 
HETATM   18  C   UNL     1      -6.371  14.134  69.245  1.00  0.00    -0.112 C  
HETATM   19  O   UNL     1      -6.623  16.497  69.503  1.00  0.00    -0.216 OA 
ENDBRANCH  14  15
ENDBRANCH  13  14
ENDBRANCH  12  13
ENDBRANCH   2   3
TORSDOF 4
ENDMDL
MODEL      122
REMARK 921   NORMALIZED FREE ENERGY PREDICTED BY IDOCK:   -4.14 KCAL/MOL
REMARK 922        TOTAL FREE ENERGY PREDICTED BY IDOCK:   -5.54 KCAL/MOL
REMARK 923 INTER-LIGAND FREE ENERGY PREDICTED BY IDOCK:   -5.07 KCAL/MOL
REMARK 924 INTRA-LIGAND FREE ENERGY PREDICTED BY IDOCK:   -0.47 KCAL/MOL
REMARK 927      BINDING AFFINITY PREDICTED BY RF-SCORE:    0.00 PKD
ROOT
HETATM    1  C   UNL     1     -11.003   6.462  67.094  1.00  0.00    -0.399 C  
HETATM    2  O   UNL     1      -9.718   5.954  67.453  1.00  0.00    -0.110 OA 
ENDROOT
BRANCH   2   3
HETATM    3  C   UNL     1      -9.341   6.226  68.743  1.00  0.00    -0.124 A  
HETATM    4  C   UNL     1     -10.377   6.507  69.644  1.00  0.00    -0.234 A  
HETATM    5  C   UNL     1     -10.128   6.848  71.001  1.00  0.00    -0.206 A  
HETATM    6  C   UNL     1      -8.767   6.864  71.410  1.00  0.00    -0.126 A  
HETATM    7  C   UNL     1      -8.423   7.222  72.718  1.00  0.00    -0.132 A  
HETATM    8  C   UNL     1      -7.746   6.518  70.515  1.00  0.00    -0.105 A  
HETATM    9  C   UNL     1      -9.400   7.570  73.639  1.00  0.00    -0.329 A  
HETATM   10  C   UNL     1      -8.028   6.199  69.190  1.00  0.00    -0.108 A  
HETATM   11  C   UNL     1     -10.741   7.534  73.271  1.00  0.00    -0.437 A  
HETATM   12  C   UNL     1     -11.135   7.180  71.965  1.00  0.00    -0.278 A  
BRANCH  12  13
HETATM   13  C   UNL     1     -12.622   7.054  71.640  1.00  0.00    -0.419 C  
BRANCH  13  14
HETATM   14  C   UNL     1     -13.396   8.368  71.447  1.00  0.00    -0.216 C  
BRANCH  14  15
HETATM   15  N   UNL     1     -12.664   9.359  70.671  1.00  0.00    -0.509 N  
HETATM   16  C   UNL     1     -12.675  10.696  70.994  1.00  0.00    -0.415 C  
HETATM   17  H   UNL     1     -12.124   9.052  69.861  1.00  0.00     0.000 HD 
HETATM   18  C   UNL     1     -11.934  11.575  70.021  1.00  0.00    -0.435 C  
HETATM   19  O   UNL     1     -13.226  11.154  71.988  1.00  0.00    -0.493 OA 
ENDBRANCH  14  15
ENDBRANCH  13  14
ENDBRANCH  12  13
ENDBRANCH   2   3
TORSDOF 4
ENDMDL
MODEL      123
REMARK 921   NORMALIZED FREE ENERGY PREDICTED BY IDOCK:   -4.10 KCAL/MOL
REMARK 922        TOTAL FREE ENERGY PREDICTED BY IDOCK:   -5.49 KCAL/MOL
REMARK 923 INTER-LIGAND FREE ENERGY PREDICTED BY IDOCK:   -5.08 KCAL/MOL
REMARK 924 INTRA-LIGAND FREE ENERGY PREDICTED BY IDOCK:   -0.42 KCAL/MOL
REMARK 927      BINDING AFFINITY PREDICTED BY RF-SCORE:    0.00 PKD
ROOT
HETATM    1  C   UNL     1      -5.949  13.917  70.725  1.00  0.00    -0.170 C  
HETATM    2  O   UNL     1      -6.368  14.740  69.636  1.00  0.00    -0.119 OA 
ENDROOT
BRANCH   2   3
HETATM    3  C   UNL     1      -7.354  14.191  68.858  1.00  0.00    -0.122 A  
HETATM    4  C   UNL     1      -8.633  14.744  69.000  1.00  0.00    -0.137 A  
HETATM    5  C   UNL     1      -9.758  14.245  68.288  1.00  0.00    -0.221 A  
HETATM    6  C   UNL     1      -9.513  13.165  67.397  1.00  0.00    -0.214 A  
HETATM    7  C   UNL     1     -10.564  12.586  66.679  1.00  0.00    -0.259 A  
HETATM    8  C   UNL     1      -8.217  12.665  67.216  1.00  0.00    -0.184 A  
HETATM    9  C   UNL     1     -11.863  13.050  66.823  1.00  0.00    -0.451 A  
HETATM   10  C   UNL     1      -7.142  13.173  67.940  1.00  0.00    -0.129 A  
HETATM   11  C   UNL     1     -12.124  14.123  67.668  1.00  0.00    -0.337 A  
HETATM   12  C   UNL     1     -11.098  14.739  68.412  1.00  0.00    -0.274 A  
BRANCH  12  13
HETATM   13  C   UNL     1     -11.416  15.980  69.243  1.00  0.00    -0.350 C  
BRANCH  13  14
HETATM   14  C   UNL     1     -11.586  15.766  70.756  1.00  0.00    -0.398 C  
BRANCH  14  15
HETATM   15  N   UNL     1     -11.818  14.376  71.120  1.00  0.00    -0.463 N  
HETATM   16  C   UNL     1     -13.052  13.920  71.521  1.00  0.00    -0.365 C  
HETATM   17  H   UNL     1     -11.040  13.717  71.075  1.00  0.00     0.000 HD 
HETATM   18  C   UNL     1     -13.072  12.475  71.942  1.00  0.00    -0.473 C  
HETATM   19  O   UNL     1     -14.065  14.611  71.534  1.00  0.00    -0.410 OA 
ENDBRANCH  14  15
ENDBRANCH  13  14
ENDBRANCH  12  13
ENDBRANCH   2   3
TORSDOF 4
ENDMDL
MODEL      124
REMARK 921   NORMALIZED FREE ENERGY PREDICTED BY IDOCK:   -4.09 KCAL/MOL
REMARK 922        TOTAL FREE ENERGY PREDICTED BY IDOCK:   -5.48 KCAL/MOL
REMARK 923 INTER-LIGAND FREE ENERGY PREDICTED BY IDOCK:   -5.20 KCAL/MOL
REMARK 924 INTRA-LIGAND FREE ENERGY PREDICTED BY IDOCK:   -0.28 KCAL/MOL
REMARK 927      BINDING AFFINITY PREDICTED BY RF-SCORE:    0.00 PKD
ROOT
HETATM    1  C   UNL     1     -12.593  12.232  63.546  1.00  0.00    -0.476 C  
HETATM    2  O   UNL     1     -12.607  13.618  63.886  1.00  0.00    -0.687 OA 
ENDROOT
BRANCH   2   3
HETATM    3  C   UNL     1     -11.587  14.010  64.713  1.00  0.00    -0.381 A  
HETATM    4  C   UNL     1     -11.066  13.025  65.562  1.00  0.00    -0.300 A  
HETATM    5  C   UNL     1     -10.035  13.302  66.502  1.00  0.00    -0.280 A  
HETATM    6  C   UNL     1      -9.537  14.632  66.519  1.00  0.00    -0.308 A  
HETATM    7  C   UNL     1      -8.546  15.007  67.433  1.00  0.00    -0.208 A  
HETATM    8  C   UNL     1     -10.021  15.591  65.619  1.00  0.00    -0.394 A  
HETATM    9  C   UNL     1      -8.034  14.091  68.340  1.00  0.00    -0.143 A  
HETATM   10  C   UNL     1     -11.039  15.284  64.720  1.00  0.00    -0.407 A  
HETATM   11  C   UNL     1      -8.487  12.776  68.324  1.00  0.00    -0.161 A  
HETATM   12  C   UNL     1      -9.483  12.352  67.422  1.00  0.00    -0.186 A  
BRANCH  12  13
HETATM   13  C   UNL     1      -9.869  10.876  67.372  1.00  0.00    -0.199 C  
BRANCH  13  14
HETATM   14  C   UNL     1     -10.590  10.314  68.608  1.00  0.00    -0.208 C  
BRANCH  14  15
HETATM   15  N   UNL     1     -10.018   9.066  69.092  1.00  0.00    -0.180 N  
HETATM   16  C   UNL     1     -10.569   8.365  70.139  1.00  0.00    -0.233 C  
HETATM   17  H   UNL     1      -9.181   8.698  68.639  1.00  0.00     0.000 HD 
HETATM   18  C   UNL     1      -9.783   7.148  70.552  1.00  0.00    -0.176 C  
HETATM   19  O   UNL     1     -11.614   8.679  70.698  1.00  0.00    -0.271 OA 
ENDBRANCH  14  15
ENDBRANCH  13  14
ENDBRANCH  12  13
ENDBRANCH   2   3
TORSDOF 4
ENDMDL
MODEL      125
REMARK 921   NORMALIZED FREE ENERGY PREDICTED BY IDOCK:   -4.09 KCAL/MOL
REMARK 922        TOTAL FREE ENERGY PREDICTED BY IDOCK:   -5.48 KCAL/MOL
REMARK 923 INTER-LIGAND FREE ENERGY PREDICTED BY IDOCK:   -5.10 KCAL/MOL
REMARK 924 INTRA-LIGAND FREE ENERGY PREDICTED BY IDOCK:   -0.38 KCAL/MOL
REMARK 927      BINDING AFFINITY PREDICTED BY RF-SCORE:    0.00 PKD
ROOT
HETATM    1  C   UNL     1     -12.867  11.870  63.402  1.00  0.00    -0.256 C  
HETATM    2  O   UNL     1     -13.081  12.577  64.623  1.00  0.00    -0.845 OA 
ENDROOT
BRANCH   2   3
HETATM    3  C   UNL     1     -12.145  13.541  64.892  1.00  0.00    -0.397 A  
HETATM    4  C   UNL     1     -11.104  13.169  65.753  1.00  0.00    -0.293 A  
HETATM    5  C   UNL     1     -10.088  14.081  66.152  1.00  0.00    -0.319 A  
HETATM    6  C   UNL     1     -10.166  15.391  65.608  1.00  0.00    -0.403 A  
HETATM    7  C   UNL     1      -9.230  16.366  65.970  1.00  0.00    -0.328 A  
HETATM    8  C   UNL     1     -11.175  15.730  64.698  1.00  0.00    -0.373 A  
HETATM    9  C   UNL     1      -8.212  16.076  66.865  1.00  0.00    -0.277 A  
HETATM   10  C   UNL     1     -12.159  14.813  64.339  1.00  0.00    -0.457 A  
HETATM   11  C   UNL     1      -8.099  14.792  67.390  1.00  0.00    -0.220 A  
HETATM   12  C   UNL     1      -9.017  13.777  67.055  1.00  0.00    -0.247 A  
BRANCH  12  13
HETATM   13  C   UNL     1      -8.789  12.360  67.573  1.00  0.00    -0.181 C  
BRANCH  13  14
HETATM   14  C   UNL     1      -7.361  11.805  67.445  1.00  0.00    -0.136 C  
BRANCH  14  15
HETATM   15  N   UNL     1      -6.856  11.222  68.680  1.00  0.00    -0.070 N  
HETATM   16  C   UNL     1      -6.047  11.923  69.543  1.00  0.00    -0.108 C  
HETATM   17  H   UNL     1      -7.111  10.262  68.913  1.00  0.00     0.000 HD 
HETATM   18  C   UNL     1      -5.553  11.121  70.718  1.00  0.00    -0.114 C  
HETATM   19  O   UNL     1      -5.746  13.102  69.394  1.00  0.00    -0.079 OA 
ENDBRANCH  14  15
ENDBRANCH  13  14
ENDBRANCH  12  13
ENDBRANCH   2   3
TORSDOF 4
ENDMDL
MODEL      126
REMARK 921   NORMALIZED FREE ENERGY PREDICTED BY IDOCK:   -4.08 KCAL/MOL
REMARK 922        TOTAL FREE ENERGY PREDICTED BY IDOCK:   -5.47 KCAL/MOL
REMARK 923 INTER-LIGAND FREE ENERGY PREDICTED BY IDOCK:   -5.14 KCAL/MOL
REMARK 924 INTRA-LIGAND FREE ENERGY PREDICTED BY IDOCK:   -0.33 KCAL/MOL
REMARK 927      BINDING AFFINITY PREDICTED BY RF-SCORE:    0.00 PKD
ROOT
HETATM    1  C   UNL     1     -11.627  13.681  66.882  1.00  0.00    -0.367 C  
HETATM    2  O   UNL     1     -11.727  14.265  68.181  1.00  0.00    -0.314 OA 
ENDROOT
BRANCH   2   3
HETATM    3  C   UNL     1     -11.972  13.367  69.188  1.00  0.00    -0.317 A  
HETATM    4  C   UNL     1     -11.513  12.060  68.977  1.00  0.00    -0.357 A  
HETATM    5  C   UNL     1     -11.735  11.018  69.917  1.00  0.00    -0.424 A  
HETATM    6  C   UNL     1     -12.428  11.375  71.105  1.00  0.00    -0.465 A  
HETATM    7  C   UNL     1     -12.723  10.409  72.073  1.00  0.00    -0.365 A  
HETATM    8  C   UNL     1     -12.824  12.700  71.332  1.00  0.00    -0.358 A  
HETATM    9  C   UNL     1     -12.348   9.086  71.892  1.00  0.00    -0.455 A  
HETATM   10  C   UNL     1     -12.598  13.691  70.382  1.00  0.00    -0.297 A  
HETATM   11  C   UNL     1     -11.644   8.717  70.751  1.00  0.00    -0.273 A  
HETATM   12  C   UNL     1     -11.325   9.654  69.749  1.00  0.00    -0.159 A  
BRANCH  12  13
HETATM   13  C   UNL     1     -10.460   9.223  68.567  1.00  0.00    -0.240 C  
BRANCH  13  14
HETATM   14  C   UNL     1      -8.938   9.331  68.755  1.00  0.00    -0.132 C  
BRANCH  14  15
HETATM   15  N   UNL     1      -8.442   8.565  69.889  1.00  0.00    -0.123 N  
HETATM   16  C   UNL     1      -7.564   9.097  70.804  1.00  0.00    -0.133 C  
HETATM   17  H   UNL     1      -8.755   7.601  70.009  1.00  0.00     0.000 HD 
HETATM   18  C   UNL     1      -7.095   8.123  71.852  1.00  0.00    -0.086 C  
HETATM   19  O   UNL     1      -7.188  10.264  70.793  1.00  0.00    -0.274 OA 
ENDBRANCH  14  15
ENDBRANCH  13  14
ENDBRANCH  12  13
ENDBRANCH   2   3
TORSDOF 4
ENDMDL
MODEL      127
REMARK 921   NORMALIZED FREE ENERGY PREDICTED BY IDOCK:   -4.06 KCAL/MOL
REMARK 922        TOTAL FREE ENERGY PREDICTED BY IDOCK:   -5.45 KCAL/MOL
REMARK 923 INTER-LIGAND FREE ENERGY PREDICTED BY IDOCK:   -4.83 KCAL/MOL
REMARK 924 INTRA-LIGAND FREE ENERGY PREDICTED BY IDOCK:   -0.62 KCAL/MOL
REMARK 927      BINDING AFFINITY PREDICTED BY RF-SCORE:    0.00 PKD
ROOT
HETATM    1  C   UNL     1      -9.329   5.351  70.964  1.00  0.00    -0.150 C  
HETATM    2  O   UNL     1     -10.659   5.401  70.448  1.00  0.00    -0.280 OA 
ENDROOT
BRANCH   2   3
HETATM    3  C   UNL     1     -11.357   6.530  70.788  1.00  0.00    -0.342 A  
HETATM    4  C   UNL     1     -10.933   7.724  70.189  1.00  0.00    -0.246 A  
HETATM    5  C   UNL     1     -11.538   8.976  70.484  1.00  0.00    -0.209 A  
HETATM    6  C   UNL     1     -12.620   8.954  71.404  1.00  0.00    -0.351 A  
HETATM    7  C   UNL     1     -13.256  10.142  71.782  1.00  0.00    -0.542 A  
HETATM    8  C   UNL     1     -13.076   7.745  71.946  1.00  0.00    -0.300 A  
HETATM    9  C   UNL     1     -12.841  11.362  71.269  1.00  0.00    -0.481 A  
HETATM   10  C   UNL     1     -12.451   6.539  71.641  1.00  0.00    -0.271 A  
HETATM   11  C   UNL     1     -11.802  11.406  70.345  1.00  0.00    -0.428 A  
HETATM   12  C   UNL     1     -11.133  10.237  69.935  1.00  0.00    -0.362 A  
BRANCH  12  13
HETATM   13  C   UNL     1     -10.071  10.325  68.841  1.00  0.00    -0.216 C  
BRANCH  13  14
HETATM   14  C   UNL     1      -8.653  10.713  69.292  1.00  0.00    -0.085 C  
BRANCH  14  15
HETATM   15  N   UNL     1      -7.761   9.572  69.433  1.00  0.00    -0.086 N  
HETATM   16  C   UNL     1      -7.591   8.920  70.632  1.00  0.00    -0.099 C  
HETATM   17  H   UNL     1      -7.244   9.245  68.616  1.00  0.00     0.000 HD 
HETATM   18  C   UNL     1      -6.558   7.824  70.600  1.00  0.00    -0.038 C  
HETATM   19  O   UNL     1      -8.220   9.185  71.650  1.00  0.00    -0.343 OA 
ENDBRANCH  14  15
ENDBRANCH  13  14
ENDBRANCH  12  13
ENDBRANCH   2   3
TORSDOF 4
ENDMDL
MODEL      128
REMARK 921   NORMALIZED FREE ENERGY PREDICTED BY IDOCK:   -4.04 KCAL/MOL
REMARK 922        TOTAL FREE ENERGY PREDICTED BY IDOCK:   -5.42 KCAL/MOL
REMARK 923 INTER-LIGAND FREE ENERGY PREDICTED BY IDOCK:   -5.04 KCAL/MOL
REMARK 924 INTRA-LIGAND FREE ENERGY PREDICTED BY IDOCK:   -0.38 KCAL/MOL
REMARK 927      BINDING AFFINITY PREDICTED BY RF-SCORE:    0.00 PKD
ROOT
HETATM    1  C   UNL     1     -10.622  18.708  67.246  1.00  0.00    -0.430 C  
HETATM    2  O   UNL     1      -9.722  17.730  66.724  1.00  0.00    -0.283 OA 
ENDROOT
BRANCH   2   3
HETATM    3  C   UNL     1     -10.330  16.706  66.046  1.00  0.00    -0.340 A  
HETATM    4  C   UNL     1     -10.181  15.426  66.595  1.00  0.00    -0.281 A  
HETATM    5  C   UNL     1     -10.722  14.267  65.973  1.00  0.00    -0.304 A  
HETATM    6  C   UNL     1     -11.450  14.476  64.771  1.00  0.00    -0.408 A  
HETATM    7  C   UNL     1     -11.989  13.392  64.070  1.00  0.00    -0.520 A  
HETATM    8  C   UNL     1     -11.646  15.769  64.268  1.00  0.00    -0.192 A  
HETATM    9  C   UNL     1     -11.823  12.095  64.532  1.00  0.00    -0.418 A  
HETATM   10  C   UNL     1     -11.092  16.879  64.899  1.00  0.00     0.029 A  
HETATM   11  C   UNL     1     -11.138  11.867  65.721  1.00  0.00    -0.367 A  
HETATM   12  C   UNL     1     -10.577  12.927  66.461  1.00  0.00    -0.272 A  
BRANCH  12  13
HETATM   13  C   UNL     1      -9.927  12.636  67.811  1.00  0.00    -0.218 C  
BRANCH  13  14
HETATM   14  C   UNL     1      -8.404  12.426  67.809  1.00  0.00    -0.164 C  
BRANCH  14  15
HETATM   15  N   UNL     1      -7.717  13.178  68.849  1.00  0.00    -0.318 N  
HETATM   16  C   UNL     1      -6.707  14.067  68.563  1.00  0.00    -0.099 C  
HETATM   17  H   UNL     1      -7.993  13.042  69.821  1.00  0.00     0.000 HD 
HETATM   18  C   UNL     1      -6.058  14.678  69.777  1.00  0.00    -0.131 C  
HETATM   19  O   UNL     1      -6.355  14.360  67.426  1.00  0.00    -0.323 OA 
ENDBRANCH  14  15
ENDBRANCH  13  14
ENDBRANCH  12  13
ENDBRANCH   2   3
TORSDOF 4
ENDMDL
MODEL      129
REMARK 921   NORMALIZED FREE ENERGY PREDICTED BY IDOCK:   -4.03 KCAL/MOL
REMARK 922        TOTAL FREE ENERGY PREDICTED BY IDOCK:   -5.41 KCAL/MOL
REMARK 923 INTER-LIGAND FREE ENERGY PREDICTED BY IDOCK:   -5.04 KCAL/MOL
REMARK 924 INTRA-LIGAND FREE ENERGY PREDICTED BY IDOCK:   -0.37 KCAL/MOL
REMARK 927      BINDING AFFINITY PREDICTED BY RF-SCORE:    0.00 PKD
ROOT
HETATM    1  C   UNL     1     -12.382  14.482  71.197  1.00  0.00    -0.345 C  
HETATM    2  O   UNL     1     -12.176  15.681  70.450  1.00  0.00    -0.381 OA 
ENDROOT
BRANCH   2   3
HETATM    3  C   UNL     1     -11.680  15.483  69.188  1.00  0.00    -0.365 A  
HETATM    4  C   UNL     1     -11.733  14.171  68.700  1.00  0.00    -0.385 A  
HETATM    5  C   UNL     1     -11.215  13.814  67.425  1.00  0.00    -0.330 A  
HETATM    6  C   UNL     1     -10.659  14.868  66.652  1.00  0.00    -0.305 A  
HETATM    7  C   UNL     1     -10.094  14.608  65.399  1.00  0.00    -0.403 A  
HETATM    8  C   UNL     1     -10.671  16.187  67.125  1.00  0.00    -0.262 A  
HETATM    9  C   UNL     1     -10.063  13.318  64.888  1.00  0.00    -0.247 A  
HETATM   10  C   UNL     1     -11.178  16.496  68.383  1.00  0.00    -0.280 A  
HETATM   11  C   UNL     1     -10.626  12.274  65.615  1.00  0.00    -0.295 A  
HETATM   12  C   UNL     1     -11.206  12.488  66.881  1.00  0.00    -0.354 A  
BRANCH  12  13
HETATM   13  C   UNL     1     -11.903  11.330  67.591  1.00  0.00    -0.102 C  
BRANCH  13  14
HETATM   14  C   UNL     1     -11.087  10.592  68.664  1.00  0.00    -0.267 C  
BRANCH  14  15
HETATM   15  N   UNL     1      -9.779  10.156  68.195  1.00  0.00    -0.139 N  
HETATM   16  C   UNL     1      -9.614   9.019  67.439  1.00  0.00    -0.152 C  
HETATM   17  H   UNL     1      -8.958  10.713  68.434  1.00  0.00     0.000 HD 
HETATM   18  C   UNL     1      -8.179   8.685  67.129  1.00  0.00    -0.107 C  
HETATM   19  O   UNL     1     -10.541   8.326  67.035  1.00  0.00    -0.321 OA 
ENDBRANCH  14  15
ENDBRANCH  13  14
ENDBRANCH  12  13
ENDBRANCH   2   3
TORSDOF 4
ENDMDL
MODEL      130
REMARK 921   NORMALIZED FREE ENERGY PREDICTED BY IDOCK:   -4.03 KCAL/MOL
REMARK 922        TOTAL FREE ENERGY PREDICTED BY IDOCK:   -5.41 KCAL/MOL
REMARK 923 INTER-LIGAND FREE ENERGY PREDICTED BY IDOCK:   -5.01 KCAL/MOL
REMARK 924 INTRA-LIGAND FREE ENERGY PREDICTED BY IDOCK:   -0.40 KCAL/MOL
REMARK 927      BINDING AFFINITY PREDICTED BY RF-SCORE:    0.00 PKD
ROOT
HETATM    1  C   UNL     1     -13.127  11.180  71.738  1.00  0.00    -0.431 C  
HETATM    2  O   UNL     1     -12.373  12.167  71.034  1.00  0.00    -0.351 OA 
ENDROOT
BRANCH   2   3
HETATM    3  C   UNL     1     -11.852  11.739  69.841  1.00  0.00    -0.348 A  
HETATM    4  C   UNL     1     -11.270  10.464  69.842  1.00  0.00    -0.371 A  
HETATM    5  C   UNL     1     -10.653   9.912  68.686  1.00  0.00    -0.244 A  
HETATM    6  C   UNL     1     -10.680  10.712  67.513  1.00  0.00    -0.321 A  
HETATM    7  C   UNL     1     -10.068  10.267  66.336  1.00  0.00    -0.296 A  
HETATM    8  C   UNL     1     -11.322  11.957  67.509  1.00  0.00    -0.381 A  
HETATM    9  C   UNL     1      -9.423   9.040  66.292  1.00  0.00    -0.306 A  
HETATM   10  C   UNL     1     -11.906  12.470  68.663  1.00  0.00    -0.340 A  
HETATM   11  C   UNL     1      -9.408   8.226  67.420  1.00  0.00    -0.171 A  
HETATM   12  C   UNL     1     -10.010   8.632  68.627  1.00  0.00    -0.197 A  
BRANCH  12  13
HETATM   13  C   UNL     1     -10.059   7.661  69.804  1.00  0.00    -0.196 C  
BRANCH  13  14
HETATM   14  C   UNL     1     -11.079   6.515  69.706  1.00  0.00    -0.370 C  
BRANCH  14  15
HETATM   15  N   UNL     1     -10.529   5.220  70.080  1.00  0.00    -0.300 N  
HETATM   16  C   UNL     1      -9.916   4.394  69.167  1.00  0.00    -0.047 C  
HETATM   17  H   UNL     1     -10.599   4.916  71.051  1.00  0.00     0.000 HD 
HETATM   18  C   UNL     1      -9.494   3.060  69.725  1.00  0.00    -0.184 C  
HETATM   19  O   UNL     1      -9.712   4.699  67.997  1.00  0.00    -0.152 OA 
ENDBRANCH  14  15
ENDBRANCH  13  14
ENDBRANCH  12  13
ENDBRANCH   2   3
TORSDOF 4
ENDMDL
MODEL      131
REMARK 921   NORMALIZED FREE ENERGY PREDICTED BY IDOCK:   -4.01 KCAL/MOL
REMARK 922        TOTAL FREE ENERGY PREDICTED BY IDOCK:   -5.39 KCAL/MOL
REMARK 923 INTER-LIGAND FREE ENERGY PREDICTED BY IDOCK:   -4.99 KCAL/MOL
REMARK 924 INTRA-LIGAND FREE ENERGY PREDICTED BY IDOCK:   -0.40 KCAL/MOL
REMARK 927      BINDING AFFINITY PREDICTED BY RF-SCORE:    0.00 PKD
ROOT
HETATM    1  C   UNL     1      -7.705   7.594  67.658  1.00  0.00    -0.122 C  
HETATM    2  O   UNL     1      -8.663   6.827  68.387  1.00  0.00    -0.124 OA 
ENDROOT
BRANCH   2   3
HETATM    3  C   UNL     1      -9.528   7.573  69.144  1.00  0.00    -0.150 A  
HETATM    4  C   UNL     1     -10.004   8.753  68.558  1.00  0.00    -0.200 A  
HETATM    5  C   UNL     1     -10.873   9.644  69.246  1.00  0.00    -0.227 A  
HETATM    6  C   UNL     1     -11.260   9.262  70.558  1.00  0.00    -0.315 A  
HETATM    7  C   UNL     1     -12.085  10.092  71.325  1.00  0.00    -0.487 A  
HETATM    8  C   UNL     1     -10.828   8.047  71.107  1.00  0.00    -0.267 A  
HETATM    9  C   UNL     1     -12.539  11.302  70.822  1.00  0.00    -0.425 A  
HETATM   10  C   UNL     1      -9.969   7.206  70.407  1.00  0.00    -0.191 A  
HETATM   11  C   UNL     1     -12.197  11.685  69.529  1.00  0.00    -0.257 A  
HETATM   12  C   UNL     1     -11.368  10.882  68.720  1.00  0.00    -0.357 A  
BRANCH  12  13
HETATM   13  C   UNL     1     -11.108  11.294  67.273  1.00  0.00    -0.367 C  
BRANCH  13  14
HETATM   14  C   UNL     1     -11.644  12.671  66.845  1.00  0.00    -0.373 C  
BRANCH  14  15
HETATM   15  N   UNL     1     -10.618  13.541  66.288  1.00  0.00    -0.285 N  
HETATM   16  C   UNL     1     -10.047  14.558  67.015  1.00  0.00    -0.254 C  
HETATM   17  H   UNL     1     -10.313  13.390  65.326  1.00  0.00     0.000 HD 
HETATM   18  C   UNL     1      -9.074  15.405  66.238  1.00  0.00    -0.355 C  
HETATM   19  O   UNL     1     -10.288  14.772  68.198  1.00  0.00    -0.233 OA 
ENDBRANCH  14  15
ENDBRANCH  13  14
ENDBRANCH  12  13
ENDBRANCH   2   3
TORSDOF 4
ENDMDL
MODEL      132
REMARK 921   NORMALIZED FREE ENERGY PREDICTED BY IDOCK:   -4.01 KCAL/MOL
REMARK 922        TOTAL FREE ENERGY PREDICTED BY IDOCK:   -5.38 KCAL/MOL
REMARK 923 INTER-LIGAND FREE ENERGY PREDICTED BY IDOCK:   -5.03 KCAL/MOL
REMARK 924 INTRA-LIGAND FREE ENERGY PREDICTED BY IDOCK:   -0.35 KCAL/MOL
REMARK 927      BINDING AFFINITY PREDICTED BY RF-SCORE:    0.00 PKD
ROOT
HETATM    1  C   UNL     1     -11.800  13.287  68.180  1.00  0.00    -0.353 C  
HETATM    2  O   UNL     1     -12.170  13.506  69.541  1.00  0.00    -0.304 OA 
ENDROOT
BRANCH   2   3
HETATM    3  C   UNL     1     -12.318  12.361  70.280  1.00  0.00    -0.188 A  
HETATM    4  C   UNL     1     -11.562  11.256  69.866  1.00  0.00    -0.413 A  
HETATM    5  C   UNL     1     -11.650   9.993  70.513  1.00  0.00    -0.403 A  
HETATM    6  C   UNL     1     -12.528   9.913  71.627  1.00  0.00    -0.507 A  
HETATM    7  C   UNL     1     -12.706   8.703  72.306  1.00  0.00    -0.450 A  
HETATM    8  C   UNL     1     -13.228  11.043  72.070  1.00  0.00    -0.447 A  
HETATM    9  C   UNL     1     -12.032   7.559  71.905  1.00  0.00    -0.335 A  
HETATM   10  C   UNL     1     -13.125  12.261  71.404  1.00  0.00    -0.285 A  
HETATM   11  C   UNL     1     -11.145   7.618  70.834  1.00  0.00    -0.275 A  
HETATM   12  C   UNL     1     -10.934   8.815  70.121  1.00  0.00    -0.236 A  
BRANCH  12  13
HETATM   13  C   UNL     1      -9.874   8.855  69.023  1.00  0.00    -0.182 C  
BRANCH  13  14
HETATM   14  C   UNL     1      -8.445   9.215  69.462  1.00  0.00    -0.128 C  
BRANCH  14  15
HETATM   15  N   UNL     1      -8.185  10.648  69.458  1.00  0.00    -0.365 N  
HETATM   16  C   UNL     1      -6.939  11.165  69.195  1.00  0.00    -0.108 C  
HETATM   17  H   UNL     1      -8.953  11.289  69.657  1.00  0.00     0.000 HD 
HETATM   18  C   UNL     1      -6.848  12.662  69.328  1.00  0.00    -0.012 C  
HETATM   19  O   UNL     1      -5.971  10.486  68.870  1.00  0.00    -0.041 OA 
ENDBRANCH  14  15
ENDBRANCH  13  14
ENDBRANCH  12  13
ENDBRANCH   2   3
TORSDOF 4
ENDMDL
MODEL      133
REMARK 921   NORMALIZED FREE ENERGY PREDICTED BY IDOCK:   -4.00 KCAL/MOL
REMARK 922        TOTAL FREE ENERGY PREDICTED BY IDOCK:   -5.37 KCAL/MOL
REMARK 923 INTER-LIGAND FREE ENERGY PREDICTED BY IDOCK:   -5.09 KCAL/MOL
REMARK 924 INTRA-LIGAND FREE ENERGY PREDICTED BY IDOCK:   -0.28 KCAL/MOL
REMARK 927      BINDING AFFINITY PREDICTED BY RF-SCORE:    0.00 PKD
ROOT
HETATM    1  C   UNL     1     -10.532  19.868  66.453  1.00  0.00    -0.475 C  
HETATM    2  O   UNL     1      -9.190  19.927  65.968  1.00  0.00    -0.381 OA 
ENDROOT
BRANCH   2   3
HETATM    3  C   UNL     1      -8.409  18.861  66.333  1.00  0.00    -0.296 A  
HETATM    4  C   UNL     1      -9.022  17.889  67.133  1.00  0.00    -0.252 A  
HETATM    5  C   UNL     1      -8.318  16.754  67.620  1.00  0.00    -0.191 A  
HETATM    6  C   UNL     1      -6.957  16.639  67.229  1.00  0.00    -0.211 A  
HETATM    7  C   UNL     1      -6.175  15.574  67.688  1.00  0.00    -0.174 A  
HETATM    8  C   UNL     1      -6.374  17.585  66.376  1.00  0.00    -0.275 A  
HETATM    9  C   UNL     1      -6.709  14.612  68.532  1.00  0.00    -0.098 A  
HETATM   10  C   UNL     1      -7.093  18.689  65.928  1.00  0.00    -0.290 A  
HETATM   11  C   UNL     1      -8.047  14.687  68.905  1.00  0.00    -0.147 A  
HETATM   12  C   UNL     1      -8.874  15.741  68.469  1.00  0.00    -0.193 A  
BRANCH  12  13
HETATM   13  C   UNL     1     -10.360  15.722  68.819  1.00  0.00    -0.220 C  
BRANCH  13  14
HETATM   14  C   UNL     1     -10.713  15.470  70.294  1.00  0.00    -0.333 C  
BRANCH  14  15
HETATM   15  N   UNL     1     -12.121  15.686  70.595  1.00  0.00    -0.381 N  
HETATM   16  C   UNL     1     -12.906  14.712  71.167  1.00  0.00    -0.343 C  
HETATM   17  H   UNL     1     -12.540  16.590  70.374  1.00  0.00     0.000 HD 
HETATM   18  C   UNL     1     -14.355  15.092  71.316  1.00  0.00    -0.512 C  
HETATM   19  O   UNL     1     -12.482  13.624  71.540  1.00  0.00    -0.322 OA 
ENDBRANCH  14  15
ENDBRANCH  13  14
ENDBRANCH  12  13
ENDBRANCH   2   3
TORSDOF 4
ENDMDL
MODEL      134
REMARK 921   NORMALIZED FREE ENERGY PREDICTED BY IDOCK:   -4.00 KCAL/MOL
REMARK 922        TOTAL FREE ENERGY PREDICTED BY IDOCK:   -5.37 KCAL/MOL
REMARK 923 INTER-LIGAND FREE ENERGY PREDICTED BY IDOCK:   -5.87 KCAL/MOL
REMARK 924 INTRA-LIGAND FREE ENERGY PREDICTED BY IDOCK:    0.50 KCAL/MOL
REMARK 927      BINDING AFFINITY PREDICTED BY RF-SCORE:    0.00 PKD
ROOT
HETATM    1  C   UNL     1     -12.292  15.668  70.485  1.00  0.00    -0.403 C  
HETATM    2  O   UNL     1     -11.597  14.421  70.514  1.00  0.00    -0.271 OA 
ENDROOT
BRANCH   2   3
HETATM    3  C   UNL     1     -11.521  13.786  69.302  1.00  0.00    -0.293 A  
HETATM    4  C   UNL     1     -11.169  14.585  68.206  1.00  0.00    -0.295 A  
HETATM    5  C   UNL     1     -11.095  14.067  66.884  1.00  0.00    -0.310 A  
HETATM    6  C   UNL     1     -11.373  12.682  66.731  1.00  0.00    -0.373 A  
HETATM    7  C   UNL     1     -11.358  12.091  65.463  1.00  0.00    -0.381 A  
HETATM    8  C   UNL     1     -11.660  11.882  67.845  1.00  0.00    -0.393 A  
HETATM    9  C   UNL     1     -11.076  12.842  64.333  1.00  0.00    -0.395 A  
HETATM   10  C   UNL     1     -11.733  12.427  69.123  1.00  0.00    -0.376 A  
HETATM   11  C   UNL     1     -10.774  14.194  64.460  1.00  0.00    -0.323 A  
HETATM   12  C   UNL     1     -10.777  14.833  65.715  1.00  0.00    -0.333 A  
BRANCH  12  13
HETATM   13  C   UNL     1     -10.336  16.292  65.815  1.00  0.00    -0.393 C  
BRANCH  13  14
HETATM   14  C   UNL     1     -10.764  17.053  67.080  1.00  0.00    -0.177 C  
BRANCH  14  15
HETATM   15  N   UNL     1      -9.790  18.044  67.514  1.00  0.00    -0.299 N  
HETATM   16  C   UNL     1      -8.708  17.714  68.296  1.00  0.00    -0.276 C  
HETATM   17  H   UNL     1      -9.913  19.016  67.228  1.00  0.00     0.000 HD 
HETATM   18  C   UNL     1      -7.866  18.889  68.717  1.00  0.00    -0.359 C  
HETATM   19  O   UNL     1      -8.428  16.567  68.627  1.00  0.00    -0.220 OA 
ENDBRANCH  14  15
ENDBRANCH  13  14
ENDBRANCH  12  13
ENDBRANCH   2   3
TORSDOF 4
ENDMDL
MODEL      135
REMARK 921   NORMALIZED FREE ENERGY PREDICTED BY IDOCK:   -3.99 KCAL/MOL
REMARK 922        TOTAL FREE ENERGY PREDICTED BY IDOCK:   -5.36 KCAL/MOL
REMARK 923 INTER-LIGAND FREE ENERGY PREDICTED BY IDOCK:   -4.95 KCAL/MOL
REMARK 924 INTRA-LIGAND FREE ENERGY PREDICTED BY IDOCK:   -0.41 KCAL/MOL
REMARK 927      BINDING AFFINITY PREDICTED BY RF-SCORE:    0.00 PKD
ROOT
HETATM    1  C   UNL     1     -10.750  19.615  65.997  1.00  0.00    -0.424 C  
HETATM    2  O   UNL     1     -10.675  18.318  65.405  1.00  0.00    -0.610 OA 
ENDROOT
BRANCH   2   3
HETATM    3  C   UNL     1      -9.684  17.519  65.912  1.00  0.00    -0.044 A  
HETATM    4  C   UNL     1      -9.978  16.152  66.006  1.00  0.00    -0.373 A  
HETATM    5  C   UNL     1      -9.059  15.216  66.554  1.00  0.00    -0.328 A  
HETATM    6  C   UNL     1      -7.807  15.734  66.980  1.00  0.00    -0.271 A  
HETATM    7  C   UNL     1      -6.853  14.894  67.563  1.00  0.00    -0.189 A  
HETATM    8  C   UNL     1      -7.502  17.092  66.821  1.00  0.00    -0.266 A  
HETATM    9  C   UNL     1      -7.109  13.542  67.739  1.00  0.00    -0.163 A  
HETATM   10  C   UNL     1      -8.432  17.981  66.290  1.00  0.00    -0.214 A  
HETATM   11  C   UNL     1      -8.317  13.006  67.304  1.00  0.00    -0.186 A  
HETATM   12  C   UNL     1      -9.309  13.813  66.711  1.00  0.00    -0.276 A  
BRANCH  12  13
HETATM   13  C   UNL     1     -10.572  13.161  66.155  1.00  0.00    -0.288 C  
BRANCH  13  14
HETATM   14  C   UNL     1     -10.839  11.708  66.583  1.00  0.00    -0.283 C  
BRANCH  14  15
HETATM   15  N   UNL     1     -11.786  11.595  67.683  1.00  0.00    -0.270 N  
HETATM   16  C   UNL     1     -11.400  11.204  68.943  1.00  0.00    -0.278 C  
HETATM   17  H   UNL     1     -12.768  11.814  67.513  1.00  0.00     0.000 HD 
HETATM   18  C   UNL     1     -12.536  11.059  69.921  1.00  0.00    -0.286 C  
HETATM   19  O   UNL     1     -10.237  10.995  69.269  1.00  0.00    -0.204 OA 
ENDBRANCH  14  15
ENDBRANCH  13  14
ENDBRANCH  12  13
ENDBRANCH   2   3
TORSDOF 4
ENDMDL
MODEL      136
REMARK 921   NORMALIZED FREE ENERGY PREDICTED BY IDOCK:   -3.99 KCAL/MOL
REMARK 922        TOTAL FREE ENERGY PREDICTED BY IDOCK:   -5.36 KCAL/MOL
REMARK 923 INTER-LIGAND FREE ENERGY PREDICTED BY IDOCK:   -5.05 KCAL/MOL
REMARK 924 INTRA-LIGAND FREE ENERGY PREDICTED BY IDOCK:   -0.31 KCAL/MOL
REMARK 927      BINDING AFFINITY PREDICTED BY RF-SCORE:    0.00 PKD
ROOT
HETATM    1  C   UNL     1      -5.281  19.366  70.492  1.00  0.00    -0.213 C  
HETATM    2  O   UNL     1      -5.188  19.116  69.089  1.00  0.00    -0.193 OA 
ENDROOT
BRANCH   2   3
HETATM    3  C   UNL     1      -6.369  19.258  68.409  1.00  0.00    -0.233 A  
HETATM    4  C   UNL     1      -7.102  18.085  68.189  1.00  0.00    -0.230 A  
HETATM    5  C   UNL     1      -8.323  18.079  67.460  1.00  0.00    -0.233 A  
HETATM    6  C   UNL     1      -8.781  19.337  66.984  1.00  0.00    -0.319 A  
HETATM    7  C   UNL     1      -9.954  19.425  66.228  1.00  0.00    -0.509 A  
HETATM    8  C   UNL     1      -8.071  20.511  67.267  1.00  0.00    -0.362 A  
HETATM    9  C   UNL     1     -10.691  18.290  65.926  1.00  0.00    -0.168 A  
HETATM   10  C   UNL     1      -6.874  20.476  67.975  1.00  0.00    -0.316 A  
HETATM   11  C   UNL     1     -10.278  17.051  66.403  1.00  0.00    -0.330 A  
HETATM   12  C   UNL     1      -9.103  16.912  67.169  1.00  0.00    -0.228 A  
BRANCH  12  13
HETATM   13  C   UNL     1      -8.750  15.549  67.759  1.00  0.00    -0.170 C  
BRANCH  13  14
HETATM   14  C   UNL     1      -8.798  15.432  69.291  1.00  0.00    -0.258 C  
BRANCH  14  15
HETATM   15  N   UNL     1     -10.110  15.057  69.799  1.00  0.00    -0.441 N  
HETATM   16  C   UNL     1     -11.048  15.994  70.164  1.00  0.00    -0.371 C  
HETATM   17  H   UNL     1     -10.341  14.067  69.887  1.00  0.00     0.000 HD 
HETATM   18  C   UNL     1     -12.308  15.413  70.751  1.00  0.00    -0.447 C  
HETATM   19  O   UNL     1     -10.898  17.203  70.025  1.00  0.00    -0.031 OA 
ENDBRANCH  14  15
ENDBRANCH  13  14
ENDBRANCH  12  13
ENDBRANCH   2   3
TORSDOF 4
ENDMDL
MODEL      137
REMARK 921   NORMALIZED FREE ENERGY PREDICTED BY IDOCK:   -3.99 KCAL/MOL
REMARK 922        TOTAL FREE ENERGY PREDICTED BY IDOCK:   -5.36 KCAL/MOL
REMARK 923 INTER-LIGAND FREE ENERGY PREDICTED BY IDOCK:   -4.88 KCAL/MOL
REMARK 924 INTRA-LIGAND FREE ENERGY PREDICTED BY IDOCK:   -0.48 KCAL/MOL
REMARK 927      BINDING AFFINITY PREDICTED BY RF-SCORE:    0.00 PKD
ROOT
HETATM    1  C   UNL     1      -8.076  10.735  66.381  1.00  0.00    -0.153 C  
HETATM    2  O   UNL     1      -7.670  11.366  67.595  1.00  0.00    -0.111 OA 
ENDROOT
BRANCH   2   3
HETATM    3  C   UNL     1      -7.920  12.713  67.646  1.00  0.00    -0.169 A  
HETATM    4  C   UNL     1      -9.218  13.087  68.017  1.00  0.00    -0.212 A  
HETATM    5  C   UNL     1      -9.629  14.448  68.068  1.00  0.00    -0.216 A  
HETATM    6  C   UNL     1      -8.642  15.418  67.749  1.00  0.00    -0.162 A  
HETATM    7  C   UNL     1      -8.963  16.780  67.739  1.00  0.00    -0.216 A  
HETATM    8  C   UNL     1      -7.330  15.032  67.443  1.00  0.00    -0.231 A  
HETATM    9  C   UNL     1     -10.247  17.209  68.038  1.00  0.00    -0.332 A  
HETATM   10  C   UNL     1      -6.968  13.689  67.392  1.00  0.00    -0.075 A  
HETATM   11  C   UNL     1     -11.223  16.279  68.382  1.00  0.00    -0.349 A  
HETATM   12  C   UNL     1     -10.948  14.898  68.405  1.00  0.00    -0.266 A  
BRANCH  12  13
HETATM   13  C   UNL     1     -12.022  13.927  68.890  1.00  0.00    -0.393 C  
BRANCH  13  14
HETATM   14  C   UNL     1     -11.995  13.566  70.384  1.00  0.00    -0.295 C  
BRANCH  14  15
HETATM   15  N   UNL     1     -12.974  14.300  71.173  1.00  0.00    -0.341 N  
HETATM   16  C   UNL     1     -12.632  15.397  71.927  1.00  0.00    -0.380 C  
HETATM   17  H   UNL     1     -13.946  13.990  71.165  1.00  0.00     0.000 HD 
HETATM   18  C   UNL     1     -13.763  15.964  72.744  1.00  0.00    -0.571 C  
HETATM   19  O   UNL     1     -11.511  15.894  71.944  1.00  0.00    -0.406 OA 
ENDBRANCH  14  15
ENDBRANCH  13  14
ENDBRANCH  12  13
ENDBRANCH   2   3
TORSDOF 4
ENDMDL
MODEL      138
REMARK 921   NORMALIZED FREE ENERGY PREDICTED BY IDOCK:   -3.98 KCAL/MOL
REMARK 922        TOTAL FREE ENERGY PREDICTED BY IDOCK:   -5.35 KCAL/MOL
REMARK 923 INTER-LIGAND FREE ENERGY PREDICTED BY IDOCK:   -5.09 KCAL/MOL
REMARK 924 INTRA-LIGAND FREE ENERGY PREDICTED BY IDOCK:   -0.26 KCAL/MOL
REMARK 927      BINDING AFFINITY PREDICTED BY RF-SCORE:    0.00 PKD
ROOT
HETATM    1  C   UNL     1      -5.610  12.484  68.384  1.00  0.00    -0.058 C  
HETATM    2  O   UNL     1      -6.448  13.502  68.931  1.00  0.00    -0.090 OA 
ENDROOT
BRANCH   2   3
HETATM    3  C   UNL     1      -7.505  13.857  68.133  1.00  0.00    -0.126 A  
HETATM    4  C   UNL     1      -8.591  12.972  68.115  1.00  0.00    -0.188 A  
HETATM    5  C   UNL     1      -9.734  13.193  67.299  1.00  0.00    -0.230 A  
HETATM    6  C   UNL     1      -9.733  14.379  66.517  1.00  0.00    -0.305 A  
HETATM    7  C   UNL     1     -10.799  14.664  65.657  1.00  0.00    -0.335 A  
HETATM    8  C   UNL     1      -8.669  15.287  66.594  1.00  0.00    -0.327 A  
HETATM    9  C   UNL     1     -11.876  13.796  65.550  1.00  0.00    -0.378 A  
HETATM   10  C   UNL     1      -7.561  15.031  67.397  1.00  0.00    -0.233 A  
HETATM   11  C   UNL     1     -11.913  12.642  66.327  1.00  0.00    -0.439 A  
HETATM   12  C   UNL     1     -10.862  12.313  67.206  1.00  0.00    -0.283 A  
BRANCH  12  13
HETATM   13  C   UNL     1     -10.999  11.093  68.114  1.00  0.00    -0.292 C  
BRANCH  13  14
HETATM   14  C   UNL     1     -11.541  11.349  69.529  1.00  0.00    -0.331 C  
BRANCH  14  15
HETATM   15  N   UNL     1     -11.425  10.194  70.408  1.00  0.00    -0.299 N  
HETATM   16  C   UNL     1     -12.349   9.926  71.390  1.00  0.00    -0.404 C  
HETATM   17  H   UNL     1     -10.633   9.562  70.291  1.00  0.00     0.000 HD 
HETATM   18  C   UNL     1     -12.009   8.740  72.254  1.00  0.00    -0.415 C  
HETATM   19  O   UNL     1     -13.374  10.577  71.561  1.00  0.00    -0.356 OA 
ENDBRANCH  14  15
ENDBRANCH  13  14
ENDBRANCH  12  13
ENDBRANCH   2   3
TORSDOF 4
ENDMDL
MODEL      139
REMARK 921   NORMALIZED FREE ENERGY PREDICTED BY IDOCK:   -3.98 KCAL/MOL
REMARK 922        TOTAL FREE ENERGY PREDICTED BY IDOCK:   -5.35 KCAL/MOL
REMARK 923 INTER-LIGAND FREE ENERGY PREDICTED BY IDOCK:   -5.00 KCAL/MOL
REMARK 924 INTRA-LIGAND FREE ENERGY PREDICTED BY IDOCK:   -0.35 KCAL/MOL
REMARK 927      BINDING AFFINITY PREDICTED BY RF-SCORE:    0.00 PKD
ROOT
HETATM    1  C   UNL     1     -10.779   9.321  67.440  1.00  0.00    -0.193 C  
HETATM    2  O   UNL     1     -11.464   9.330  68.693  1.00  0.00     0.274 OA 
ENDROOT
BRANCH   2   3
HETATM    3  C   UNL     1     -11.709  10.582  69.195  1.00  0.00    -0.189 A  
HETATM    4  C   UNL     1     -11.579  11.646  68.294  1.00  0.00    -0.378 A  
HETATM    5  C   UNL     1     -11.762  13.000  68.689  1.00  0.00    -0.359 A  
HETATM    6  C   UNL     1     -12.111  13.220  70.048  1.00  0.00    -0.385 A  
HETATM    7  C   UNL     1     -12.278  14.520  70.536  1.00  0.00    -0.399 A  
HETATM    8  C   UNL     1     -12.301  12.142  70.922  1.00  0.00    -0.370 A  
HETATM    9  C   UNL     1     -12.103  15.618  69.707  1.00  0.00    -0.346 A  
HETATM   10  C   UNL     1     -12.103  10.830  70.502  1.00  0.00    -0.459 A  
HETATM   11  C   UNL     1     -11.788  15.427  68.366  1.00  0.00    -0.264 A  
HETATM   12  C   UNL     1     -11.610  14.137  67.829  1.00  0.00    -0.379 A  
BRANCH  12  13
HETATM   13  C   UNL     1     -11.370  13.976  66.330  1.00  0.00    -0.336 C  
BRANCH  13  14
HETATM   14  C   UNL     1      -9.924  13.687  65.894  1.00  0.00    -0.291 C  
BRANCH  14  15
HETATM   15  N   UNL     1      -9.792  12.472  65.103  1.00  0.00    -0.448 N  
HETATM   16  C   UNL     1      -8.937  11.455  65.459  1.00  0.00    -0.088 C  
HETATM   17  H   UNL     1     -10.353  12.371  64.256  1.00  0.00     0.000 HD 
HETATM   18  C   UNL     1      -8.873  10.324  64.468  1.00  0.00    -0.223 C  
HETATM   19  O   UNL     1      -8.280  11.445  66.495  1.00  0.00    -0.166 OA 
ENDBRANCH  14  15
ENDBRANCH  13  14
ENDBRANCH  12  13
ENDBRANCH   2   3
TORSDOF 4
ENDMDL
MODEL      140
REMARK 921   NORMALIZED FREE ENERGY PREDICTED BY IDOCK:   -3.96 KCAL/MOL
REMARK 922        TOTAL FREE ENERGY PREDICTED BY IDOCK:   -5.33 KCAL/MOL
REMARK 923 INTER-LIGAND FREE ENERGY PREDICTED BY IDOCK:   -4.89 KCAL/MOL
REMARK 924 INTRA-LIGAND FREE ENERGY PREDICTED BY IDOCK:   -0.44 KCAL/MOL
REMARK 927      BINDING AFFINITY PREDICTED BY RF-SCORE:    0.00 PKD
ROOT
HETATM    1  C   UNL     1     -13.066  10.088  71.183  1.00  0.00    -0.386 C  
HETATM    2  O   UNL     1     -11.842  10.810  71.047  1.00  0.00    -0.323 OA 
ENDROOT
BRANCH   2   3
HETATM    3  C   UNL     1     -11.740  11.540  69.892  1.00  0.00    -0.343 A  
HETATM    4  C   UNL     1     -11.228  10.864  68.776  1.00  0.00    -0.329 A  
HETATM    5  C   UNL     1     -11.027  11.510  67.526  1.00  0.00    -0.308 A  
HETATM    6  C   UNL     1     -11.399  12.879  67.455  1.00  0.00    -0.355 A  
HETATM    7  C   UNL     1     -11.206  13.607  66.275  1.00  0.00    -0.313 A  
HETATM    8  C   UNL     1     -11.970  13.525  68.559  1.00  0.00    -0.379 A  
HETATM    9  C   UNL     1     -10.647  13.009  65.155  1.00  0.00    -0.327 A  
HETATM   10  C   UNL     1     -12.142  12.862  69.771  1.00  0.00    -0.312 A  
HETATM   11  C   UNL     1     -10.300  11.663  65.192  1.00  0.00    -0.326 A  
HETATM   12  C   UNL     1     -10.476  10.889  66.357  1.00  0.00    -0.307 A  
BRANCH  12  13
HETATM   13  C   UNL     1     -10.179   9.393  66.314  1.00  0.00    -0.284 C  
BRANCH  13  14
HETATM   14  C   UNL     1      -8.781   8.957  66.783  1.00  0.00    -0.119 C  
BRANCH  14  15
HETATM   15  N   UNL     1      -7.886  10.075  67.045  1.00  0.00    -0.102 N  
HETATM   16  C   UNL     1      -6.922  10.468  66.146  1.00  0.00    -0.131 C  
HETATM   17  H   UNL     1      -7.978  10.585  67.924  1.00  0.00     0.000 HD 
HETATM   18  C   UNL     1      -6.037  11.584  66.634  1.00  0.00    -0.126 C  
HETATM   19  O   UNL     1      -6.783   9.973  65.033  1.00  0.00    -0.115 OA 
ENDBRANCH  14  15
ENDBRANCH  13  14
ENDBRANCH  12  13
ENDBRANCH   2   3
TORSDOF 4
ENDMDL
MODEL      141
REMARK 921   NORMALIZED FREE ENERGY PREDICTED BY IDOCK:   -3.94 KCAL/MOL
REMARK 922        TOTAL FREE ENERGY PREDICTED BY IDOCK:   -5.30 KCAL/MOL
REMARK 923 INTER-LIGAND FREE ENERGY PREDICTED BY IDOCK:   -4.91 KCAL/MOL
REMARK 924 INTRA-LIGAND FREE ENERGY PREDICTED BY IDOCK:   -0.39 KCAL/MOL
REMARK 927      BINDING AFFINITY PREDICTED BY RF-SCORE:    0.00 PKD
ROOT
HETATM    1  C   UNL     1     -12.525  14.155  64.911  1.00  0.00    -0.401 C  
HETATM    2  O   UNL     1     -12.070  13.137  65.803  1.00  0.00    -0.402 OA 
ENDROOT
BRANCH   2   3
HETATM    3  C   UNL     1     -11.219  12.225  65.235  1.00  0.00    -0.328 A  
HETATM    4  C   UNL     1     -10.894  11.111  66.020  1.00  0.00    -0.230 A  
HETATM    5  C   UNL     1      -9.989  10.109  65.574  1.00  0.00    -0.363 A  
HETATM    6  C   UNL     1      -9.447  10.280  64.272  1.00  0.00    -0.365 A  
HETATM    7  C   UNL     1      -8.522   9.363  63.761  1.00  0.00    -0.200 A  
HETATM    8  C   UNL     1      -9.831  11.365  63.473  1.00  0.00    -0.404 A  
HETATM    9  C   UNL     1      -8.114   8.272  64.514  1.00  0.00    -0.146 A  
HETATM   10  C   UNL     1     -10.712  12.332  63.948  1.00  0.00    -0.463 A  
HETATM   11  C   UNL     1      -8.651   8.068  65.781  1.00  0.00    -0.174 A  
HETATM   12  C   UNL     1      -9.585   8.964  66.337  1.00  0.00    -0.304 A  
BRANCH  12  13
HETATM   13  C   UNL     1     -10.225   8.640  67.685  1.00  0.00    -0.300 C  
BRANCH  13  14
HETATM   14  C   UNL     1      -9.318   8.761  68.921  1.00  0.00    -0.145 C  
BRANCH  14  15
HETATM   15  N   UNL     1      -8.349   9.843  68.821  1.00  0.00    -0.111 N  
HETATM   16  C   UNL     1      -7.540  10.201  69.873  1.00  0.00    -0.166 C  
HETATM   17  H   UNL     1      -8.267  10.352  67.940  1.00  0.00     0.000 HD 
HETATM   18  C   UNL     1      -6.670  11.400  69.606  1.00  0.00    -0.105 C  
HETATM   19  O   UNL     1      -7.506   9.604  70.944  1.00  0.00    -0.302 OA 
ENDBRANCH  14  15
ENDBRANCH  13  14
ENDBRANCH  12  13
ENDBRANCH   2   3
TORSDOF 4
ENDMDL
MODEL      142
REMARK 921   NORMALIZED FREE ENERGY PREDICTED BY IDOCK:   -3.92 KCAL/MOL
REMARK 922        TOTAL FREE ENERGY PREDICTED BY IDOCK:   -5.28 KCAL/MOL
REMARK 923 INTER-LIGAND FREE ENERGY PREDICTED BY IDOCK:   -5.03 KCAL/MOL
REMARK 924 INTRA-LIGAND FREE ENERGY PREDICTED BY IDOCK:   -0.25 KCAL/MOL
REMARK 927      BINDING AFFINITY PREDICTED BY RF-SCORE:    0.00 PKD
ROOT
HETATM    1  C   UNL     1     -10.523  18.010  66.658  1.00  0.00    -0.325 C  
HETATM    2  O   UNL     1      -9.724  17.058  65.954  1.00  0.00    -0.479 OA 
ENDROOT
BRANCH   2   3
HETATM    3  C   UNL     1     -10.437  16.051  65.357  1.00  0.00    -0.392 A  
HETATM    4  C   UNL     1     -10.011  14.745  65.631  1.00  0.00    -0.390 A  
HETATM    5  C   UNL     1     -10.630  13.607  65.045  1.00  0.00    -0.394 A  
HETATM    6  C   UNL     1     -11.729  13.861  64.181  1.00  0.00    -0.369 A  
HETATM    7  C   UNL     1     -12.380  12.806  63.532  1.00  0.00    -0.559 A  
HETATM    8  C   UNL     1     -12.186  15.168  63.967  1.00  0.00    -0.070 A  
HETATM    9  C   UNL     1     -11.965  11.495  63.716  1.00  0.00    -0.196 A  
HETATM   10  C   UNL     1     -11.547  16.258  64.551  1.00  0.00    -0.091 A  
HETATM   11  C   UNL     1     -10.909  11.220  64.578  1.00  0.00    -0.354 A  
HETATM   12  C   UNL     1     -10.223  12.249  65.254  1.00  0.00    -0.305 A  
BRANCH  12  13
HETATM   13  C   UNL     1      -9.142  11.888  66.269  1.00  0.00    -0.188 C  
BRANCH  13  14
HETATM   14  C   UNL     1      -9.566  11.876  67.747  1.00  0.00    -0.190 C  
BRANCH  14  15
HETATM   15  N   UNL     1      -8.573  11.275  68.626  1.00  0.00    -0.200 N  
HETATM   16  C   UNL     1      -8.869  10.214  69.449  1.00  0.00    -0.185 C  
HETATM   17  H   UNL     1      -7.625  11.654  68.632  1.00  0.00     0.000 HD 
HETATM   18  C   UNL     1      -7.738   9.793  70.349  1.00  0.00    -0.159 C  
HETATM   19  O   UNL     1      -9.952   9.639  69.461  1.00  0.00    -0.184 OA 
ENDBRANCH  14  15
ENDBRANCH  13  14
ENDBRANCH  12  13
ENDBRANCH   2   3
TORSDOF 4
ENDMDL
MODEL      143
REMARK 921   NORMALIZED FREE ENERGY PREDICTED BY IDOCK:   -3.91 KCAL/MOL
REMARK 922        TOTAL FREE ENERGY PREDICTED BY IDOCK:   -5.26 KCAL/MOL
REMARK 923 INTER-LIGAND FREE ENERGY PREDICTED BY IDOCK:   -5.15 KCAL/MOL
REMARK 924 INTRA-LIGAND FREE ENERGY PREDICTED BY IDOCK:   -0.10 KCAL/MOL
REMARK 927      BINDING AFFINITY PREDICTED BY RF-SCORE:    0.00 PKD
ROOT
HETATM    1  C   UNL     1     -12.862  14.641  71.534  1.00  0.00    -0.333 C  
HETATM    2  O   UNL     1     -12.239  15.266  70.412  1.00  0.00    -0.314 OA 
ENDROOT
BRANCH   2   3
HETATM    3  C   UNL     1     -12.011  14.429  69.351  1.00  0.00    -0.328 A  
HETATM    4  C   UNL     1     -11.648  13.114  69.667  1.00  0.00    -0.321 A  
HETATM    5  C   UNL     1     -11.340  12.151  68.667  1.00  0.00    -0.330 A  
HETATM    6  C   UNL     1     -11.447  12.585  67.319  1.00  0.00    -0.416 A  
HETATM    7  C   UNL     1     -11.131  11.718  66.267  1.00  0.00    -0.364 A  
HETATM    8  C   UNL     1     -11.874  13.884  67.015  1.00  0.00    -0.447 A  
HETATM    9  C   UNL     1     -10.706  10.422  66.519  1.00  0.00    -0.162 A  
HETATM   10  C   UNL     1     -12.157  14.802  68.023  1.00  0.00    -0.163 A  
HETATM   11  C   UNL     1     -10.621   9.966  67.830  1.00  0.00    -0.313 A  
HETATM   12  C   UNL     1     -10.928  10.802  68.921  1.00  0.00    -0.289 A  
BRANCH  12  13
HETATM   13  C   UNL     1     -10.921  10.224  70.334  1.00  0.00    -0.365 C  
BRANCH  13  14
HETATM   14  C   UNL     1     -11.435   8.783  70.488  1.00  0.00    -0.196 C  
BRANCH  14  15
HETATM   15  N   UNL     1     -10.424   7.776  70.196  1.00  0.00    -0.226 N  
HETATM   16  C   UNL     1     -10.710   6.431  70.194  1.00  0.00    -0.271 C  
HETATM   17  H   UNL     1      -9.472   8.079  69.987  1.00  0.00     0.000 HD 
HETATM   18  C   UNL     1      -9.515   5.544  69.961  1.00  0.00    -0.205 C  
HETATM   19  O   UNL     1     -11.834   5.970  70.357  1.00  0.00    -0.110 OA 
ENDBRANCH  14  15
ENDBRANCH  13  14
ENDBRANCH  12  13
ENDBRANCH   2   3
TORSDOF 4
ENDMDL
MODEL      144
REMARK 921   NORMALIZED FREE ENERGY PREDICTED BY IDOCK:   -3.90 KCAL/MOL
REMARK 922        TOTAL FREE ENERGY PREDICTED BY IDOCK:   -5.25 KCAL/MOL
REMARK 923 INTER-LIGAND FREE ENERGY PREDICTED BY IDOCK:   -4.93 KCAL/MOL
REMARK 924 INTRA-LIGAND FREE ENERGY PREDICTED BY IDOCK:   -0.32 KCAL/MOL
REMARK 927      BINDING AFFINITY PREDICTED BY RF-SCORE:    0.00 PKD
ROOT
HETATM    1  C   UNL     1     -12.381  12.037  63.572  1.00  0.00    -0.551 C  
HETATM    2  O   UNL     1     -12.607  13.440  63.702  1.00  0.00    -0.718 OA 
ENDROOT
BRANCH   2   3
HETATM    3  C   UNL     1     -11.683  14.094  64.475  1.00  0.00    -0.413 A  
HETATM    4  C   UNL     1     -10.840  13.285  65.248  1.00  0.00    -0.314 A  
HETATM    5  C   UNL     1      -9.866  13.831  66.128  1.00  0.00    -0.310 A  
HETATM    6  C   UNL     1      -9.769  15.247  66.165  1.00  0.00    -0.343 A  
HETATM    7  C   UNL     1      -8.862  15.875  67.026  1.00  0.00    -0.240 A  
HETATM    8  C   UNL     1     -10.574  16.042  65.338  1.00  0.00    -0.428 A  
HETATM    9  C   UNL     1      -8.043  15.129  67.861  1.00  0.00    -0.144 A  
HETATM   10  C   UNL     1     -11.525  15.472  64.497  1.00  0.00    -0.311 A  
HETATM   11  C   UNL     1      -8.100  13.740  67.823  1.00  0.00    -0.176 A  
HETATM   12  C   UNL     1      -8.997  13.064  66.972  1.00  0.00    -0.225 A  
BRANCH  12  13
HETATM   13  C   UNL     1      -8.947  11.540  66.890  1.00  0.00    -0.179 C  
BRANCH  13  14
HETATM   14  C   UNL     1      -7.713  10.930  66.206  1.00  0.00    -0.147 C  
BRANCH  14  15
HETATM   15  N   UNL     1      -8.038   9.848  65.288  1.00  0.00    -0.132 N  
HETATM   16  C   UNL     1      -7.085   9.243  64.503  1.00  0.00    -0.093 C  
HETATM   17  H   UNL     1      -9.005   9.527  65.227  1.00  0.00     0.000 HD 
HETATM   18  C   UNL     1      -7.631   8.208  63.554  1.00  0.00    -0.136 C  
HETATM   19  O   UNL     1      -5.888   9.501  64.558  1.00  0.00    -0.071 OA 
ENDBRANCH  14  15
ENDBRANCH  13  14
ENDBRANCH  12  13
ENDBRANCH   2   3
TORSDOF 4
ENDMDL
MODEL      145
REMARK 921   NORMALIZED FREE ENERGY PREDICTED BY IDOCK:   -3.90 KCAL/MOL
REMARK 922        TOTAL FREE ENERGY PREDICTED BY IDOCK:   -5.25 KCAL/MOL
REMARK 923 INTER-LIGAND FREE ENERGY PREDICTED BY IDOCK:   -4.98 KCAL/MOL
REMARK 924 INTRA-LIGAND FREE ENERGY PREDICTED BY IDOCK:   -0.27 KCAL/MOL
REMARK 927      BINDING AFFINITY PREDICTED BY RF-SCORE:    0.00 PKD
ROOT
HETATM    1  C   UNL     1      -7.214  19.896  68.726  1.00  0.00    -0.274 C  
HETATM    2  O   UNL     1      -7.769  18.597  68.935  1.00  0.00    -0.301 OA 
ENDROOT
BRANCH   2   3
HETATM    3  C   UNL     1      -8.642  18.190  67.961  1.00  0.00    -0.265 A  
HETATM    4  C   UNL     1      -8.815  16.807  67.823  1.00  0.00    -0.208 A  
HETATM    5  C   UNL     1      -9.657  16.245  66.825  1.00  0.00    -0.254 A  
HETATM    6  C   UNL     1     -10.342  17.163  65.985  1.00  0.00    -0.317 A  
HETATM    7  C   UNL     1     -11.167  16.702  64.953  1.00  0.00    -0.065 A  
HETATM    8  C   UNL     1     -10.211  18.544  66.176  1.00  0.00    -0.424 A  
HETATM    9  C   UNL     1     -11.330  15.343  64.728  1.00  0.00    -0.381 A  
HETATM   10  C   UNL     1      -9.368  19.058  67.158  1.00  0.00    -0.345 A  
HETATM   11  C   UNL     1     -10.691  14.424  65.554  1.00  0.00    -0.344 A  
HETATM   12  C   UNL     1      -9.852  14.841  66.606  1.00  0.00    -0.270 A  
BRANCH  12  13
HETATM   13  C   UNL     1      -9.259  13.798  67.550  1.00  0.00    -0.216 C  
BRANCH  13  14
HETATM   14  C   UNL     1     -10.222  12.719  68.072  1.00  0.00    -0.228 C  
BRANCH  14  15
HETATM   15  N   UNL     1     -10.004  11.411  67.470  1.00  0.00    -0.181 N  
HETATM   16  C   UNL     1     -10.786  10.323  67.779  1.00  0.00    -0.292 C  
HETATM   17  H   UNL     1      -9.247  11.299  66.795  1.00  0.00     0.000 HD 
HETATM   18  C   UNL     1     -10.348   9.040  67.125  1.00  0.00    -0.342 C  
HETATM   19  O   UNL     1     -11.766  10.372  68.515  1.00  0.00    -0.269 OA 
ENDBRANCH  14  15
ENDBRANCH  13  14
ENDBRANCH  12  13
ENDBRANCH   2   3
TORSDOF 4
ENDMDL
MODEL      146
REMARK 921   NORMALIZED FREE ENERGY PREDICTED BY IDOCK:   -3.88 KCAL/MOL
REMARK 922        TOTAL FREE ENERGY PREDICTED BY IDOCK:   -5.22 KCAL/MOL
REMARK 923 INTER-LIGAND FREE ENERGY PREDICTED BY IDOCK:   -4.88 KCAL/MOL
REMARK 924 INTRA-LIGAND FREE ENERGY PREDICTED BY IDOCK:   -0.34 KCAL/MOL
REMARK 927      BINDING AFFINITY PREDICTED BY RF-SCORE:    0.00 PKD
ROOT
HETATM    1  C   UNL     1     -11.716  11.014  68.628  1.00  0.00    -0.296 C  
HETATM    2  O   UNL     1     -11.999  10.785  70.008  1.00  0.00    -0.292 OA 
ENDROOT
BRANCH   2   3
HETATM    3  C   UNL     1     -11.558   9.578  70.485  1.00  0.00    -0.254 A  
HETATM    4  C   UNL     1     -11.286   8.596  69.523  1.00  0.00     0.127 A  
HETATM    5  C   UNL     1     -10.863   7.285  69.878  1.00  0.00    -0.264 A  
HETATM    6  C   UNL     1     -10.703   7.027  71.266  1.00  0.00    -0.243 A  
HETATM    7  C   UNL     1     -10.323   5.756  71.712  1.00  0.00    -0.271 A  
HETATM    8  C   UNL     1     -10.915   8.037  72.212  1.00  0.00    -0.377 A  
HETATM    9  C   UNL     1     -10.098   4.725  70.811  1.00  0.00    -0.286 A  
HETATM   10  C   UNL     1     -11.339   9.306  71.827  1.00  0.00    -0.437 A  
HETATM   11  C   UNL     1     -10.222   4.962  69.446  1.00  0.00    -0.229 A  
HETATM   12  C   UNL     1     -10.602   6.224  68.950  1.00  0.00    -0.321 A  
BRANCH  12  13
HETATM   13  C   UNL     1     -10.621   6.462  67.442  1.00  0.00    -0.363 C  
BRANCH  13  14
HETATM   14  C   UNL     1      -9.459   7.286  66.863  1.00  0.00    -0.164 C  
BRANCH  14  15
HETATM   15  N   UNL     1      -9.881   8.248  65.855  1.00  0.00    -0.440 N  
HETATM   16  C   UNL     1      -9.379   9.528  65.810  1.00  0.00    -0.233 C  
HETATM   17  H   UNL     1     -10.571   7.964  65.159  1.00  0.00     0.000 HD 
HETATM   18  C   UNL     1     -10.004  10.401  64.754  1.00  0.00    -0.409 C  
HETATM   19  O   UNL     1      -8.493   9.942  66.549  1.00  0.00    -0.124 OA 
ENDBRANCH  14  15
ENDBRANCH  13  14
ENDBRANCH  12  13
ENDBRANCH   2   3
TORSDOF 4
ENDMDL
MODEL      147
REMARK 921   NORMALIZED FREE ENERGY PREDICTED BY IDOCK:   -3.85 KCAL/MOL
REMARK 922        TOTAL FREE ENERGY PREDICTED BY IDOCK:   -5.19 KCAL/MOL
REMARK 923 INTER-LIGAND FREE ENERGY PREDICTED BY IDOCK:   -4.66 KCAL/MOL
REMARK 924 INTRA-LIGAND FREE ENERGY PREDICTED BY IDOCK:   -0.53 KCAL/MOL
REMARK 927      BINDING AFFINITY PREDICTED BY RF-SCORE:    0.00 PKD
ROOT
HETATM    1  C   UNL     1      -6.049   8.627  74.565  1.00  0.00    -0.129 C  
HETATM    2  O   UNL     1      -7.469   8.751  74.486  1.00  0.00    -0.396 OA 
ENDROOT
BRANCH   2   3
HETATM    3  C   UNL     1      -8.053   7.975  73.520  1.00  0.00    -0.200 A  
HETATM    4  C   UNL     1      -9.255   8.455  72.984  1.00  0.00    -0.256 A  
HETATM    5  C   UNL     1      -9.991   7.731  72.006  1.00  0.00    -0.231 A  
HETATM    6  C   UNL     1      -9.429   6.500  71.575  1.00  0.00    -0.162 A  
HETATM    7  C   UNL     1     -10.099   5.702  70.641  1.00  0.00    -0.274 A  
HETATM    8  C   UNL     1      -8.194   6.063  72.072  1.00  0.00    -0.107 A  
HETATM    9  C   UNL     1     -11.323   6.095  70.120  1.00  0.00    -0.433 A  
HETATM   10  C   UNL     1      -7.508   6.794  73.037  1.00  0.00    -0.086 A  
HETATM   11  C   UNL     1     -11.880   7.310  70.505  1.00  0.00    -0.237 A  
HETATM   12  C   UNL     1     -11.243   8.147  71.442  1.00  0.00    -0.297 A  
BRANCH  12  13
HETATM   13  C   UNL     1     -11.841   9.516  71.752  1.00  0.00    -0.430 C  
BRANCH  13  14
HETATM   14  C   UNL     1     -12.168  10.411  70.545  1.00  0.00    -0.323 C  
BRANCH  14  15
HETATM   15  N   UNL     1     -10.994  11.044  69.962  1.00  0.00    -0.467 N  
HETATM   16  C   UNL     1     -10.495  10.672  68.736  1.00  0.00    -0.194 C  
HETATM   17  H   UNL     1     -10.525  11.788  70.479  1.00  0.00     0.000 HD 
HETATM   18  C   UNL     1      -9.224  11.377  68.344  1.00  0.00    -0.183 C  
HETATM   19  O   UNL     1     -11.028   9.845  68.003  1.00  0.00    -0.257 OA 
ENDBRANCH  14  15
ENDBRANCH  13  14
ENDBRANCH  12  13
ENDBRANCH   2   3
TORSDOF 4
ENDMDL
MODEL      148
REMARK 921   NORMALIZED FREE ENERGY PREDICTED BY IDOCK:   -3.84 KCAL/MOL
REMARK 922        TOTAL FREE ENERGY PREDICTED BY IDOCK:   -5.17 KCAL/MOL
REMARK 923 INTER-LIGAND FREE ENERGY PREDICTED BY IDOCK:   -5.01 KCAL/MOL
REMARK 924 INTRA-LIGAND FREE ENERGY PREDICTED BY IDOCK:   -0.16 KCAL/MOL
REMARK 927      BINDING AFFINITY PREDICTED BY RF-SCORE:    0.00 PKD
ROOT
HETATM    1  C   UNL     1      -5.997  13.655  68.903  1.00  0.00    -0.085 C  
HETATM    2  O   UNL     1      -7.181  14.440  68.764  1.00  0.00    -0.114 OA 
ENDROOT
BRANCH   2   3
HETATM    3  C   UNL     1      -8.120  13.905  67.921  1.00  0.00    -0.158 A  
HETATM    4  C   UNL     1      -8.854  14.818  67.153  1.00  0.00    -0.234 A  
HETATM    5  C   UNL     1      -9.889  14.405  66.270  1.00  0.00    -0.321 A  
HETATM    6  C   UNL     1     -10.127  13.008  66.184  1.00  0.00    -0.287 A  
HETATM    7  C   UNL     1     -11.148  12.510  65.367  1.00  0.00    -0.337 A  
HETATM    8  C   UNL     1      -9.342  12.102  66.909  1.00  0.00    -0.203 A  
HETATM    9  C   UNL     1     -11.948  13.369  64.629  1.00  0.00    -0.441 A  
HETATM   10  C   UNL     1      -8.344  12.544  67.772  1.00  0.00    -0.170 A  
HETATM   11  C   UNL     1     -11.717  14.739  64.675  1.00  0.00    -0.426 A  
HETATM   12  C   UNL     1     -10.701  15.287  65.482  1.00  0.00    -0.385 A  
BRANCH  12  13
HETATM   13  C   UNL     1     -10.417  16.786  65.417  1.00  0.00    -0.212 C  
BRANCH  13  14
HETATM   14  C   UNL     1     -10.617  17.579  66.719  1.00  0.00    -0.201 C  
BRANCH  14  15
HETATM   15  N   UNL     1      -9.459  18.377  67.092  1.00  0.00    -0.276 N  
HETATM   16  C   UNL     1      -9.337  19.701  66.738  1.00  0.00    -0.364 C  
HETATM   17  H   UNL     1      -8.712  17.941  67.633  1.00  0.00     0.000 HD 
HETATM   18  C   UNL     1      -8.029  20.331  67.135  1.00  0.00    -0.378 C  
HETATM   19  O   UNL     1     -10.210  20.336  66.157  1.00  0.00    -0.418 OA 
ENDBRANCH  14  15
ENDBRANCH  13  14
ENDBRANCH  12  13
ENDBRANCH   2   3
TORSDOF 4
ENDMDL
MODEL      149
REMARK 921   NORMALIZED FREE ENERGY PREDICTED BY IDOCK:   -3.81 KCAL/MOL
REMARK 922        TOTAL FREE ENERGY PREDICTED BY IDOCK:   -5.14 KCAL/MOL
REMARK 923 INTER-LIGAND FREE ENERGY PREDICTED BY IDOCK:   -4.61 KCAL/MOL
REMARK 924 INTRA-LIGAND FREE ENERGY PREDICTED BY IDOCK:   -0.53 KCAL/MOL
REMARK 927      BINDING AFFINITY PREDICTED BY RF-SCORE:    0.00 PKD
ROOT
HETATM    1  C   UNL     1     -10.854  16.577  68.452  1.00  0.00    -0.348 C  
HETATM    2  O   UNL     1     -10.082  15.411  68.739  1.00  0.00    -0.200 OA 
ENDROOT
BRANCH   2   3
HETATM    3  C   UNL     1     -10.333  14.347  67.912  1.00  0.00    -0.232 A  
HETATM    4  C   UNL     1      -9.544  13.207  68.113  1.00  0.00    -0.227 A  
HETATM    5  C   UNL     1      -9.667  12.047  67.299  1.00  0.00    -0.190 A  
HETATM    6  C   UNL     1     -10.656  12.092  66.281  1.00  0.00    -0.285 A  
HETATM    7  C   UNL     1     -10.827  11.011  65.409  1.00  0.00    -0.168 A  
HETATM    8  C   UNL     1     -11.482  13.214  66.132  1.00  0.00    -0.366 A  
HETATM    9  C   UNL     1     -10.035   9.878  65.520  1.00  0.00    -0.363 A  
HETATM   10  C   UNL     1     -11.325  14.335  66.942  1.00  0.00    -0.354 A  
HETATM   11  C   UNL     1      -9.078   9.800  66.526  1.00  0.00    -0.182 A  
HETATM   12  C   UNL     1      -8.870  10.863  67.427  1.00  0.00    -0.133 A  
BRANCH  12  13
HETATM   13  C   UNL     1      -7.884  10.687  68.579  1.00  0.00    -0.115 C  
BRANCH  13  14
HETATM   14  C   UNL     1      -8.316   9.744  69.714  1.00  0.00    -0.178 C  
BRANCH  14  15
HETATM   15  N   UNL     1      -9.554  10.153  70.363  1.00  0.00    -0.322 N  
HETATM   16  C   UNL     1     -10.652   9.328  70.428  1.00  0.00    -0.248 C  
HETATM   17  H   UNL     1      -9.608  11.081  70.783  1.00  0.00     0.000 HD 
HETATM   18  C   UNL     1     -11.866   9.961  71.057  1.00  0.00    -0.463 C  
HETATM   19  O   UNL     1     -10.664   8.170  70.025  1.00  0.00    -0.240 OA 
ENDBRANCH  14  15
ENDBRANCH  13  14
ENDBRANCH  12  13
ENDBRANCH   2   3
TORSDOF 4
ENDMDL
MODEL      150
REMARK 921   NORMALIZED FREE ENERGY PREDICTED BY IDOCK:   -3.80 KCAL/MOL
REMARK 922        TOTAL FREE ENERGY PREDICTED BY IDOCK:   -5.13 KCAL/MOL
REMARK 923 INTER-LIGAND FREE ENERGY PREDICTED BY IDOCK:   -4.55 KCAL/MOL
REMARK 924 INTRA-LIGAND FREE ENERGY PREDICTED BY IDOCK:   -0.58 KCAL/MOL
REMARK 927      BINDING AFFINITY PREDICTED BY RF-SCORE:    0.00 PKD
ROOT
HETATM    1  C   UNL     1     -11.790  13.660  66.651  1.00  0.00    -0.409 C  
HETATM    2  O   UNL     1     -12.220  13.567  68.010  1.00  0.00    -0.308 OA 
ENDROOT
BRANCH   2   3
HETATM    3  C   UNL     1     -11.688  12.510  68.701  1.00  0.00    -0.325 A  
HETATM    4  C   UNL     1     -10.370  12.160  68.379  1.00  0.00    -0.236 A  
HETATM    5  C   UNL     1      -9.709  11.058  68.986  1.00  0.00    -0.151 A  
HETATM    6  C   UNL     1     -10.447  10.338  69.964  1.00  0.00    -0.293 A  
HETATM    7  C   UNL     1      -9.891   9.218  70.591  1.00  0.00    -0.332 A  
HETATM    8  C   UNL     1     -11.740  10.739  70.323  1.00  0.00    -0.442 A  
HETATM    9  C   UNL     1      -8.612   8.786  70.270  1.00  0.00    -0.158 A  
HETATM   10  C   UNL     1     -12.359  11.818  69.698  1.00  0.00    -0.142 A  
HETATM   11  C   UNL     1      -7.860   9.490  69.336  1.00  0.00    -0.097 A  
HETATM   12  C   UNL     1      -8.377  10.624  68.679  1.00  0.00    -0.137 A  
BRANCH  12  13
HETATM   13  C   UNL     1      -7.475  11.424  67.742  1.00  0.00    -0.100 C  
BRANCH  13  14
HETATM   14  C   UNL     1      -7.392  10.934  66.287  1.00  0.00    -0.127 C  
BRANCH  14  15
HETATM   15  N   UNL     1      -8.466  11.441  65.446  1.00  0.00    -0.382 N  
HETATM   16  C   UNL     1      -9.388  10.608  64.856  1.00  0.00    -0.228 C  
HETATM   17  H   UNL     1      -8.538  12.446  65.289  1.00  0.00     0.000 HD 
HETATM   18  C   UNL     1     -10.366  11.309  63.950  1.00  0.00    -0.439 C  
HETATM   19  O   UNL     1      -9.435   9.397  65.043  1.00  0.00    -0.247 OA 
ENDBRANCH  14  15
ENDBRANCH  13  14
ENDBRANCH  12  13
ENDBRANCH   2   3
TORSDOF 4
ENDMDL
MODEL      151
REMARK 921   NORMALIZED FREE ENERGY PREDICTED BY IDOCK:   -3.78 KCAL/MOL
REMARK 922        TOTAL FREE ENERGY PREDICTED BY IDOCK:   -5.10 KCAL/MOL
REMARK 923 INTER-LIGAND FREE ENERGY PREDICTED BY IDOCK:   -4.72 KCAL/MOL
REMARK 924 INTRA-LIGAND FREE ENERGY PREDICTED BY IDOCK:   -0.39 KCAL/MOL
REMARK 927      BINDING AFFINITY PREDICTED BY RF-SCORE:    0.00 PKD
ROOT
HETATM    1  C   UNL     1     -11.523   5.693  72.611  1.00  0.00    -0.285 C  
HETATM    2  O   UNL     1     -10.776   6.878  72.886  1.00  0.00    -0.239 OA 
ENDROOT
BRANCH   2   3
HETATM    3  C   UNL     1     -11.230   7.997  72.238  1.00  0.00    -0.341 A  
HETATM    4  C   UNL     1     -10.410   8.495  71.216  1.00  0.00    -0.288 A  
HETATM    5  C   UNL     1     -10.736   9.674  70.490  1.00  0.00    -0.374 A  
HETATM    6  C   UNL     1     -11.957  10.312  70.836  1.00  0.00    -0.473 A  
HETATM    7  C   UNL     1     -12.344  11.496  70.200  1.00  0.00    -0.323 A  
HETATM    8  C   UNL     1     -12.798   9.767  71.815  1.00  0.00    -0.530 A  
HETATM    9  C   UNL     1     -11.545  12.071  69.222  1.00  0.00    -0.380 A  
HETATM   10  C   UNL     1     -12.440   8.617  72.512  1.00  0.00    -0.372 A  
HETATM   11  C   UNL     1     -10.359  11.450  68.847  1.00  0.00    -0.203 A  
HETATM   12  C   UNL     1      -9.928  10.256  69.460  1.00  0.00    -0.252 A  
BRANCH  12  13
HETATM   13  C   UNL     1      -8.674   9.558  68.940  1.00  0.00    -0.133 C  
BRANCH  13  14
HETATM   14  C   UNL     1      -8.885   8.479  67.865  1.00  0.00    -0.137 C  
BRANCH  14  15
HETATM   15  N   UNL     1      -7.813   7.495  67.817  1.00  0.00    -0.115 N  
HETATM   16  C   UNL     1      -7.902   6.284  68.462  1.00  0.00    -0.105 C  
HETATM   17  H   UNL     1      -6.968   7.711  67.287  1.00  0.00     0.000 HD 
HETATM   18  C   UNL     1      -6.657   5.441  68.371  1.00  0.00    -0.049 C  
HETATM   19  O   UNL     1      -8.901   5.898  69.058  1.00  0.00    -0.119 OA 
ENDBRANCH  14  15
ENDBRANCH  13  14
ENDBRANCH  12  13
ENDBRANCH   2   3
TORSDOF 4
ENDMDL
MODEL      152
REMARK 921   NORMALIZED FREE ENERGY PREDICTED BY IDOCK:   -3.77 KCAL/MOL
REMARK 922        TOTAL FREE ENERGY PREDICTED BY IDOCK:   -5.09 KCAL/MOL
REMARK 923 INTER-LIGAND FREE ENERGY PREDICTED BY IDOCK:   -4.50 KCAL/MOL
REMARK 924 INTRA-LIGAND FREE ENERGY PREDICTED BY IDOCK:   -0.59 KCAL/MOL
REMARK 927      BINDING AFFINITY PREDICTED BY RF-SCORE:    0.00 PKD
ROOT
HETATM    1  C   UNL     1      -9.559  11.636  65.541  1.00  0.00    -0.218 C  
HETATM    2  O   UNL     1     -10.255  10.499  66.052  1.00  0.00    -0.248 OA 
ENDROOT
BRANCH   2   3
HETATM    3  C   UNL     1     -10.825  10.690  67.283  1.00  0.00    -0.287 A  
HETATM    4  C   UNL     1     -10.717   9.625  68.187  1.00  0.00    -0.266 A  
HETATM    5  C   UNL     1     -11.299   9.669  69.484  1.00  0.00    -0.080 A  
HETATM    6  C   UNL     1     -11.980  10.867  69.830  1.00  0.00    -0.423 A  
HETATM    7  C   UNL     1     -12.614  10.990  71.071  1.00  0.00    -0.512 A  
HETATM    8  C   UNL     1     -12.025  11.949  68.941  1.00  0.00    -0.313 A  
HETATM    9  C   UNL     1     -12.593   9.947  71.985  1.00  0.00    -0.410 A  
HETATM   10  C   UNL     1     -11.451  11.864  67.675  1.00  0.00    -0.387 A  
HETATM   11  C   UNL     1     -11.910   8.775  71.680  1.00  0.00    -0.399 A  
HETATM   12  C   UNL     1     -11.257   8.605  70.443  1.00  0.00    -0.236 A  
BRANCH  12  13
HETATM   13  C   UNL     1     -10.432   7.344  70.198  1.00  0.00    -0.228 C  
BRANCH  13  14
HETATM   14  C   UNL     1      -8.988   7.355  70.723  1.00  0.00    -0.151 C  
BRANCH  14  15
HETATM   15  N   UNL     1      -7.989   7.399  69.665  1.00  0.00    -0.123 N  
HETATM   16  C   UNL     1      -7.365   8.567  69.294  1.00  0.00    -0.071 C  
HETATM   17  H   UNL     1      -7.744   6.534  69.182  1.00  0.00     0.000 HD 
HETATM   18  C   UNL     1      -6.432   8.426  68.121  1.00  0.00    -0.056 C  
HETATM   19  O   UNL     1      -7.532   9.641  69.862  1.00  0.00    -0.092 OA 
ENDBRANCH  14  15
ENDBRANCH  13  14
ENDBRANCH  12  13
ENDBRANCH   2   3
TORSDOF 4
ENDMDL
MODEL      153
REMARK 921   NORMALIZED FREE ENERGY PREDICTED BY IDOCK:   -3.77 KCAL/MOL
REMARK 922        TOTAL FREE ENERGY PREDICTED BY IDOCK:   -5.08 KCAL/MOL
REMARK 923 INTER-LIGAND FREE ENERGY PREDICTED BY IDOCK:   -4.62 KCAL/MOL
REMARK 924 INTRA-LIGAND FREE ENERGY PREDICTED BY IDOCK:   -0.46 KCAL/MOL
REMARK 927      BINDING AFFINITY PREDICTED BY RF-SCORE:    0.00 PKD
ROOT
HETATM    1  C   UNL     1     -11.300  14.963  68.424  1.00  0.00    -0.303 C  
HETATM    2  O   UNL     1     -11.674  16.304  68.107  1.00  0.00    -0.192 OA 
ENDROOT
BRANCH   2   3
HETATM    3  C   UNL     1     -10.634  17.196  68.099  1.00  0.00    -0.380 A  
HETATM    4  C   UNL     1      -9.379  16.686  68.457  1.00  0.00    -0.236 A  
HETATM    5  C   UNL     1      -8.221  17.507  68.533  1.00  0.00    -0.278 A  
HETATM    6  C   UNL     1      -8.395  18.877  68.199  1.00  0.00    -0.341 A  
HETATM    7  C   UNL     1      -7.320  19.769  68.278  1.00  0.00    -0.349 A  
HETATM    8  C   UNL     1      -9.641  19.360  67.780  1.00  0.00    -0.422 A  
HETATM    9  C   UNL     1      -6.066  19.336  68.685  1.00  0.00    -0.251 A  
HETATM   10  C   UNL     1     -10.755  18.527  67.729  1.00  0.00    -0.378 A  
HETATM   11  C   UNL     1      -5.865  17.994  68.990  1.00  0.00    -0.211 A  
HETATM   12  C   UNL     1      -6.917  17.059  68.925  1.00  0.00    -0.219 A  
BRANCH  12  13
HETATM   13  C   UNL     1      -6.622  15.581  69.167  1.00  0.00    -0.136 C  
BRANCH  13  14
HETATM   14  C   UNL     1      -6.242  14.747  67.933  1.00  0.00    -0.157 C  
BRANCH  14  15
HETATM   15  N   UNL     1      -7.380  14.086  67.311  1.00  0.00    -0.322 N  
HETATM   16  C   UNL     1      -7.751  12.803  67.639  1.00  0.00    -0.162 C  
HETATM   17  H   UNL     1      -7.921  14.592  66.609  1.00  0.00     0.000 HD 
HETATM   18  C   UNL     1      -8.896  12.261  66.824  1.00  0.00    -0.195 C  
HETATM   19  O   UNL     1      -7.217  12.141  68.522  1.00  0.00    -0.090 OA 
ENDBRANCH  14  15
ENDBRANCH  13  14
ENDBRANCH  12  13
ENDBRANCH   2   3
TORSDOF 4
ENDMDL
MODEL      154
REMARK 921   NORMALIZED FREE ENERGY PREDICTED BY IDOCK:   -3.76 KCAL/MOL
REMARK 922        TOTAL FREE ENERGY PREDICTED BY IDOCK:   -5.07 KCAL/MOL
REMARK 923 INTER-LIGAND FREE ENERGY PREDICTED BY IDOCK:   -4.83 KCAL/MOL
REMARK 924 INTRA-LIGAND FREE ENERGY PREDICTED BY IDOCK:   -0.25 KCAL/MOL
REMARK 927      BINDING AFFINITY PREDICTED BY RF-SCORE:    0.00 PKD
ROOT
HETATM    1  C   UNL     1      -7.398   9.161  66.091  1.00  0.00    -0.095 C  
HETATM    2  O   UNL     1      -6.990   8.277  67.136  1.00  0.00    -0.072 OA 
ENDROOT
BRANCH   2   3
HETATM    3  C   UNL     1      -8.023   7.663  67.794  1.00  0.00    -0.121 A  
HETATM    4  C   UNL     1      -8.837   8.491  68.578  1.00  0.00    -0.139 A  
HETATM    5  C   UNL     1      -9.917   7.981  69.349  1.00  0.00    -0.190 A  
HETATM    6  C   UNL     1     -10.150   6.583  69.264  1.00  0.00    -0.192 A  
HETATM    7  C   UNL     1     -11.169   5.986  70.014  1.00  0.00    -0.425 A  
HETATM    8  C   UNL     1      -9.369   5.776  68.426  1.00  0.00    -0.130 A  
HETATM    9  C   UNL     1     -11.970   6.745  70.855  1.00  0.00    -0.437 A  
HETATM   10  C   UNL     1      -8.313   6.310  67.694  1.00  0.00    -0.117 A  
HETATM   11  C   UNL     1     -11.779   8.120  70.934  1.00  0.00    -0.259 A  
HETATM   12  C   UNL     1     -10.765   8.766  70.198  1.00  0.00    -0.239 A  
BRANCH  12  13
HETATM   13  C   UNL     1     -10.665  10.288  70.238  1.00  0.00    -0.310 C  
BRANCH  13  14
HETATM   14  C   UNL     1     -11.939  11.050  70.638  1.00  0.00    -0.365 C  
BRANCH  14  15
HETATM   15  N   UNL     1     -11.882  12.472  70.332  1.00  0.00    -0.550 N  
HETATM   16  C   UNL     1     -12.586  13.406  71.055  1.00  0.00    -0.343 C  
HETATM   17  H   UNL     1     -11.300  12.786  69.555  1.00  0.00     0.000 HD 
HETATM   18  C   UNL     1     -12.470  14.812  70.529  1.00  0.00    -0.411 C  
HETATM   19  O   UNL     1     -13.250  13.141  72.051  1.00  0.00    -0.429 OA 
ENDBRANCH  14  15
ENDBRANCH  13  14
ENDBRANCH  12  13
ENDBRANCH   2   3
TORSDOF 4
ENDMDL
MODEL      155
REMARK 921   NORMALIZED FREE ENERGY PREDICTED BY IDOCK:   -3.71 KCAL/MOL
REMARK 922        TOTAL FREE ENERGY PREDICTED BY IDOCK:   -5.01 KCAL/MOL
REMARK 923 INTER-LIGAND FREE ENERGY PREDICTED BY IDOCK:   -4.52 KCAL/MOL
REMARK 924 INTRA-LIGAND FREE ENERGY PREDICTED BY IDOCK:   -0.49 KCAL/MOL
REMARK 927      BINDING AFFINITY PREDICTED BY RF-SCORE:    0.00 PKD
ROOT
HETATM    1  C   UNL     1     -11.367  11.907  64.788  1.00  0.00    -0.283 C  
HETATM    2  O   UNL     1     -10.346  12.502  65.589  1.00  0.00    -0.261 OA 
ENDROOT
BRANCH   2   3
HETATM    3  C   UNL     1     -10.420  13.868  65.679  1.00  0.00    -0.312 A  
HETATM    4  C   UNL     1     -10.080  14.425  66.919  1.00  0.00    -0.259 A  
HETATM    5  C   UNL     1     -10.154  15.823  67.167  1.00  0.00    -0.251 A  
HETATM    6  C   UNL     1     -10.567  16.637  66.079  1.00  0.00    -0.238 A  
HETATM    7  C   UNL     1     -10.702  18.020  66.238  1.00  0.00    -0.134 A  
HETATM    8  C   UNL     1     -10.841  16.073  64.826  1.00  0.00    -0.315 A  
HETATM    9  C   UNL     1     -10.439  18.623  67.459  1.00  0.00    -0.473 A  
HETATM   10  C   UNL     1     -10.768  14.698  64.624  1.00  0.00    -0.309 A  
HETATM   11  C   UNL     1     -10.006  17.851  68.532  1.00  0.00    -0.379 A  
HETATM   12  C   UNL     1      -9.856  16.454  68.419  1.00  0.00    -0.233 A  
BRANCH  12  13
HETATM   13  C   UNL     1      -9.278  15.666  69.592  1.00  0.00    -0.189 C  
BRANCH  13  14
HETATM   14  C   UNL     1      -7.756  15.448  69.589  1.00  0.00    -0.156 C  
BRANCH  14  15
HETATM   15  N   UNL     1      -7.357  14.171  69.015  1.00  0.00    -0.176 N  
HETATM   16  C   UNL     1      -6.759  14.078  67.780  1.00  0.00    -0.177 C  
HETATM   17  H   UNL     1      -7.527  13.317  69.546  1.00  0.00     0.000 HD 
HETATM   18  C   UNL     1      -6.505  12.667  67.319  1.00  0.00    -0.102 C  
HETATM   19  O   UNL     1      -6.443  15.047  67.098  1.00  0.00    -0.275 OA 
ENDBRANCH  14  15
ENDBRANCH  13  14
ENDBRANCH  12  13
ENDBRANCH   2   3
TORSDOF 4
ENDMDL
MODEL      156
REMARK 921   NORMALIZED FREE ENERGY PREDICTED BY IDOCK:   -3.70 KCAL/MOL
REMARK 922        TOTAL FREE ENERGY PREDICTED BY IDOCK:   -5.01 KCAL/MOL
REMARK 923 INTER-LIGAND FREE ENERGY PREDICTED BY IDOCK:   -4.80 KCAL/MOL
REMARK 924 INTRA-LIGAND FREE ENERGY PREDICTED BY IDOCK:   -0.21 KCAL/MOL
REMARK 927      BINDING AFFINITY PREDICTED BY RF-SCORE:    0.00 PKD
ROOT
HETATM    1  C   UNL     1      -8.206  10.366  66.568  1.00  0.00    -0.131 C  
HETATM    2  O   UNL     1      -7.982  10.965  67.845  1.00  0.00    -0.107 OA 
ENDROOT
BRANCH   2   3
HETATM    3  C   UNL     1      -8.102  12.330  67.860  1.00  0.00    -0.155 A  
HETATM    4  C   UNL     1      -9.380  12.836  68.131  1.00  0.00    -0.214 A  
HETATM    5  C   UNL     1      -9.657  14.231  68.135  1.00  0.00    -0.218 A  
HETATM    6  C   UNL     1      -8.560  15.094  67.874  1.00  0.00    -0.154 A  
HETATM    7  C   UNL     1      -8.743  16.480  67.824  1.00  0.00    -0.197 A  
HETATM    8  C   UNL     1      -7.274  14.577  67.669  1.00  0.00    -0.206 A  
HETATM    9  C   UNL     1      -9.998  17.038  68.024  1.00  0.00    -0.283 A  
HETATM   10  C   UNL     1      -7.043  13.204  67.662  1.00  0.00    -0.162 A  
HETATM   11  C   UNL     1     -11.082  16.215  68.308  1.00  0.00    -0.348 A  
HETATM   12  C   UNL     1     -10.946  14.813  68.369  1.00  0.00    -0.259 A  
BRANCH  12  13
HETATM   13  C   UNL     1     -12.142  13.962  68.788  1.00  0.00    -0.344 C  
BRANCH  13  14
HETATM   14  C   UNL     1     -12.133  13.430  70.230  1.00  0.00    -0.349 C  
BRANCH  14  15
HETATM   15  N   UNL     1     -11.798  12.016  70.321  1.00  0.00    -0.502 N  
HETATM   16  C   UNL     1     -12.514  11.144  71.107  1.00  0.00    -0.393 C  
HETATM   17  H   UNL     1     -11.007  11.661  69.785  1.00  0.00     0.000 HD 
HETATM   18  C   UNL     1     -11.960   9.744  71.141  1.00  0.00    -0.463 C  
HETATM   19  O   UNL     1     -13.526  11.453  71.727  1.00  0.00    -0.316 OA 
ENDBRANCH  14  15
ENDBRANCH  13  14
ENDBRANCH  12  13
ENDBRANCH   2   3
TORSDOF 4
ENDMDL
MODEL      157
REMARK 921   NORMALIZED FREE ENERGY PREDICTED BY IDOCK:   -3.70 KCAL/MOL
REMARK 922        TOTAL FREE ENERGY PREDICTED BY IDOCK:   -5.00 KCAL/MOL
REMARK 923 INTER-LIGAND FREE ENERGY PREDICTED BY IDOCK:   -4.71 KCAL/MOL
REMARK 924 INTRA-LIGAND FREE ENERGY PREDICTED BY IDOCK:   -0.29 KCAL/MOL
REMARK 927      BINDING AFFINITY PREDICTED BY RF-SCORE:    0.00 PKD
ROOT
HETATM    1  C   UNL     1     -13.327  10.087  71.725  1.00  0.00    -0.393 C  
HETATM    2  O   UNL     1     -11.919  10.243  71.551  1.00  0.00    -0.358 OA 
ENDROOT
BRANCH   2   3
HETATM    3  C   UNL     1     -11.452   9.848  70.324  1.00  0.00    -0.281 A  
HETATM    4  C   UNL     1     -11.156   8.486  70.184  1.00  0.00    -0.192 A  
HETATM    5  C   UNL     1     -10.624   7.946  68.981  1.00  0.00    -0.177 A  
HETATM    6  C   UNL     1     -10.431   8.859  67.910  1.00  0.00    -0.281 A  
HETATM    7  C   UNL     1      -9.880   8.426  66.699  1.00  0.00    -0.343 A  
HETATM    8  C   UNL     1     -10.792  10.206  68.043  1.00  0.00    -0.320 A  
HETATM    9  C   UNL     1      -9.511   7.101  66.521  1.00  0.00    -0.208 A  
HETATM   10  C   UNL     1     -11.301  10.700  69.240  1.00  0.00    -0.346 A  
HETATM   11  C   UNL     1      -9.716   6.183  67.545  1.00  0.00    -0.126 A  
HETATM   12  C   UNL     1     -10.267   6.572  68.782  1.00  0.00    -0.194 A  
BRANCH  12  13
HETATM   13  C   UNL     1     -10.570   5.509  69.835  1.00  0.00    -0.387 C  
BRANCH  13  14
HETATM   14  C   UNL     1      -9.487   5.269  70.899  1.00  0.00    -0.165 C  
BRANCH  14  15
HETATM   15  N   UNL     1      -9.795   4.166  71.797  1.00  0.00    -0.175 N  
HETATM   16  C   UNL     1     -10.619   4.318  72.888  1.00  0.00    -0.180 C  
HETATM   17  H   UNL     1      -9.387   3.249  71.612  1.00  0.00     0.000 HD 
HETATM   18  C   UNL     1     -10.743   3.087  73.747  1.00  0.00    -0.287 C  
HETATM   19  O   UNL     1     -11.218   5.354  73.153  1.00  0.00    -0.296 OA 
ENDBRANCH  14  15
ENDBRANCH  13  14
ENDBRANCH  12  13
ENDBRANCH   2   3
TORSDOF 4
ENDMDL
MODEL      158
REMARK 921   NORMALIZED FREE ENERGY PREDICTED BY IDOCK:   -3.69 KCAL/MOL
REMARK 922        TOTAL FREE ENERGY PREDICTED BY IDOCK:   -4.99 KCAL/MOL
REMARK 923 INTER-LIGAND FREE ENERGY PREDICTED BY IDOCK:   -4.60 KCAL/MOL
REMARK 924 INTRA-LIGAND FREE ENERGY PREDICTED BY IDOCK:   -0.39 KCAL/MOL
REMARK 927      BINDING AFFINITY PREDICTED BY RF-SCORE:    0.00 PKD
ROOT
HETATM    1  C   UNL     1      -6.537   4.603  69.653  1.00  0.00    -0.033 C  
HETATM    2  O   UNL     1      -7.962   4.624  69.727  1.00  0.00    -0.064 OA 
ENDROOT
BRANCH   2   3
HETATM    3  C   UNL     1      -8.543   5.727  69.158  1.00  0.00    -0.110 A  
HETATM    4  C   UNL     1      -8.974   6.725  70.042  1.00  0.00    -0.141 A  
HETATM    5  C   UNL     1      -9.632   7.903  69.592  1.00  0.00    -0.164 A  
HETATM    6  C   UNL     1      -9.808   8.031  68.188  1.00  0.00    -0.195 A  
HETATM    7  C   UNL     1     -10.474   9.140  67.655  1.00  0.00    -0.323 A  
HETATM    8  C   UNL     1      -9.313   7.057  67.311  1.00  0.00    -0.153 A  
HETATM    9  C   UNL     1     -10.978  10.132  68.483  1.00  0.00    -0.278 A  
HETATM   10  C   UNL     1      -8.683   5.912  67.790  1.00  0.00    -0.104 A  
HETATM   11  C   UNL     1     -10.795  10.041  69.859  1.00  0.00    -0.328 A  
HETATM   12  C   UNL     1     -10.130   8.944  70.442  1.00  0.00    -0.232 A  
BRANCH  12  13
HETATM   13  C   UNL     1      -9.861   8.943  71.944  1.00  0.00    -0.364 C  
BRANCH  13  14
HETATM   14  C   UNL     1     -10.716   7.988  72.794  1.00  0.00    -0.362 C  
BRANCH  14  15
HETATM   15  N   UNL     1     -12.140   8.286  72.738  1.00  0.00    -0.560 N  
HETATM   16  C   UNL     1     -12.983   7.666  71.846  1.00  0.00    -0.270 C  
HETATM   17  H   UNL     1     -12.525   8.976  73.383  1.00  0.00     0.000 HD 
HETATM   18  C   UNL     1     -14.401   8.172  71.879  1.00  0.00    -0.566 C  
HETATM   19  O   UNL     1     -12.635   6.770  71.085  1.00  0.00    -0.353 OA 
ENDBRANCH  14  15
ENDBRANCH  13  14
ENDBRANCH  12  13
ENDBRANCH   2   3
TORSDOF 4
ENDMDL
MODEL      159
REMARK 921   NORMALIZED FREE ENERGY PREDICTED BY IDOCK:   -3.68 KCAL/MOL
REMARK 922        TOTAL FREE ENERGY PREDICTED BY IDOCK:   -4.98 KCAL/MOL
REMARK 923 INTER-LIGAND FREE ENERGY PREDICTED BY IDOCK:   -4.61 KCAL/MOL
REMARK 924 INTRA-LIGAND FREE ENERGY PREDICTED BY IDOCK:   -0.37 KCAL/MOL
REMARK 927      BINDING AFFINITY PREDICTED BY RF-SCORE:    0.00 PKD
ROOT
HETATM    1  C   UNL     1      -8.063  11.856  68.255  1.00  0.00    -0.154 C  
HETATM    2  O   UNL     1      -8.422  11.140  67.073  1.00  0.00    -0.136 OA 
ENDROOT
BRANCH   2   3
HETATM    3  C   UNL     1      -9.369  11.760  66.300  1.00  0.00    -0.225 A  
HETATM    4  C   UNL     1      -9.387  13.160  66.349  1.00  0.00    -0.188 A  
HETATM    5  C   UNL     1     -10.344  13.930  65.632  1.00  0.00    -0.337 A  
HETATM    6  C   UNL     1     -11.271  13.205  64.836  1.00  0.00    -0.333 A  
HETATM    7  C   UNL     1     -12.270  13.876  64.122  1.00  0.00    -0.436 A  
HETATM    8  C   UNL     1     -11.200  11.809  64.746  1.00  0.00    -0.333 A  
HETATM    9  C   UNL     1     -12.377  15.258  64.179  1.00  0.00    -0.065 A  
HETATM   10  C   UNL     1     -10.255  11.088  65.471  1.00  0.00    -0.327 A  
HETATM   11  C   UNL     1     -11.464  15.991  64.930  1.00  0.00    -0.125 A  
HETATM   12  C   UNL     1     -10.441  15.360  65.665  1.00  0.00    -0.391 A  
BRANCH  12  13
HETATM   13  C   UNL     1      -9.401  16.213  66.386  1.00  0.00    -0.329 C  
BRANCH  13  14
HETATM   14  C   UNL     1      -9.622  16.437  67.891  1.00  0.00    -0.228 C  
BRANCH  14  15
HETATM   15  N   UNL     1     -10.858  15.849  68.386  1.00  0.00    -0.300 N  
HETATM   16  C   UNL     1     -10.958  15.306  69.646  1.00  0.00    -0.284 C  
HETATM   17  H   UNL     1     -11.678  15.839  67.779  1.00  0.00     0.000 HD 
HETATM   18  C   UNL     1     -12.288  14.665  69.941  1.00  0.00    -0.341 C  
HETATM   19  O   UNL     1     -10.057  15.337  70.477  1.00  0.00    -0.078 OA 
ENDBRANCH  14  15
ENDBRANCH  13  14
ENDBRANCH  12  13
ENDBRANCH   2   3
TORSDOF 4
ENDMDL
MODEL      160
REMARK 921   NORMALIZED FREE ENERGY PREDICTED BY IDOCK:   -3.67 KCAL/MOL
REMARK 922        TOTAL FREE ENERGY PREDICTED BY IDOCK:   -4.97 KCAL/MOL
REMARK 923 INTER-LIGAND FREE ENERGY PREDICTED BY IDOCK:   -4.62 KCAL/MOL
REMARK 924 INTRA-LIGAND FREE ENERGY PREDICTED BY IDOCK:   -0.35 KCAL/MOL
REMARK 927      BINDING AFFINITY PREDICTED BY RF-SCORE:    0.00 PKD
ROOT
HETATM    1  C   UNL     1     -10.736   6.076  69.472  1.00  0.00    -0.335 C  
HETATM    2  O   UNL     1     -10.634   5.766  68.082  1.00  0.00    -0.218 OA 
ENDROOT
BRANCH   2   3
HETATM    3  C   UNL     1     -10.126   6.780  67.312  1.00  0.00    -0.182 A  
HETATM    4  C   UNL     1     -10.637   8.061  67.559  1.00  0.00    -0.302 A  
HETATM    5  C   UNL     1     -10.232   9.196  66.806  1.00  0.00    -0.331 A  
HETATM    6  C   UNL     1      -9.255   8.971  65.799  1.00  0.00    -0.293 A  
HETATM    7  C   UNL     1      -8.821  10.023  64.984  1.00  0.00    -0.213 A  
HETATM    8  C   UNL     1      -8.706   7.698  65.606  1.00  0.00    -0.119 A  
HETATM    9  C   UNL     1      -9.335  11.301  65.141  1.00  0.00    -0.211 A  
HETATM   10  C   UNL     1      -9.135   6.607  66.356  1.00  0.00    -0.172 A  
HETATM   11  C   UNL     1     -10.271  11.552  66.138  1.00  0.00    -0.272 A  
HETATM   12  C   UNL     1     -10.739  10.526  66.982  1.00  0.00    -0.310 A  
BRANCH  12  13
HETATM   13  C   UNL     1     -11.686  10.872  68.129  1.00  0.00    -0.231 C  
BRANCH  13  14
HETATM   14  C   UNL     1     -11.035  11.378  69.427  1.00  0.00    -0.205 C  
BRANCH  14  15
HETATM   15  N   UNL     1     -10.706  12.795  69.392  1.00  0.00    -0.431 N  
HETATM   16  C   UNL     1     -11.576  13.760  69.843  1.00  0.00    -0.228 C  
HETATM   17  H   UNL     1      -9.799  13.082  69.022  1.00  0.00     0.000 HD 
HETATM   18  C   UNL     1     -11.093  15.172  69.640  1.00  0.00    -0.283 C  
HETATM   19  O   UNL     1     -12.653  13.515  70.375  1.00  0.00    -0.279 OA 
ENDBRANCH  14  15
ENDBRANCH  13  14
ENDBRANCH  12  13
ENDBRANCH   2   3
TORSDOF 4
ENDMDL
MODEL      161
REMARK 921   NORMALIZED FREE ENERGY PREDICTED BY IDOCK:   -3.67 KCAL/MOL
REMARK 922        TOTAL FREE ENERGY PREDICTED BY IDOCK:   -4.96 KCAL/MOL
REMARK 923 INTER-LIGAND FREE ENERGY PREDICTED BY IDOCK:   -4.63 KCAL/MOL
REMARK 924 INTRA-LIGAND FREE ENERGY PREDICTED BY IDOCK:   -0.34 KCAL/MOL
REMARK 927      BINDING AFFINITY PREDICTED BY RF-SCORE:    0.00 PKD
ROOT
HETATM    1  C   UNL     1      -7.193  16.982  67.388  1.00  0.00    -0.156 C  
HETATM    2  O   UNL     1      -7.661  15.633  67.403  1.00  0.00    -0.160 OA 
ENDROOT
BRANCH   2   3
HETATM    3  C   UNL     1      -8.771  15.409  66.632  1.00  0.00    -0.296 A  
HETATM    4  C   UNL     1      -9.220  14.084  66.564  1.00  0.00    -0.240 A  
HETATM    5  C   UNL     1     -10.334  13.702  65.766  1.00  0.00    -0.304 A  
HETATM    6  C   UNL     1     -10.991  14.743  65.057  1.00  0.00    -0.426 A  
HETATM    7  C   UNL     1     -12.075  14.457  64.220  1.00  0.00    -0.461 A  
HETATM    8  C   UNL     1     -10.571  16.073  65.186  1.00  0.00    -0.394 A  
HETATM    9  C   UNL     1     -12.528  13.156  64.064  1.00  0.00    -0.346 A  
HETATM   10  C   UNL     1      -9.469  16.408  65.968  1.00  0.00    -0.345 A  
HETATM   11  C   UNL     1     -11.919  12.123  64.770  1.00  0.00    -0.377 A  
HETATM   12  C   UNL     1     -10.824  12.362  65.624  1.00  0.00    -0.312 A  
BRANCH  12  13
HETATM   13  C   UNL     1     -10.258  11.214  66.456  1.00  0.00    -0.275 C  
BRANCH  13  14
HETATM   14  C   UNL     1      -8.960  10.570  65.943  1.00  0.00    -0.166 C  
BRANCH  14  15
HETATM   15  N   UNL     1      -8.158   9.970  66.999  1.00  0.00    -0.116 N  
HETATM   16  C   UNL     1      -6.900  10.428  67.314  1.00  0.00    -0.081 C  
HETATM   17  H   UNL     1      -8.542   9.183  67.524  1.00  0.00     0.000 HD 
HETATM   18  C   UNL     1      -6.193   9.621  68.371  1.00  0.00    -0.047 C  
HETATM   19  O   UNL     1      -6.381  11.412  66.797  1.00  0.00    -0.123 OA 
ENDBRANCH  14  15
ENDBRANCH  13  14
ENDBRANCH  12  13
ENDBRANCH   2   3
TORSDOF 4
ENDMDL
MODEL      162
REMARK 921   NORMALIZED FREE ENERGY PREDICTED BY IDOCK:   -3.65 KCAL/MOL
REMARK 922        TOTAL FREE ENERGY PREDICTED BY IDOCK:   -4.94 KCAL/MOL
REMARK 923 INTER-LIGAND FREE ENERGY PREDICTED BY IDOCK:   -4.67 KCAL/MOL
REMARK 924 INTRA-LIGAND FREE ENERGY PREDICTED BY IDOCK:   -0.27 KCAL/MOL
REMARK 927      BINDING AFFINITY PREDICTED BY RF-SCORE:    0.00 PKD
ROOT
HETATM    1  C   UNL     1     -11.768  11.770  67.825  1.00  0.00    -0.267 C  
HETATM    2  O   UNL     1     -11.996  12.026  69.211  1.00  0.00    -0.302 OA 
ENDROOT
BRANCH   2   3
HETATM    3  C   UNL     1     -12.001  10.906  70.001  1.00  0.00    -0.350 A  
HETATM    4  C   UNL     1     -11.266   9.812  69.527  1.00  0.00    -0.181 A  
HETATM    5  C   UNL     1     -11.219   8.573  70.223  1.00  0.00    -0.185 A  
HETATM    6  C   UNL     1     -11.938   8.507  71.446  1.00  0.00    -0.345 A  
HETATM    7  C   UNL     1     -11.978   7.319  72.183  1.00  0.00    -0.307 A  
HETATM    8  C   UNL     1     -12.615   9.629  71.940  1.00  0.00    -0.481 A  
HETATM    9  C   UNL     1     -11.320   6.183  71.735  1.00  0.00    -0.346 A  
HETATM   10  C   UNL     1     -12.647  10.823  71.225  1.00  0.00    -0.532 A  
HETATM   11  C   UNL     1     -10.586   6.230  70.554  1.00  0.00    -0.305 A  
HETATM   12  C   UNL     1     -10.517   7.404  69.778  1.00  0.00    -0.235 A  
BRANCH  12  13
HETATM   13  C   UNL     1      -9.614   7.437  68.548  1.00  0.00    -0.146 C  
BRANCH  13  14
HETATM   14  C   UNL     1     -10.019   6.529  67.375  1.00  0.00    -0.143 C  
BRANCH  14  15
HETATM   15  N   UNL     1      -8.975   6.384  66.371  1.00  0.00    -0.150 N  
HETATM   16  C   UNL     1      -8.856   5.254  65.596  1.00  0.00    -0.152 C  
HETATM   17  H   UNL     1      -8.310   7.146  66.237  1.00  0.00     0.000 HD 
HETATM   18  C   UNL     1      -7.661   5.254  64.680  1.00  0.00    -0.088 C  
HETATM   19  O   UNL     1      -9.648   4.319  65.625  1.00  0.00    -0.160 OA 
ENDBRANCH  14  15
ENDBRANCH  13  14
ENDBRANCH  12  13
ENDBRANCH   2   3
TORSDOF 4
ENDMDL
MODEL      163
REMARK 921   NORMALIZED FREE ENERGY PREDICTED BY IDOCK:   -3.65 KCAL/MOL
REMARK 922        TOTAL FREE ENERGY PREDICTED BY IDOCK:   -4.94 KCAL/MOL
REMARK 923 INTER-LIGAND FREE ENERGY PREDICTED BY IDOCK:   -4.36 KCAL/MOL
REMARK 924 INTRA-LIGAND FREE ENERGY PREDICTED BY IDOCK:   -0.58 KCAL/MOL
REMARK 927      BINDING AFFINITY PREDICTED BY RF-SCORE:    0.00 PKD
ROOT
HETATM    1  C   UNL     1     -12.186  10.606  70.222  1.00  0.00    -0.334 C  
HETATM    2  O   UNL     1     -12.336   9.898  71.453  1.00  0.00    -0.346 OA 
ENDROOT
BRANCH   2   3
HETATM    3  C   UNL     1     -11.715   8.677  71.483  1.00  0.00    -0.305 A  
HETATM    4  C   UNL     1     -11.496   8.063  70.242  1.00  0.00    -0.078 A  
HETATM    5  C   UNL     1     -10.902   6.776  70.128  1.00  0.00    -0.311 A  
HETATM    6  C   UNL     1     -10.513   6.149  71.342  1.00  0.00    -0.273 A  
HETATM    7  C   UNL     1      -9.952   4.868  71.331  1.00  0.00    -0.266 A  
HETATM    8  C   UNL     1     -10.678   6.802  72.570  1.00  0.00    -0.261 A  
HETATM    9  C   UNL     1      -9.766   4.185  70.138  1.00  0.00    -0.278 A  
HETATM   10  C   UNL     1     -11.274   8.058  72.644  1.00  0.00    -0.462 A  
HETATM   11  C   UNL     1     -10.114   4.789  68.934  1.00  0.00    -0.149 A  
HETATM   12  C   UNL     1     -10.682   6.077  68.896  1.00  0.00    -0.384 A  
BRANCH  12  13
HETATM   13  C   UNL     1     -10.948   6.739  67.546  1.00  0.00    -0.375 C  
BRANCH  13  14
HETATM   14  C   UNL     1      -9.713   7.116  66.712  1.00  0.00    -0.192 C  
BRANCH  14  15
HETATM   15  N   UNL     1      -8.675   7.780  67.487  1.00  0.00    -0.125 N  
HETATM   16  C   UNL     1      -7.450   7.198  67.720  1.00  0.00    -0.098 C  
HETATM   17  H   UNL     1      -8.861   8.707  67.871  1.00  0.00     0.000 HD 
HETATM   18  C   UNL     1      -6.545   7.998  68.618  1.00  0.00    -0.057 C  
HETATM   19  O   UNL     1      -7.100   6.125  67.240  1.00  0.00    -0.067 OA 
ENDBRANCH  14  15
ENDBRANCH  13  14
ENDBRANCH  12  13
ENDBRANCH   2   3
TORSDOF 4
ENDMDL
MODEL      164
REMARK 921   NORMALIZED FREE ENERGY PREDICTED BY IDOCK:   -3.65 KCAL/MOL
REMARK 922        TOTAL FREE ENERGY PREDICTED BY IDOCK:   -4.94 KCAL/MOL
REMARK 923 INTER-LIGAND FREE ENERGY PREDICTED BY IDOCK:   -4.56 KCAL/MOL
REMARK 924 INTRA-LIGAND FREE ENERGY PREDICTED BY IDOCK:   -0.38 KCAL/MOL
REMARK 927      BINDING AFFINITY PREDICTED BY RF-SCORE:    0.00 PKD
ROOT
HETATM    1  C   UNL     1      -9.312   1.886  68.448  1.00  0.00    -0.194 C  
HETATM    2  O   UNL     1      -9.278   2.339  67.095  1.00  0.00    -0.139 OA 
ENDROOT
BRANCH   2   3
HETATM    3  C   UNL     1      -9.325   3.702  66.953  1.00  0.00    -0.194 A  
HETATM    4  C   UNL     1      -9.874   4.417  68.025  1.00  0.00    -0.135 A  
HETATM    5  C   UNL     1     -10.025   5.830  67.994  1.00  0.00    -0.173 A  
HETATM    6  C   UNL     1      -9.563   6.490  66.825  1.00  0.00    -0.198 A  
HETATM    7  C   UNL     1      -9.701   7.876  66.690  1.00  0.00    -0.305 A  
HETATM    8  C   UNL     1      -8.957   5.770  65.788  1.00  0.00    -0.144 A  
HETATM    9  C   UNL     1     -10.293   8.631  67.692  1.00  0.00    -0.317 A  
HETATM   10  C   UNL     1      -8.836   4.385  65.848  1.00  0.00    -0.120 A  
HETATM   11  C   UNL     1     -10.728   8.011  68.859  1.00  0.00    -0.091 A  
HETATM   12  C   UNL     1     -10.610   6.619  69.039  1.00  0.00    -0.273 A  
BRANCH  12  13
HETATM   13  C   UNL     1     -11.005   6.001  70.378  1.00  0.00    -0.399 C  
BRANCH  13  14
HETATM   14  C   UNL     1     -10.993   6.939  71.597  1.00  0.00    -0.234 C  
BRANCH  14  15
HETATM   15  N   UNL     1     -12.318   7.414  71.971  1.00  0.00    -0.407 N  
HETATM   16  C   UNL     1     -12.622   8.753  72.045  1.00  0.00    -0.385 C  
HETATM   17  H   UNL     1     -13.045   6.730  72.185  1.00  0.00     0.000 HD 
HETATM   18  C   UNL     1     -14.014   9.046  72.538  1.00  0.00    -0.472 C  
HETATM   19  O   UNL     1     -11.845   9.649  71.734  1.00  0.00    -0.386 OA 
ENDBRANCH  14  15
ENDBRANCH  13  14
ENDBRANCH  12  13
ENDBRANCH   2   3
TORSDOF 4
ENDMDL
MODEL      165
REMARK 921   NORMALIZED FREE ENERGY PREDICTED BY IDOCK:   -3.60 KCAL/MOL
REMARK 922        TOTAL FREE ENERGY PREDICTED BY IDOCK:   -4.88 KCAL/MOL
REMARK 923 INTER-LIGAND FREE ENERGY PREDICTED BY IDOCK:   -4.48 KCAL/MOL
REMARK 924 INTRA-LIGAND FREE ENERGY PREDICTED BY IDOCK:   -0.40 KCAL/MOL
REMARK 927      BINDING AFFINITY PREDICTED BY RF-SCORE:    0.00 PKD
ROOT
HETATM    1  C   UNL     1      -9.578   4.307  64.824  1.00  0.00    -0.166 C  
HETATM    2  O   UNL     1      -8.951   4.159  66.098  1.00  0.00    -0.118 OA 
ENDROOT
BRANCH   2   3
HETATM    3  C   UNL     1      -9.432   4.999  67.068  1.00  0.00    -0.142 A  
HETATM    4  C   UNL     1      -9.558   6.348  66.711  1.00  0.00    -0.189 A  
HETATM    5  C   UNL     1     -10.002   7.337  67.631  1.00  0.00    -0.207 A  
HETATM    6  C   UNL     1     -10.342   6.882  68.933  1.00  0.00    -0.198 A  
HETATM    7  C   UNL     1     -10.756   7.787  69.916  1.00  0.00    -0.245 A  
HETATM    8  C   UNL     1     -10.273   5.520  69.257  1.00  0.00    -0.315 A  
HETATM    9  C   UNL     1     -10.842   9.144  69.641  1.00  0.00    -0.210 A  
HETATM   10  C   UNL     1      -9.823   4.583  68.332  1.00  0.00    -0.153 A  
HETATM   11  C   UNL     1     -10.542   9.610  68.365  1.00  0.00    -0.264 A  
HETATM   12  C   UNL     1     -10.120   8.736  67.343  1.00  0.00    -0.289 A  
BRANCH  12  13
HETATM   13  C   UNL     1      -9.904   9.281  65.934  1.00  0.00    -0.335 C  
BRANCH  13  14
HETATM   14  C   UNL     1      -9.603  10.784  65.818  1.00  0.00    -0.208 C  
BRANCH  14  15
HETATM   15  N   UNL     1     -10.642  11.528  65.120  1.00  0.00    -0.285 N  
HETATM   16  C   UNL     1     -11.428  12.459  65.757  1.00  0.00    -0.370 C  
HETATM   17  H   UNL     1     -10.791  11.354  64.126  1.00  0.00     0.000 HD 
HETATM   18  C   UNL     1     -12.505  13.057  64.891  1.00  0.00    -0.512 C  
HETATM   19  O   UNL     1     -11.278  12.797  66.926  1.00  0.00    -0.270 OA 
ENDBRANCH  14  15
ENDBRANCH  13  14
ENDBRANCH  12  13
ENDBRANCH   2   3
TORSDOF 4
ENDMDL
MODEL      166
REMARK 921   NORMALIZED FREE ENERGY PREDICTED BY IDOCK:   -3.59 KCAL/MOL
REMARK 922        TOTAL FREE ENERGY PREDICTED BY IDOCK:   -4.87 KCAL/MOL
REMARK 923 INTER-LIGAND FREE ENERGY PREDICTED BY IDOCK:   -4.60 KCAL/MOL
REMARK 924 INTRA-LIGAND FREE ENERGY PREDICTED BY IDOCK:   -0.28 KCAL/MOL
REMARK 927      BINDING AFFINITY PREDICTED BY RF-SCORE:    0.00 PKD
ROOT
HETATM    1  C   UNL     1     -11.483   6.157  72.292  1.00  0.00    -0.312 C  
HETATM    2  O   UNL     1     -10.772   7.346  72.639  1.00  0.00    -0.239 OA 
ENDROOT
BRANCH   2   3
HETATM    3  C   UNL     1     -11.211   8.476  71.999  1.00  0.00    -0.348 A  
HETATM    4  C   UNL     1     -10.431   8.918  70.922  1.00  0.00    -0.299 A  
HETATM    5  C   UNL     1     -10.744  10.100  70.196  1.00  0.00    -0.355 A  
HETATM    6  C   UNL     1     -11.911  10.801  70.602  1.00  0.00    -0.460 A  
HETATM    7  C   UNL     1     -12.279  11.993  69.968  1.00  0.00    -0.280 A  
HETATM    8  C   UNL     1     -12.717  10.312  71.638  1.00  0.00    -0.561 A  
HETATM    9  C   UNL     1     -11.514  12.514  68.936  1.00  0.00    -0.355 A  
HETATM   10  C   UNL     1     -12.372   9.156  72.333  1.00  0.00    -0.310 A  
HETATM   11  C   UNL     1     -10.382  11.831  68.503  1.00  0.00    -0.228 A  
HETATM   12  C   UNL     1      -9.972  10.628  69.110  1.00  0.00    -0.228 A  
BRANCH  12  13
HETATM   13  C   UNL     1      -8.785   9.863  68.530  1.00  0.00    -0.121 C  
BRANCH  13  14
HETATM   14  C   UNL     1      -7.664  10.708  67.902  1.00  0.00    -0.100 C  
BRANCH  14  15
HETATM   15  N   UNL     1      -7.067  11.655  68.832  1.00  0.00    -0.109 N  
HETATM   16  C   UNL     1      -6.123  11.276  69.758  1.00  0.00    -0.112 C  
HETATM   17  H   UNL     1      -7.358  12.632  68.797  1.00  0.00     0.000 HD 
HETATM   18  C   UNL     1      -5.692  12.377  70.690  1.00  0.00    -0.138 C  
HETATM   19  O   UNL     1      -5.651  10.146  69.830  1.00  0.00    -0.040 OA 
ENDBRANCH  14  15
ENDBRANCH  13  14
ENDBRANCH  12  13
ENDBRANCH   2   3
TORSDOF 4
ENDMDL
MODEL      167
REMARK 921   NORMALIZED FREE ENERGY PREDICTED BY IDOCK:   -3.59 KCAL/MOL
REMARK 922        TOTAL FREE ENERGY PREDICTED BY IDOCK:   -4.87 KCAL/MOL
REMARK 923 INTER-LIGAND FREE ENERGY PREDICTED BY IDOCK:   -4.37 KCAL/MOL
REMARK 924 INTRA-LIGAND FREE ENERGY PREDICTED BY IDOCK:   -0.50 KCAL/MOL
REMARK 927      BINDING AFFINITY PREDICTED BY RF-SCORE:    0.00 PKD
ROOT
HETATM    1  C   UNL     1      -8.310   4.631  69.327  1.00  0.00    -0.079 C  
HETATM    2  O   UNL     1      -8.729   5.598  68.364  1.00  0.00    -0.110 OA 
ENDROOT
BRANCH   2   3
HETATM    3  C   UNL     1      -9.311   6.716  68.901  1.00  0.00    -0.128 A  
HETATM    4  C   UNL     1     -10.175   6.506  69.984  1.00  0.00    -0.219 A  
HETATM    5  C   UNL     1     -10.879   7.571  70.609  1.00  0.00    -0.251 A  
HETATM    6  C   UNL     1     -10.643   8.874  70.094  1.00  0.00    -0.243 A  
HETATM    7  C   UNL     1     -11.317   9.979  70.623  1.00  0.00    -0.425 A  
HETATM    8  C   UNL     1      -9.728   9.077  69.053  1.00  0.00    -0.167 A  
HETATM    9  C   UNL     1     -12.230   9.827  71.656  1.00  0.00    -0.488 A  
HETATM   10  C   UNL     1      -9.064   8.008  68.459  1.00  0.00    -0.136 A  
HETATM   11  C   UNL     1     -12.458   8.565  72.196  1.00  0.00    -0.437 A  
HETATM   12  C   UNL     1     -11.802   7.422  71.696  1.00  0.00    -0.323 A  
BRANCH  12  13
HETATM   13  C   UNL     1     -12.006   6.078  72.390  1.00  0.00    -0.232 C  
BRANCH  13  14
HETATM   14  C   UNL     1     -10.884   5.616  73.334  1.00  0.00    -0.275 C  
BRANCH  14  15
HETATM   15  N   UNL     1     -10.121   6.717  73.904  1.00  0.00    -0.312 N  
HETATM   16  C   UNL     1      -8.779   6.886  73.651  1.00  0.00    -0.138 C  
HETATM   17  H   UNL     1     -10.596   7.386  74.510  1.00  0.00     0.000 HD 
HETATM   18  C   UNL     1      -8.146   8.027  74.403  1.00  0.00    -0.300 C  
HETATM   19  O   UNL     1      -8.135   6.185  72.879  1.00  0.00    -0.109 OA 
ENDBRANCH  14  15
ENDBRANCH  13  14
ENDBRANCH  12  13
ENDBRANCH   2   3
TORSDOF 4
ENDMDL
MODEL      168
REMARK 921   NORMALIZED FREE ENERGY PREDICTED BY IDOCK:   -3.56 KCAL/MOL
REMARK 922        TOTAL FREE ENERGY PREDICTED BY IDOCK:   -4.83 KCAL/MOL
REMARK 923 INTER-LIGAND FREE ENERGY PREDICTED BY IDOCK:   -4.34 KCAL/MOL
REMARK 924 INTRA-LIGAND FREE ENERGY PREDICTED BY IDOCK:   -0.49 KCAL/MOL
REMARK 927      BINDING AFFINITY PREDICTED BY RF-SCORE:    0.00 PKD
ROOT
HETATM    1  C   UNL     1      -9.628  10.546  66.059  1.00  0.00    -0.194 C  
HETATM    2  O   UNL     1     -10.363   9.404  66.497  1.00  0.00    -0.251 OA 
ENDROOT
BRANCH   2   3
HETATM    3  C   UNL     1     -10.641   9.389  67.839  1.00  0.00    -0.237 A  
HETATM    4  C   UNL     1     -10.600   8.136  68.465  1.00  0.00    -0.142 A  
HETATM    5  C   UNL     1     -10.909   7.968  69.843  1.00  0.00    -0.217 A  
HETATM    6  C   UNL     1     -11.238   9.145  70.565  1.00  0.00    -0.309 A  
HETATM    7  C   UNL     1     -11.590   9.074  71.918  1.00  0.00    -0.441 A  
HETATM    8  C   UNL     1     -11.212  10.399  69.942  1.00  0.00    -0.371 A  
HETATM    9  C   UNL     1     -11.627   7.854  72.578  1.00  0.00    -0.443 A  
HETATM   10  C   UNL     1     -10.915  10.524  68.588  1.00  0.00    -0.294 A  
HETATM   11  C   UNL     1     -11.282   6.690  71.899  1.00  0.00    -0.302 A  
HETATM   12  C   UNL     1     -10.921   6.713  70.537  1.00  0.00    -0.337 A  
BRANCH  12  13
HETATM   13  C   UNL     1     -10.449   5.426  69.865  1.00  0.00    -0.378 C  
BRANCH  13  14
HETATM   14  C   UNL     1      -8.951   5.100  69.985  1.00  0.00    -0.122 C  
BRANCH  14  15
HETATM   15  N   UNL     1      -8.314   4.837  68.702  1.00  0.00    -0.083 N  
HETATM   16  C   UNL     1      -7.480   5.749  68.099  1.00  0.00    -0.078 C  
HETATM   17  H   UNL     1      -8.492   3.947  68.236  1.00  0.00     0.000 HD 
HETATM   18  C   UNL     1      -6.992   5.334  66.736  1.00  0.00    -0.065 C  
HETATM   19  O   UNL     1      -7.142   6.810  68.611  1.00  0.00    -0.077 OA 
ENDBRANCH  14  15
ENDBRANCH  13  14
ENDBRANCH  12  13
ENDBRANCH   2   3
TORSDOF 4
ENDMDL
MODEL      169
REMARK 921   NORMALIZED FREE ENERGY PREDICTED BY IDOCK:   -3.54 KCAL/MOL
REMARK 922        TOTAL FREE ENERGY PREDICTED BY IDOCK:   -4.81 KCAL/MOL
REMARK 923 INTER-LIGAND FREE ENERGY PREDICTED BY IDOCK:   -4.65 KCAL/MOL
REMARK 924 INTRA-LIGAND FREE ENERGY PREDICTED BY IDOCK:   -0.16 KCAL/MOL
REMARK 927      BINDING AFFINITY PREDICTED BY RF-SCORE:    0.00 PKD
ROOT
HETATM    1  C   UNL     1     -10.114   7.337  69.955  1.00  0.00    -0.190 C  
HETATM    2  O   UNL     1     -10.805   7.158  68.719  1.00  0.00    -0.196 OA 
ENDROOT
BRANCH   2   3
HETATM    3  C   UNL     1     -10.089   7.531  67.611  1.00  0.00    -0.187 A  
HETATM    4  C   UNL     1     -10.408   8.779  67.060  1.00  0.00    -0.353 A  
HETATM    5  C   UNL     1      -9.776   9.272  65.886  1.00  0.00    -0.355 A  
HETATM    6  C   UNL     1      -8.778   8.443  65.309  1.00  0.00    -0.148 A  
HETATM    7  C   UNL     1      -8.125   8.829  64.133  1.00  0.00    -0.162 A  
HETATM    8  C   UNL     1      -8.423   7.227  65.908  1.00  0.00    -0.148 A  
HETATM    9  C   UNL     1      -8.441  10.026  63.507  1.00  0.00    -0.187 A  
HETATM   10  C   UNL     1      -9.072   6.772  67.052  1.00  0.00    -0.139 A  
HETATM   11  C   UNL     1      -9.395  10.868  64.068  1.00  0.00    -0.266 A  
HETATM   12  C   UNL     1     -10.078  10.521  65.250  1.00  0.00    -0.369 A  
BRANCH  12  13
HETATM   13  C   UNL     1     -11.039  11.525  65.882  1.00  0.00    -0.274 C  
BRANCH  13  14
HETATM   14  C   UNL     1     -11.127  12.906  65.212  1.00  0.00    -0.284 C  
BRANCH  14  15
HETATM   15  N   UNL     1      -9.968  13.748  65.471  1.00  0.00    -0.467 N  
HETATM   16  C   UNL     1      -9.978  14.732  66.431  1.00  0.00    -0.277 C  
HETATM   17  H   UNL     1      -9.120  13.603  64.921  1.00  0.00     0.000 HD 
HETATM   18  C   UNL     1      -8.719  15.556  66.487  1.00  0.00    -0.340 C  
HETATM   19  O   UNL     1     -10.916  14.934  67.194  1.00  0.00    -0.307 OA 
ENDBRANCH  14  15
ENDBRANCH  13  14
ENDBRANCH  12  13
ENDBRANCH   2   3
TORSDOF 4
ENDMDL
MODEL      170
REMARK 921   NORMALIZED FREE ENERGY PREDICTED BY IDOCK:   -3.51 KCAL/MOL
REMARK 922        TOTAL FREE ENERGY PREDICTED BY IDOCK:   -4.77 KCAL/MOL
REMARK 923 INTER-LIGAND FREE ENERGY PREDICTED BY IDOCK:   -4.43 KCAL/MOL
REMARK 924 INTRA-LIGAND FREE ENERGY PREDICTED BY IDOCK:   -0.34 KCAL/MOL
REMARK 927      BINDING AFFINITY PREDICTED BY RF-SCORE:    0.00 PKD
ROOT
HETATM    1  C   UNL     1     -11.374  15.440  64.788  1.00  0.00    -0.376 C  
HETATM    2  O   UNL     1     -10.994  16.800  64.578  1.00  0.00    -0.921 OA 
ENDROOT
BRANCH   2   3
HETATM    3  C   UNL     1     -10.239  17.339  65.587  1.00  0.00    -0.124 A  
HETATM    4  C   UNL     1      -9.346  16.469  66.225  1.00  0.00    -0.334 A  
HETATM    5  C   UNL     1      -8.534  16.883  67.317  1.00  0.00    -0.213 A  
HETATM    6  C   UNL     1      -8.654  18.241  67.714  1.00  0.00    -0.263 A  
HETATM    7  C   UNL     1      -7.920  18.730  68.800  1.00  0.00    -0.335 A  
HETATM    8  C   UNL     1      -9.503  19.117  67.025  1.00  0.00    -0.367 A  
HETATM    9  C   UNL     1      -7.064  17.901  69.510  1.00  0.00     0.089 A  
HETATM   10  C   UNL     1     -10.291  18.672  65.968  1.00  0.00    -0.436 A  
HETATM   11  C   UNL     1      -6.909  16.574  69.122  1.00  0.00    -0.218 A  
HETATM   12  C   UNL     1      -7.627  16.037  68.036  1.00  0.00    -0.137 A  
BRANCH  12  13
HETATM   13  C   UNL     1      -7.343  14.606  67.584  1.00  0.00    -0.204 C  
BRANCH  13  14
HETATM   14  C   UNL     1      -8.119  13.493  68.306  1.00  0.00    -0.155 C  
BRANCH  14  15
HETATM   15  N   UNL     1      -7.381  12.241  68.395  1.00  0.00    -0.102 N  
HETATM   16  C   UNL     1      -7.654  11.170  67.577  1.00  0.00    -0.108 C  
HETATM   17  H   UNL     1      -6.637  12.155  69.089  1.00  0.00     0.000 HD 
HETATM   18  C   UNL     1      -6.847   9.936  67.882  1.00  0.00    -0.076 C  
HETATM   19  O   UNL     1      -8.472  11.198  66.664  1.00  0.00    -0.153 OA 
ENDBRANCH  14  15
ENDBRANCH  13  14
ENDBRANCH  12  13
ENDBRANCH   2   3
TORSDOF 4
ENDMDL
MODEL      171
REMARK 921   NORMALIZED FREE ENERGY PREDICTED BY IDOCK:   -3.49 KCAL/MOL
REMARK 922        TOTAL FREE ENERGY PREDICTED BY IDOCK:   -4.75 KCAL/MOL
REMARK 923 INTER-LIGAND FREE ENERGY PREDICTED BY IDOCK:   -4.49 KCAL/MOL
REMARK 924 INTRA-LIGAND FREE ENERGY PREDICTED BY IDOCK:   -0.25 KCAL/MOL
REMARK 927      BINDING AFFINITY PREDICTED BY RF-SCORE:    0.00 PKD
ROOT
HETATM    1  C   UNL     1      -9.325   1.682  71.351  1.00  0.00    -0.106 C  
HETATM    2  O   UNL     1      -9.385   2.791  70.454  1.00  0.00    -0.131 OA 
ENDROOT
BRANCH   2   3
HETATM    3  C   UNL     1      -9.881   3.942  71.009  1.00  0.00    -0.149 A  
HETATM    4  C   UNL     1      -9.809   5.093  70.213  1.00  0.00    -0.295 A  
HETATM    5  C   UNL     1     -10.246   6.363  70.677  1.00  0.00    -0.229 A  
HETATM    6  C   UNL     1     -10.789   6.404  71.990  1.00  0.00    -0.277 A  
HETATM    7  C   UNL     1     -11.213   7.616  72.545  1.00  0.00    -0.399 A  
HETATM    8  C   UNL     1     -10.914   5.234  72.750  1.00  0.00    -0.331 A  
HETATM    9  C   UNL     1     -11.112   8.800  71.828  1.00  0.00    -0.417 A  
HETATM   10  C   UNL     1     -10.465   4.009  72.265  1.00  0.00    -0.121 A  
HETATM   11  C   UNL     1     -10.610   8.781  70.531  1.00  0.00    -0.252 A  
HETATM   12  C   UNL     1     -10.170   7.584  69.930  1.00  0.00    -0.210 A  
BRANCH  12  13
HETATM   13  C   UNL     1      -9.727   7.599  68.469  1.00  0.00    -0.162 C  
BRANCH  13  14
HETATM   14  C   UNL     1     -10.492   8.545  67.530  1.00  0.00    -0.258 C  
BRANCH  14  15
HETATM   15  N   UNL     1      -9.862   8.697  66.226  1.00  0.00    -0.373 N  
HETATM   16  C   UNL     1      -9.955   9.861  65.499  1.00  0.00    -0.292 C  
HETATM   17  H   UNL     1      -9.333   7.915  65.840  1.00  0.00     0.000 HD 
HETATM   18  C   UNL     1      -9.315   9.794  64.138  1.00  0.00    -0.237 C  
HETATM   19  O   UNL     1     -10.500  10.880  65.908  1.00  0.00    -0.254 OA 
ENDBRANCH  14  15
ENDBRANCH  13  14
ENDBRANCH  12  13
ENDBRANCH   2   3
TORSDOF 4
ENDMDL
MODEL      172
REMARK 921   NORMALIZED FREE ENERGY PREDICTED BY IDOCK:   -3.49 KCAL/MOL
REMARK 922        TOTAL FREE ENERGY PREDICTED BY IDOCK:   -4.74 KCAL/MOL
REMARK 923 INTER-LIGAND FREE ENERGY PREDICTED BY IDOCK:   -4.35 KCAL/MOL
REMARK 924 INTRA-LIGAND FREE ENERGY PREDICTED BY IDOCK:   -0.39 KCAL/MOL
REMARK 927      BINDING AFFINITY PREDICTED BY RF-SCORE:    0.00 PKD
ROOT
HETATM    1  C   UNL     1     -11.136   6.643  67.188  1.00  0.00    -0.357 C  
HETATM    2  O   UNL     1      -9.981   7.077  66.471  1.00  0.00    -0.174 OA 
ENDROOT
BRANCH   2   3
HETATM    3  C   UNL     1      -9.328   8.140  67.039  1.00  0.00    -0.155 A  
HETATM    4  C   UNL     1      -9.668   9.408  66.550  1.00  0.00    -0.299 A  
HETATM    5  C   UNL     1      -9.038  10.594  67.017  1.00  0.00    -0.155 A  
HETATM    6  C   UNL     1      -8.059  10.432  68.033  1.00  0.00    -0.110 A  
HETATM    7  C   UNL     1      -7.362  11.539  68.530  1.00  0.00    -0.104 A  
HETATM    8  C   UNL     1      -7.775   9.165  68.559  1.00  0.00    -0.093 A  
HETATM    9  C   UNL     1      -7.611  12.813  68.042  1.00  0.00    -0.131 A  
HETATM   10  C   UNL     1      -8.405   8.025  68.068  1.00  0.00    -0.126 A  
HETATM   11  C   UNL     1      -8.585  13.000  67.067  1.00  0.00    -0.165 A  
HETATM   12  C   UNL     1      -9.312  11.917  66.536  1.00  0.00    -0.222 A  
BRANCH  12  13
HETATM   13  C   UNL     1     -10.443  12.186  65.546  1.00  0.00    -0.300 C  
BRANCH  13  14
HETATM   14  C   UNL     1     -11.828  12.475  66.148  1.00  0.00    -0.397 C  
BRANCH  14  15
HETATM   15  N   UNL     1     -11.766  13.098  67.463  1.00  0.00    -0.351 N  
HETATM   16  C   UNL     1     -11.995  12.391  68.620  1.00  0.00    -0.225 C  
HETATM   17  H   UNL     1     -11.545  14.092  67.527  1.00  0.00     0.000 HD 
HETATM   18  C   UNL     1     -11.977  13.228  69.871  1.00  0.00    -0.400 C  
HETATM   19  O   UNL     1     -12.190  11.181  68.655  1.00  0.00    -0.582 OA 
ENDBRANCH  14  15
ENDBRANCH  13  14
ENDBRANCH  12  13
ENDBRANCH   2   3
TORSDOF 4
ENDMDL
MODEL      173
REMARK 921   NORMALIZED FREE ENERGY PREDICTED BY IDOCK:   -3.48 KCAL/MOL
REMARK 922        TOTAL FREE ENERGY PREDICTED BY IDOCK:   -4.73 KCAL/MOL
REMARK 923 INTER-LIGAND FREE ENERGY PREDICTED BY IDOCK:   -4.44 KCAL/MOL
REMARK 924 INTRA-LIGAND FREE ENERGY PREDICTED BY IDOCK:   -0.29 KCAL/MOL
REMARK 927      BINDING AFFINITY PREDICTED BY RF-SCORE:    0.00 PKD
ROOT
HETATM    1  C   UNL     1     -11.313  15.998  64.603  1.00  0.00    -0.306 C  
HETATM    2  O   UNL     1     -10.528  16.949  65.321  1.00  0.00    -0.638 OA 
ENDROOT
BRANCH   2   3
HETATM    3  C   UNL     1      -9.440  16.417  65.963  1.00  0.00    -0.310 A  
HETATM    4  C   UNL     1      -9.579  15.104  66.431  1.00  0.00    -0.309 A  
HETATM    5  C   UNL     1      -8.547  14.444  67.152  1.00  0.00    -0.237 A  
HETATM    6  C   UNL     1      -7.347  15.177  67.353  1.00  0.00    -0.235 A  
HETATM    7  C   UNL     1      -6.289  14.622  68.080  1.00  0.00    -0.144 A  
HETATM    8  C   UNL     1      -7.198  16.465  66.823  1.00  0.00    -0.245 A  
HETATM    9  C   UNL     1      -6.390  13.349  68.621  1.00  0.00    -0.091 A  
HETATM   10  C   UNL     1      -8.235  17.084  66.131  1.00  0.00    -0.284 A  
HETATM   11  C   UNL     1      -7.544  12.600  68.415  1.00  0.00    -0.132 A  
HETATM   12  C   UNL     1      -8.636  13.117  67.689  1.00  0.00    -0.193 A  
BRANCH  12  13
HETATM   13  C   UNL     1      -9.836  12.219  67.400  1.00  0.00    -0.199 C  
BRANCH  13  14
HETATM   14  C   UNL     1     -10.633  11.725  68.618  1.00  0.00    -0.223 C  
BRANCH  14  15
HETATM   15  N   UNL     1     -10.801  10.280  68.650  1.00  0.00    -0.221 N  
HETATM   16  C   UNL     1     -10.640   9.549  69.804  1.00  0.00    -0.236 C  
HETATM   17  H   UNL     1     -11.047   9.793  67.788  1.00  0.00     0.000 HD 
HETATM   18  C   UNL     1     -10.765   8.060  69.617  1.00  0.00    -0.207 C  
HETATM   19  O   UNL     1     -10.422  10.046  70.903  1.00  0.00    -0.228 OA 
ENDBRANCH  14  15
ENDBRANCH  13  14
ENDBRANCH  12  13
ENDBRANCH   2   3
TORSDOF 4
ENDMDL
MODEL      174
REMARK 921   NORMALIZED FREE ENERGY PREDICTED BY IDOCK:   -3.48 KCAL/MOL
REMARK 922        TOTAL FREE ENERGY PREDICTED BY IDOCK:   -4.73 KCAL/MOL
REMARK 923 INTER-LIGAND FREE ENERGY PREDICTED BY IDOCK:   -4.39 KCAL/MOL
REMARK 924 INTRA-LIGAND FREE ENERGY PREDICTED BY IDOCK:   -0.34 KCAL/MOL
REMARK 927      BINDING AFFINITY PREDICTED BY RF-SCORE:    0.00 PKD
ROOT
HETATM    1  C   UNL     1      -6.365  12.044  67.291  1.00  0.00    -0.151 C  
HETATM    2  O   UNL     1      -5.960  12.880  68.376  1.00  0.00    -0.065 OA 
ENDROOT
BRANCH   2   3
HETATM    3  C   UNL     1      -6.409  14.172  68.293  1.00  0.00    -0.118 A  
HETATM    4  C   UNL     1      -7.725  14.399  68.716  1.00  0.00    -0.139 A  
HETATM    5  C   UNL     1      -8.334  15.682  68.645  1.00  0.00    -0.177 A  
HETATM    6  C   UNL     1      -7.526  16.738  68.145  1.00  0.00    -0.172 A  
HETATM    7  C   UNL     1      -8.049  18.028  68.006  1.00  0.00    -0.259 A  
HETATM    8  C   UNL     1      -6.191  16.510  67.787  1.00  0.00    -0.158 A  
HETATM    9  C   UNL     1      -9.365  18.301  68.351  1.00  0.00    -0.328 A  
HETATM   10  C   UNL     1      -5.632  15.237  67.860  1.00  0.00    -0.143 A  
HETATM   11  C   UNL     1     -10.167  17.289  68.869  1.00  0.00    -0.349 A  
HETATM   12  C   UNL     1      -9.684  15.975  69.026  1.00  0.00    -0.244 A  
BRANCH  12  13
HETATM   13  C   UNL     1     -10.569  14.927  69.697  1.00  0.00    -0.213 C  
BRANCH  13  14
HETATM   14  C   UNL     1     -12.058  14.942  69.317  1.00  0.00    -0.251 C  
BRANCH  14  15
HETATM   15  N   UNL     1     -12.299  14.629  67.915  1.00  0.00    -0.588 N  
HETATM   16  C   UNL     1     -12.178  13.352  67.420  1.00  0.00    -0.214 C  
HETATM   17  H   UNL     1     -12.567  15.381  67.280  1.00  0.00     0.000 HD 
HETATM   18  C   UNL     1     -12.378  13.243  65.931  1.00  0.00    -0.479 C  
HETATM   19  O   UNL     1     -11.938  12.369  68.113  1.00  0.00    -0.344 OA 
ENDBRANCH  14  15
ENDBRANCH  13  14
ENDBRANCH  12  13
ENDBRANCH   2   3
TORSDOF 4
ENDMDL
MODEL      175
REMARK 921   NORMALIZED FREE ENERGY PREDICTED BY IDOCK:   -3.48 KCAL/MOL
REMARK 922        TOTAL FREE ENERGY PREDICTED BY IDOCK:   -4.73 KCAL/MOL
REMARK 923 INTER-LIGAND FREE ENERGY PREDICTED BY IDOCK:   -4.61 KCAL/MOL
REMARK 924 INTRA-LIGAND FREE ENERGY PREDICTED BY IDOCK:   -0.12 KCAL/MOL
REMARK 927      BINDING AFFINITY PREDICTED BY RF-SCORE:    0.00 PKD
ROOT
HETATM    1  C   UNL     1     -12.590  12.803  63.397  1.00  0.00    -0.212 C  
HETATM    2  O   UNL     1     -12.989  13.176  64.716  1.00  0.00    -0.725 OA 
ENDROOT
BRANCH   2   3
HETATM    3  C   UNL     1     -11.981  13.140  65.644  1.00  0.00    -0.415 A  
HETATM    4  C   UNL     1     -11.171  11.997  65.633  1.00  0.00    -0.377 A  
HETATM    5  C   UNL     1     -10.116  11.807  66.567  1.00  0.00    -0.232 A  
HETATM    6  C   UNL     1      -9.905  12.854  67.503  1.00  0.00    -0.208 A  
HETATM    7  C   UNL     1      -8.912  12.741  68.483  1.00  0.00    -0.046 A  
HETATM    8  C   UNL     1     -10.680  14.020  67.461  1.00  0.00    -0.271 A  
HETATM    9  C   UNL     1      -8.118  11.607  68.562  1.00  0.00    -0.145 A  
HETATM   10  C   UNL     1     -11.711  14.165  66.538  1.00  0.00    -0.414 A  
HETATM   11  C   UNL     1      -8.287  10.580  67.639  1.00  0.00    -0.114 A  
HETATM   12  C   UNL     1      -9.274  10.649  66.635  1.00  0.00    -0.184 A  
BRANCH  12  13
HETATM   13  C   UNL     1      -9.350   9.545  65.583  1.00  0.00    -0.302 C  
BRANCH  13  14
HETATM   14  C   UNL     1      -9.257   8.099  66.097  1.00  0.00    -0.173 C  
BRANCH  14  15
HETATM   15  N   UNL     1      -9.890   7.907  67.393  1.00  0.00    -0.166 N  
HETATM   16  C   UNL     1     -10.785   6.890  67.627  1.00  0.00    -0.274 C  
HETATM   17  H   UNL     1      -9.662   8.548  68.154  1.00  0.00     0.000 HD 
HETATM   18  C   UNL     1     -11.402   6.910  69.001  1.00  0.00    -0.064 C  
HETATM   19  O   UNL     1     -11.067   6.024  66.805  1.00  0.00    -0.291 OA 
ENDBRANCH  14  15
ENDBRANCH  13  14
ENDBRANCH  12  13
ENDBRANCH   2   3
TORSDOF 4
ENDMDL
MODEL      176
REMARK 921   NORMALIZED FREE ENERGY PREDICTED BY IDOCK:   -3.46 KCAL/MOL
REMARK 922        TOTAL FREE ENERGY PREDICTED BY IDOCK:   -4.71 KCAL/MOL
REMARK 923 INTER-LIGAND FREE ENERGY PREDICTED BY IDOCK:   -4.32 KCAL/MOL
REMARK 924 INTRA-LIGAND FREE ENERGY PREDICTED BY IDOCK:   -0.39 KCAL/MOL
REMARK 927      BINDING AFFINITY PREDICTED BY RF-SCORE:    0.00 PKD
ROOT
HETATM    1  C   UNL     1     -13.179  11.281  71.256  1.00  0.00    -0.081 C  
HETATM    2  O   UNL     1     -12.981  10.212  72.182  1.00  0.00    -0.415 OA 
ENDROOT
BRANCH   2   3
HETATM    3  C   UNL     1     -12.520   9.052  71.616  1.00  0.00    -0.351 A  
HETATM    4  C   UNL     1     -11.262   9.120  71.003  1.00  0.00    -0.380 A  
HETATM    5  C   UNL     1     -10.682   8.004  70.341  1.00  0.00    -0.233 A  
HETATM    6  C   UNL     1     -11.434   6.799  70.354  1.00  0.00    -0.419 A  
HETATM    7  C   UNL     1     -10.959   5.658  69.698  1.00  0.00    -0.292 A  
HETATM    8  C   UNL     1     -12.661   6.728  71.027  1.00  0.00    -0.259 A  
HETATM    9  C   UNL     1      -9.748   5.680  69.022  1.00  0.00    -0.187 A  
HETATM   10  C   UNL     1     -13.202   7.845  71.656  1.00  0.00    -0.367 A  
HETATM   11  C   UNL     1      -8.980   6.840  69.018  1.00  0.00    -0.131 A  
HETATM   12  C   UNL     1      -9.418   8.014  69.664  1.00  0.00    -0.163 A  
BRANCH  12  13
HETATM   13  C   UNL     1      -8.492   9.226  69.721  1.00  0.00    -0.152 C  
BRANCH  13  14
HETATM   14  C   UNL     1      -8.914  10.451  68.893  1.00  0.00    -0.169 C  
BRANCH  14  15
HETATM   15  N   UNL     1      -9.514  10.102  67.613  1.00  0.00    -0.147 N  
HETATM   16  C   UNL     1      -8.759   9.899  66.482  1.00  0.00    -0.128 C  
HETATM   17  H   UNL     1     -10.528  10.004  67.553  1.00  0.00     0.000 HD 
HETATM   18  C   UNL     1      -9.565   9.636  65.237  1.00  0.00    -0.347 C  
HETATM   19  O   UNL     1      -7.533   9.916  66.465  1.00  0.00    -0.097 OA 
ENDBRANCH  14  15
ENDBRANCH  13  14
ENDBRANCH  12  13
ENDBRANCH   2   3
TORSDOF 4
ENDMDL
MODEL      177
REMARK 921   NORMALIZED FREE ENERGY PREDICTED BY IDOCK:   -3.46 KCAL/MOL
REMARK 922        TOTAL FREE ENERGY PREDICTED BY IDOCK:   -4.71 KCAL/MOL
REMARK 923 INTER-LIGAND FREE ENERGY PREDICTED BY IDOCK:   -4.57 KCAL/MOL
REMARK 924 INTRA-LIGAND FREE ENERGY PREDICTED BY IDOCK:   -0.13 KCAL/MOL
REMARK 927      BINDING AFFINITY PREDICTED BY RF-SCORE:    0.00 PKD
ROOT
HETATM    1  C   UNL     1     -11.966   9.084  71.111  1.00  0.00    -0.298 C  
HETATM    2  O   UNL     1     -11.859   7.661  71.150  1.00  0.00    -0.286 OA 
ENDROOT
BRANCH   2   3
HETATM    3  C   UNL     1     -11.178   7.114  70.094  1.00  0.00    -0.262 A  
HETATM    4  C   UNL     1     -10.648   8.019  69.165  1.00  0.00    -0.181 A  
HETATM    5  C   UNL     1      -9.957   7.589  67.999  1.00  0.00    -0.204 A  
HETATM    6  C   UNL     1      -9.805   6.186  67.835  1.00  0.00    -0.130 A  
HETATM    7  C   UNL     1      -9.168   5.669  66.702  1.00  0.00    -0.138 A  
HETATM    8  C   UNL     1     -10.283   5.296  68.805  1.00  0.00    -0.231 A  
HETATM    9  C   UNL     1      -8.676   6.512  65.717  1.00  0.00    -0.129 A  
HETATM   10  C   UNL     1     -10.964   5.754  69.929  1.00  0.00    -0.389 A  
HETATM   11  C   UNL     1      -8.789   7.890  65.868  1.00  0.00    -0.183 A  
HETATM   12  C   UNL     1      -9.421   8.457  66.992  1.00  0.00    -0.225 A  
BRANCH  12  13
HETATM   13  C   UNL     1      -9.425   9.974  67.163  1.00  0.00    -0.184 C  
BRANCH  13  14
HETATM   14  C   UNL     1     -10.151  10.785  66.076  1.00  0.00    -0.249 C  
BRANCH  14  15
HETATM   15  N   UNL     1     -10.694  12.045  66.563  1.00  0.00    -0.248 N  
HETATM   16  C   UNL     1     -11.614  12.099  67.584  1.00  0.00    -0.343 C  
HETATM   17  H   UNL     1     -10.383  12.916  66.133  1.00  0.00     0.000 HD 
HETATM   18  C   UNL     1     -12.126  13.483  67.884  1.00  0.00    -0.304 C  
HETATM   19  O   UNL     1     -11.993  11.119  68.216  1.00  0.00    -0.592 OA 
ENDBRANCH  14  15
ENDBRANCH  13  14
ENDBRANCH  12  13
ENDBRANCH   2   3
TORSDOF 4
ENDMDL
MODEL      178
REMARK 921   NORMALIZED FREE ENERGY PREDICTED BY IDOCK:   -3.46 KCAL/MOL
REMARK 922        TOTAL FREE ENERGY PREDICTED BY IDOCK:   -4.70 KCAL/MOL
REMARK 923 INTER-LIGAND FREE ENERGY PREDICTED BY IDOCK:   -4.62 KCAL/MOL
REMARK 924 INTRA-LIGAND FREE ENERGY PREDICTED BY IDOCK:   -0.08 KCAL/MOL
REMARK 927      BINDING AFFINITY PREDICTED BY RF-SCORE:    0.00 PKD
ROOT
HETATM    1  C   UNL     1      -7.960   4.030  65.364  1.00  0.00    -0.093 C  
HETATM    2  O   UNL     1      -8.280   2.945  66.235  1.00  0.00    -0.085 OA 
ENDROOT
BRANCH   2   3
HETATM    3  C   UNL     1      -8.797   3.325  67.446  1.00  0.00    -0.134 A  
HETATM    4  C   UNL     1      -9.479   4.548  67.472  1.00  0.00    -0.193 A  
HETATM    5  C   UNL     1     -10.028   5.085  68.669  1.00  0.00    -0.215 A  
HETATM    6  C   UNL     1      -9.873   4.299  69.842  1.00  0.00    -0.267 A  
HETATM    7  C   UNL     1     -10.351   4.761  71.074  1.00  0.00    -0.188 A  
HETATM    8  C   UNL     1      -9.247   3.048  69.790  1.00  0.00    -0.219 A  
HETATM    9  C   UNL     1     -10.981   5.993  71.174  1.00  0.00    -0.341 A  
HETATM   10  C   UNL     1      -8.712   2.560  68.601  1.00  0.00    -0.133 A  
HETATM   11  C   UNL     1     -11.169   6.767  70.034  1.00  0.00    -0.380 A  
HETATM   12  C   UNL     1     -10.705   6.344  68.772  1.00  0.00    -0.339 A  
BRANCH  12  13
HETATM   13  C   UNL     1     -11.029   7.179  67.536  1.00  0.00    -0.261 C  
BRANCH  13  14
HETATM   14  C   UNL     1     -10.335   8.547  67.432  1.00  0.00    -0.286 C  
BRANCH  14  15
HETATM   15  N   UNL     1     -10.714   9.468  68.495  1.00  0.00    -0.333 N  
HETATM   16  C   UNL     1     -11.312  10.679  68.235  1.00  0.00    -0.289 C  
HETATM   17  H   UNL     1     -10.531   9.206  69.463  1.00  0.00     0.000 HD 
HETATM   18  C   UNL     1     -11.544  11.529  69.456  1.00  0.00    -0.400 C  
HETATM   19  O   UNL     1     -11.644  11.052  67.116  1.00  0.00    -0.469 OA 
ENDBRANCH  14  15
ENDBRANCH  13  14
ENDBRANCH  12  13
ENDBRANCH   2   3
TORSDOF 4
ENDMDL
MODEL      179
REMARK 921   NORMALIZED FREE ENERGY PREDICTED BY IDOCK:   -3.46 KCAL/MOL
REMARK 922        TOTAL FREE ENERGY PREDICTED BY IDOCK:   -4.70 KCAL/MOL
REMARK 923 INTER-LIGAND FREE ENERGY PREDICTED BY IDOCK:   -5.34 KCAL/MOL
REMARK 924 INTRA-LIGAND FREE ENERGY PREDICTED BY IDOCK:    0.64 KCAL/MOL
REMARK 927      BINDING AFFINITY PREDICTED BY RF-SCORE:    0.00 PKD
ROOT
HETATM    1  C   UNL     1     -10.479  18.798  66.442  1.00  0.00    -0.429 C  
HETATM    2  O   UNL     1     -10.651  18.071  65.225  1.00  0.00    -0.615 OA 
ENDROOT
BRANCH   2   3
HETATM    3  C   UNL     1     -10.649  16.708  65.374  1.00  0.00    -0.237 A  
HETATM    4  C   UNL     1      -9.993  16.211  66.508  1.00  0.00    -0.293 A  
HETATM    5  C   UNL     1      -9.876  14.817  66.765  1.00  0.00    -0.263 A  
HETATM    6  C   UNL     1     -10.486  13.947  65.822  1.00  0.00    -0.313 A  
HETATM    7  C   UNL     1     -10.394  12.559  65.973  1.00  0.00    -0.277 A  
HETATM    8  C   UNL     1     -11.194  14.460  64.727  1.00  0.00    -0.391 A  
HETATM    9  C   UNL     1      -9.705  12.006  67.043  1.00  0.00    -0.204 A  
HETATM   10  C   UNL     1     -11.278  15.831  64.503  1.00  0.00    -0.334 A  
HETATM   11  C   UNL     1      -9.123  12.838  67.994  1.00  0.00    -0.207 A  
HETATM   12  C   UNL     1      -9.190  14.241  67.884  1.00  0.00    -0.194 A  
BRANCH  12  13
HETATM   13  C   UNL     1      -8.628  15.108  69.007  1.00  0.00    -0.219 C  
BRANCH  13  14
HETATM   14  C   UNL     1      -8.669  16.629  68.786  1.00  0.00    -0.260 C  
BRANCH  14  15
HETATM   15  N   UNL     1      -7.348  17.234  68.695  1.00  0.00    -0.228 N  
HETATM   16  C   UNL     1      -7.165  18.597  68.708  1.00  0.00    -0.305 C  
HETATM   17  H   UNL     1      -6.531  16.627  68.620  1.00  0.00     0.000 HD 
HETATM   18  C   UNL     1      -5.736  19.032  68.513  1.00  0.00    -0.217 C  
HETATM   19  O   UNL     1      -8.070  19.407  68.872  1.00  0.00    -0.356 OA 
ENDBRANCH  14  15
ENDBRANCH  13  14
ENDBRANCH  12  13
ENDBRANCH   2   3
TORSDOF 4
ENDMDL
MODEL      180
REMARK 921   NORMALIZED FREE ENERGY PREDICTED BY IDOCK:   -3.45 KCAL/MOL
REMARK 922        TOTAL FREE ENERGY PREDICTED BY IDOCK:   -4.69 KCAL/MOL
REMARK 923 INTER-LIGAND FREE ENERGY PREDICTED BY IDOCK:   -4.32 KCAL/MOL
REMARK 924 INTRA-LIGAND FREE ENERGY PREDICTED BY IDOCK:   -0.37 KCAL/MOL
REMARK 927      BINDING AFFINITY PREDICTED BY RF-SCORE:    0.00 PKD
ROOT
HETATM    1  C   UNL     1     -13.068  11.616  71.767  1.00  0.00    -0.382 C  
HETATM    2  O   UNL     1     -12.872  10.208  71.633  1.00  0.00    -0.382 OA 
ENDROOT
BRANCH   2   3
HETATM    3  C   UNL     1     -11.628   9.849  71.185  1.00  0.00    -0.389 A  
HETATM    4  C   UNL     1     -11.170  10.509  70.036  1.00  0.00    -0.386 A  
HETATM    5  C   UNL     1      -9.917  10.205  69.437  1.00  0.00    -0.247 A  
HETATM    6  C   UNL     1      -9.133   9.210  70.080  1.00  0.00    -0.229 A  
HETATM    7  C   UNL     1      -7.901   8.820  69.544  1.00  0.00    -0.091 A  
HETATM    8  C   UNL     1      -9.575   8.605  71.264  1.00  0.00    -0.292 A  
HETATM    9  C   UNL     1      -7.422   9.394  68.376  1.00  0.00    -0.078 A  
HETATM   10  C   UNL     1     -10.813   8.921  71.816  1.00  0.00    -0.436 A  
HETATM   11  C   UNL     1      -8.159  10.390  67.743  1.00  0.00    -0.103 A  
HETATM   12  C   UNL     1      -9.404  10.815  68.245  1.00  0.00    -0.161 A  
BRANCH  12  13
HETATM   13  C   UNL     1     -10.123  11.983  67.575  1.00  0.00    -0.205 C  
BRANCH  13  14
HETATM   14  C   UNL     1      -9.254  13.190  67.185  1.00  0.00    -0.227 C  
BRANCH  14  15
HETATM   15  N   UNL     1      -8.748  13.930  68.332  1.00  0.00    -0.181 N  
HETATM   16  C   UNL     1      -7.615  14.707  68.260  1.00  0.00    -0.118 C  
HETATM   17  H   UNL     1      -9.250  13.871  69.218  1.00  0.00     0.000 HD 
HETATM   18  C   UNL     1      -7.199  15.320  69.571  1.00  0.00    -0.205 C  
HETATM   19  O   UNL     1      -6.986  14.905  67.226  1.00  0.00    -0.213 OA 
ENDBRANCH  14  15
ENDBRANCH  13  14
ENDBRANCH  12  13
ENDBRANCH   2   3
TORSDOF 4
ENDMDL
MODEL      181
REMARK 921   NORMALIZED FREE ENERGY PREDICTED BY IDOCK:   -3.43 KCAL/MOL
REMARK 922        TOTAL FREE ENERGY PREDICTED BY IDOCK:   -4.67 KCAL/MOL
REMARK 923 INTER-LIGAND FREE ENERGY PREDICTED BY IDOCK:   -4.29 KCAL/MOL
REMARK 924 INTRA-LIGAND FREE ENERGY PREDICTED BY IDOCK:   -0.38 KCAL/MOL
REMARK 927      BINDING AFFINITY PREDICTED BY RF-SCORE:    0.00 PKD
ROOT
HETATM    1  C   UNL     1      -8.590   5.796  67.171  1.00  0.00    -0.109 C  
HETATM    2  O   UNL     1      -9.244   4.856  68.023  1.00  0.00    -0.114 OA 
ENDROOT
BRANCH   2   3
HETATM    3  C   UNL     1      -9.834   5.409  69.130  1.00  0.00    -0.177 A  
HETATM    4  C   UNL     1     -10.167   6.767  69.040  1.00  0.00    -0.191 A  
HETATM    5  C   UNL     1     -10.744   7.479  70.126  1.00  0.00    -0.248 A  
HETATM    6  C   UNL     1     -10.994   6.734  71.309  1.00  0.00    -0.288 A  
HETATM    7  C   UNL     1     -11.528   7.358  72.442  1.00  0.00    -0.343 A  
HETATM    8  C   UNL     1     -10.717   5.362  71.363  1.00  0.00    -0.258 A  
HETATM    9  C   UNL     1     -11.821   8.713  72.434  1.00  0.00    -0.402 A  
HETATM   10  C   UNL     1     -10.141   4.701  70.282  1.00  0.00    -0.276 A  
HETATM   11  C   UNL     1     -11.611   9.459  71.279  1.00  0.00    -0.434 A  
HETATM   12  C   UNL     1     -11.075   8.874  70.114  1.00  0.00    -0.217 A  
BRANCH  12  13
HETATM   13  C   UNL     1     -10.962   9.709  68.841  1.00  0.00    -0.153 C  
BRANCH  13  14
HETATM   14  C   UNL     1     -10.696  11.211  69.027  1.00  0.00    -0.225 C  
BRANCH  14  15
HETATM   15  N   UNL     1      -9.285  11.531  69.189  1.00  0.00    -0.390 N  
HETATM   16  C   UNL     1      -8.533  12.067  68.170  1.00  0.00    -0.171 C  
HETATM   17  H   UNL     1      -8.838  11.352  70.089  1.00  0.00     0.000 HD 
HETATM   18  C   UNL     1      -7.075  12.242  68.501  1.00  0.00    -0.099 C  
HETATM   19  O   UNL     1      -8.991  12.390  67.080  1.00  0.00    -0.196 OA 
ENDBRANCH  14  15
ENDBRANCH  13  14
ENDBRANCH  12  13
ENDBRANCH   2   3
TORSDOF 4
ENDMDL
MODEL      182
REMARK 921   NORMALIZED FREE ENERGY PREDICTED BY IDOCK:   -3.43 KCAL/MOL
REMARK 922        TOTAL FREE ENERGY PREDICTED BY IDOCK:   -4.67 KCAL/MOL
REMARK 923 INTER-LIGAND FREE ENERGY PREDICTED BY IDOCK:   -4.08 KCAL/MOL
REMARK 924 INTRA-LIGAND FREE ENERGY PREDICTED BY IDOCK:   -0.58 KCAL/MOL
REMARK 927      BINDING AFFINITY PREDICTED BY RF-SCORE:    0.00 PKD
ROOT
HETATM    1  C   UNL     1      -9.297   5.300  71.057  1.00  0.00    -0.150 C  
HETATM    2  O   UNL     1     -10.543   5.576  70.416  1.00  0.00    -0.276 OA 
ENDROOT
BRANCH   2   3
HETATM    3  C   UNL     1     -10.919   6.893  70.451  1.00  0.00    -0.274 A  
HETATM    4  C   UNL     1     -10.701   7.630  69.279  1.00  0.00    -0.169 A  
HETATM    5  C   UNL     1     -11.004   9.016  69.189  1.00  0.00    -0.025 A  
HETATM    6  C   UNL     1     -11.567   9.617  70.347  1.00  0.00    -0.299 A  
HETATM    7  C   UNL     1     -11.866  10.984  70.363  1.00  0.00    -0.460 A  
HETATM    8  C   UNL     1     -11.840   8.854  71.489  1.00  0.00    -0.402 A  
HETATM    9  C   UNL     1     -11.616  11.778  69.254  1.00  0.00    -0.378 A  
HETATM   10  C   UNL     1     -11.520   7.500  71.544  1.00  0.00    -0.293 A  
HETATM   11  C   UNL     1     -11.091  11.208  68.100  1.00  0.00    -0.324 A  
HETATM   12  C   UNL     1     -10.774   9.836  68.036  1.00  0.00    -0.298 A  
BRANCH  12  13
HETATM   13  C   UNL     1     -10.300   9.238  66.714  1.00  0.00    -0.296 C  
BRANCH  13  14
HETATM   14  C   UNL     1      -8.854   9.555  66.297  1.00  0.00    -0.149 C  
BRANCH  14  15
HETATM   15  N   UNL     1      -7.868   8.691  66.930  1.00  0.00    -0.091 N  
HETATM   16  C   UNL     1      -7.107   9.108  67.997  1.00  0.00    -0.078 C  
HETATM   17  H   UNL     1      -7.738   7.745  66.571  1.00  0.00     0.000 HD 
HETATM   18  C   UNL     1      -6.081   8.106  68.454  1.00  0.00    -0.045 C  
HETATM   19  O   UNL     1      -7.242  10.194  68.550  1.00  0.00    -0.077 OA 
ENDBRANCH  14  15
ENDBRANCH  13  14
ENDBRANCH  12  13
ENDBRANCH   2   3
TORSDOF 4
ENDMDL
MODEL      183
REMARK 921   NORMALIZED FREE ENERGY PREDICTED BY IDOCK:   -3.42 KCAL/MOL
REMARK 922        TOTAL FREE ENERGY PREDICTED BY IDOCK:   -4.66 KCAL/MOL
REMARK 923 INTER-LIGAND FREE ENERGY PREDICTED BY IDOCK:   -4.82 KCAL/MOL
REMARK 924 INTRA-LIGAND FREE ENERGY PREDICTED BY IDOCK:    0.16 KCAL/MOL
REMARK 927      BINDING AFFINITY PREDICTED BY RF-SCORE:    0.00 PKD
ROOT
HETATM    1  C   UNL     1      -8.524   4.770  65.021  1.00  0.00    -0.137 C  
HETATM    2  O   UNL     1      -8.340   5.074  66.403  1.00  0.00    -0.108 OA 
ENDROOT
BRANCH   2   3
HETATM    3  C   UNL     1      -9.075   6.140  66.852  1.00  0.00    -0.127 A  
HETATM    4  C   UNL     1      -8.936   7.335  66.133  1.00  0.00    -0.179 A  
HETATM    5  C   UNL     1      -9.605   8.530  66.512  1.00  0.00    -0.303 A  
HETATM    6  C   UNL     1     -10.450   8.447  67.651  1.00  0.00    -0.307 A  
HETATM    7  C   UNL     1     -11.123   9.580  68.120  1.00  0.00    -0.052 A  
HETATM    8  C   UNL     1     -10.631   7.231  68.322  1.00  0.00    -0.217 A  
HETATM    9  C   UNL     1     -10.977  10.806  67.486  1.00  0.00    -0.372 A  
HETATM   10  C   UNL     1      -9.950   6.083  67.927  1.00  0.00    -0.151 A  
HETATM   11  C   UNL     1     -10.177  10.906  66.352  1.00  0.00    -0.289 A  
HETATM   12  C   UNL     1      -9.480   9.792  65.844  1.00  0.00    -0.285 A  
BRANCH  12  13
HETATM   13  C   UNL     1      -8.700   9.929  64.538  1.00  0.00    -0.219 C  
BRANCH  13  14
HETATM   14  C   UNL     1      -9.174  11.023  63.568  1.00  0.00    -0.221 C  
BRANCH  14  15
HETATM   15  N   UNL     1     -10.622  11.080  63.426  1.00  0.00    -0.657 N  
HETATM   16  C   UNL     1     -11.327  12.249  63.592  1.00  0.00    -0.470 C  
HETATM   17  H   UNL     1     -11.130  10.226  63.196  1.00  0.00     0.000 HD 
HETATM   18  C   UNL     1     -12.822  12.089  63.496  1.00  0.00    -0.472 C  
HETATM   19  O   UNL     1     -10.806  13.340  63.792  1.00  0.00    -0.259 OA 
ENDBRANCH  14  15
ENDBRANCH  13  14
ENDBRANCH  12  13
ENDBRANCH   2   3
TORSDOF 4
ENDMDL
MODEL      184
REMARK 921   NORMALIZED FREE ENERGY PREDICTED BY IDOCK:   -3.41 KCAL/MOL
REMARK 922        TOTAL FREE ENERGY PREDICTED BY IDOCK:   -4.65 KCAL/MOL
REMARK 923 INTER-LIGAND FREE ENERGY PREDICTED BY IDOCK:   -4.02 KCAL/MOL
REMARK 924 INTRA-LIGAND FREE ENERGY PREDICTED BY IDOCK:   -0.63 KCAL/MOL
REMARK 927      BINDING AFFINITY PREDICTED BY RF-SCORE:    0.00 PKD
ROOT
HETATM    1  C   UNL     1     -13.239  11.324  71.807  1.00  0.00    -0.375 C  
HETATM    2  O   UNL     1     -12.957  10.244  70.917  1.00  0.00    -0.367 OA 
ENDROOT
BRANCH   2   3
HETATM    3  C   UNL     1     -11.908  10.471  70.065  1.00  0.00    -0.308 A  
HETATM    4  C   UNL     1     -10.666   9.960  70.461  1.00  0.00    -0.382 A  
HETATM    5  C   UNL     1      -9.485  10.159  69.695  1.00  0.00    -0.226 A  
HETATM    6  C   UNL     1      -9.633  10.886  68.483  1.00  0.00    -0.187 A  
HETATM    7  C   UNL     1      -8.521  11.161  67.680  1.00  0.00    -0.122 A  
HETATM    8  C   UNL     1     -10.893  11.335  68.066  1.00  0.00    -0.266 A  
HETATM    9  C   UNL     1      -7.254  10.733  68.050  1.00  0.00    -0.086 A  
HETATM   10  C   UNL     1     -12.025  11.130  68.849  1.00  0.00    -0.367 A  
HETATM   11  C   UNL     1      -7.088   9.996  69.219  1.00  0.00    -0.074 A  
HETATM   12  C   UNL     1      -8.178   9.695  70.059  1.00  0.00    -0.197 A  
BRANCH  12  13
HETATM   13  C   UNL     1      -7.962   8.795  71.273  1.00  0.00    -0.176 C  
BRANCH  13  14
HETATM   14  C   UNL     1      -7.701   7.307  70.985  1.00  0.00    -0.089 C  
BRANCH  14  15
HETATM   15  N   UNL     1      -8.918   6.543  70.753  1.00  0.00    -0.144 N  
HETATM   16  C   UNL     1      -9.428   6.345  69.491  1.00  0.00    -0.145 C  
HETATM   17  H   UNL     1      -9.408   6.140  71.552  1.00  0.00     0.000 HD 
HETATM   18  C   UNL     1     -10.741   5.608  69.462  1.00  0.00    -0.380 C  
HETATM   19  O   UNL     1      -8.875   6.720  68.463  1.00  0.00    -0.124 OA 
ENDBRANCH  14  15
ENDBRANCH  13  14
ENDBRANCH  12  13
ENDBRANCH   2   3
TORSDOF 4
ENDMDL
MODEL      185
REMARK 921   NORMALIZED FREE ENERGY PREDICTED BY IDOCK:   -3.41 KCAL/MOL
REMARK 922        TOTAL FREE ENERGY PREDICTED BY IDOCK:   -4.65 KCAL/MOL
REMARK 923 INTER-LIGAND FREE ENERGY PREDICTED BY IDOCK:   -4.27 KCAL/MOL
REMARK 924 INTRA-LIGAND FREE ENERGY PREDICTED BY IDOCK:   -0.38 KCAL/MOL
REMARK 927      BINDING AFFINITY PREDICTED BY RF-SCORE:    0.00 PKD
ROOT
HETATM    1  C   UNL     1     -11.088  14.039  65.969  1.00  0.00    -0.303 C  
HETATM    2  O   UNL     1     -10.173  13.042  66.425  1.00  0.00    -0.267 OA 
ENDROOT
BRANCH   2   3
HETATM    3  C   UNL     1     -10.565  12.393  67.566  1.00  0.00    -0.219 A  
HETATM    4  C   UNL     1      -9.660  11.460  68.089  1.00  0.00    -0.190 A  
HETATM    5  C   UNL     1      -9.954  10.683  69.243  1.00  0.00    -0.215 A  
HETATM    6  C   UNL     1     -11.211  10.921  69.861  1.00  0.00    -0.355 A  
HETATM    7  C   UNL     1     -11.602  10.180  70.982  1.00  0.00    -0.462 A  
HETATM    8  C   UNL     1     -12.078  11.903  69.366  1.00  0.00    -0.277 A  
HETATM    9  C   UNL     1     -10.775   9.199  71.509  1.00  0.00    -0.437 A  
HETATM   10  C   UNL     1     -11.760  12.637  68.227  1.00  0.00    -0.389 A  
HETATM   11  C   UNL     1      -9.528   8.967  70.937  1.00  0.00    -0.331 A  
HETATM   12  C   UNL     1      -9.091   9.688  69.808  1.00  0.00    -0.232 A  
BRANCH  12  13
HETATM   13  C   UNL     1      -7.674   9.470  69.283  1.00  0.00    -0.086 C  
BRANCH  13  14
HETATM   14  C   UNL     1      -7.540   8.651  67.989  1.00  0.00    -0.098 C  
BRANCH  14  15
HETATM   15  N   UNL     1      -6.626   9.243  67.024  1.00  0.00    -0.067 N  
HETATM   16  C   UNL     1      -7.032   9.615  65.764  1.00  0.00    -0.098 C  
HETATM   17  H   UNL     1      -5.651   9.387  67.291  1.00  0.00     0.000 HD 
HETATM   18  C   UNL     1      -5.923  10.123  64.880  1.00  0.00    -0.124 C  
HETATM   19  O   UNL     1      -8.193   9.556  65.374  1.00  0.00    -0.119 OA 
ENDBRANCH  14  15
ENDBRANCH  13  14
ENDBRANCH  12  13
ENDBRANCH   2   3
TORSDOF 4
ENDMDL
MODEL      186
REMARK 921   NORMALIZED FREE ENERGY PREDICTED BY IDOCK:   -3.41 KCAL/MOL
REMARK 922        TOTAL FREE ENERGY PREDICTED BY IDOCK:   -4.64 KCAL/MOL
REMARK 923 INTER-LIGAND FREE ENERGY PREDICTED BY IDOCK:   -4.42 KCAL/MOL
REMARK 924 INTRA-LIGAND FREE ENERGY PREDICTED BY IDOCK:   -0.22 KCAL/MOL
REMARK 927      BINDING AFFINITY PREDICTED BY RF-SCORE:    0.00 PKD
ROOT
HETATM    1  C   UNL     1      -5.929  13.061  69.257  1.00  0.00    -0.093 C  
HETATM    2  O   UNL     1      -5.946  11.991  68.312  1.00  0.00    -0.049 OA 
ENDROOT
BRANCH   2   3
HETATM    3  C   UNL     1      -7.122  11.865  67.620  1.00  0.00    -0.112 A  
HETATM    4  C   UNL     1      -8.139  12.767  67.959  1.00  0.00    -0.162 A  
HETATM    5  C   UNL     1      -9.424  12.723  67.353  1.00  0.00    -0.190 A  
HETATM    6  C   UNL     1      -9.620  11.728  66.359  1.00  0.00    -0.234 A  
HETATM    7  C   UNL     1     -10.862  11.586  65.731  1.00  0.00    -0.319 A  
HETATM    8  C   UNL     1      -8.574  10.874  65.983  1.00  0.00    -0.179 A  
HETATM    9  C   UNL     1     -11.926  12.410  66.068  1.00  0.00    -0.419 A  
HETATM   10  C   UNL     1      -7.332  10.941  66.607  1.00  0.00    -0.139 A  
HETATM   11  C   UNL     1     -11.751  13.410  67.019  1.00  0.00    -0.426 A  
HETATM   12  C   UNL     1     -10.518  13.591  67.677  1.00  0.00    -0.239 A  
BRANCH  12  13
HETATM   13  C   UNL     1     -10.346  14.768  68.634  1.00  0.00    -0.245 C  
BRANCH  13  14
HETATM   14  C   UNL     1      -9.508  15.951  68.121  1.00  0.00    -0.203 C  
BRANCH  14  15
HETATM   15  N   UNL     1     -10.098  17.248  68.421  1.00  0.00    -0.311 N  
HETATM   16  C   UNL     1      -9.399  18.422  68.273  1.00  0.00    -0.326 C  
HETATM   17  H   UNL     1     -11.063  17.287  68.752  1.00  0.00     0.000 HD 
HETATM   18  C   UNL     1     -10.147  19.650  68.720  1.00  0.00    -0.532 C  
HETATM   19  O   UNL     1      -8.265  18.490  67.811  1.00  0.00    -0.246 OA 
ENDBRANCH  14  15
ENDBRANCH  13  14
ENDBRANCH  12  13
ENDBRANCH   2   3
TORSDOF 4
ENDMDL
MODEL      187
REMARK 921   NORMALIZED FREE ENERGY PREDICTED BY IDOCK:   -3.40 KCAL/MOL
REMARK 922        TOTAL FREE ENERGY PREDICTED BY IDOCK:   -4.64 KCAL/MOL
REMARK 923 INTER-LIGAND FREE ENERGY PREDICTED BY IDOCK:   -4.39 KCAL/MOL
REMARK 924 INTRA-LIGAND FREE ENERGY PREDICTED BY IDOCK:   -0.24 KCAL/MOL
REMARK 927      BINDING AFFINITY PREDICTED BY RF-SCORE:    0.00 PKD
ROOT
HETATM    1  C   UNL     1      -5.144  18.381  70.073  1.00  0.00    -0.207 C  
HETATM    2  O   UNL     1      -5.135  17.234  69.224  1.00  0.00    -0.144 OA 
ENDROOT
BRANCH   2   3
HETATM    3  C   UNL     1      -6.146  17.206  68.299  1.00  0.00    -0.143 A  
HETATM    4  C   UNL     1      -7.430  16.940  68.793  1.00  0.00    -0.237 A  
HETATM    5  C   UNL     1      -8.564  16.838  67.941  1.00  0.00    -0.202 A  
HETATM    6  C   UNL     1      -8.334  17.048  66.555  1.00  0.00    -0.313 A  
HETATM    7  C   UNL     1      -9.383  16.935  65.636  1.00  0.00     0.191 A  
HETATM    8  C   UNL     1      -7.057  17.378  66.083  1.00  0.00    -0.320 A  
HETATM    9  C   UNL     1     -10.664  16.614  66.058  1.00  0.00    -0.153 A  
HETATM   10  C   UNL     1      -5.968  17.458  66.946  1.00  0.00    -0.206 A  
HETATM   11  C   UNL     1     -10.920  16.431  67.413  1.00  0.00    -0.145 A  
HETATM   12  C   UNL     1      -9.896  16.534  68.375  1.00  0.00    -0.237 A  
BRANCH  12  13
HETATM   13  C   UNL     1     -10.247  16.430  69.857  1.00  0.00    -0.045 C  
BRANCH  13  14
HETATM   14  C   UNL     1     -11.636  15.863  70.195  1.00  0.00    -0.351 C  
BRANCH  14  15
HETATM   15  N   UNL     1     -12.042  16.115  71.570  1.00  0.00    -0.616 N  
HETATM   16  C   UNL     1     -13.042  15.395  72.181  1.00  0.00    -0.406 C  
HETATM   17  H   UNL     1     -11.569  16.848  72.098  1.00  0.00     0.000 HD 
HETATM   18  C   UNL     1     -13.380  15.862  73.572  1.00  0.00    -0.516 C  
HETATM   19  O   UNL     1     -13.617  14.445  71.661  1.00  0.00    -0.343 OA 
ENDBRANCH  14  15
ENDBRANCH  13  14
ENDBRANCH  12  13
ENDBRANCH   2   3
TORSDOF 4
ENDMDL
MODEL      188
REMARK 921   NORMALIZED FREE ENERGY PREDICTED BY IDOCK:   -3.36 KCAL/MOL
REMARK 922        TOTAL FREE ENERGY PREDICTED BY IDOCK:   -4.58 KCAL/MOL
REMARK 923 INTER-LIGAND FREE ENERGY PREDICTED BY IDOCK:   -4.10 KCAL/MOL
REMARK 924 INTRA-LIGAND FREE ENERGY PREDICTED BY IDOCK:   -0.48 KCAL/MOL
REMARK 927      BINDING AFFINITY PREDICTED BY RF-SCORE:    0.00 PKD
ROOT
HETATM    1  C   UNL     1     -10.741   6.069  69.467  1.00  0.00    -0.335 C  
HETATM    2  O   UNL     1     -10.704   5.756  68.074  1.00  0.00    -0.242 OA 
ENDROOT
BRANCH   2   3
HETATM    3  C   UNL     1     -10.234   6.768  67.278  1.00  0.00    -0.210 A  
HETATM    4  C   UNL     1     -10.708   8.054  67.567  1.00  0.00    -0.238 A  
HETATM    5  C   UNL     1     -10.338   9.189  66.795  1.00  0.00    -0.308 A  
HETATM    6  C   UNL     1      -9.433   8.958  65.725  1.00  0.00    -0.272 A  
HETATM    7  C   UNL     1      -9.038  10.008  64.890  1.00  0.00    -0.265 A  
HETATM    8  C   UNL     1      -8.916   7.678  65.488  1.00  0.00     0.042 A  
HETATM    9  C   UNL     1      -9.522  11.293  65.088  1.00  0.00    -0.242 A  
HETATM   10  C   UNL     1      -9.311   6.588  66.258  1.00  0.00    -0.144 A  
HETATM   11  C   UNL     1     -10.387  11.550  66.146  1.00  0.00    -0.287 A  
HETATM   12  C   UNL     1     -10.812  10.524  67.014  1.00  0.00    -0.288 A  
BRANCH  12  13
HETATM   13  C   UNL     1     -11.676  10.875  68.222  1.00  0.00    -0.259 C  
BRANCH  13  14
HETATM   14  C   UNL     1     -10.933  11.345  69.484  1.00  0.00    -0.166 C  
BRANCH  14  15
HETATM   15  N   UNL     1     -10.231  10.271  70.173  1.00  0.00    -0.424 N  
HETATM   16  C   UNL     1      -8.916   9.970  69.910  1.00  0.00    -0.146 C  
HETATM   17  H   UNL     1     -10.732   9.725  70.874  1.00  0.00     0.000 HD 
HETATM   18  C   UNL     1      -8.394   8.770  70.656  1.00  0.00    -0.173 C  
HETATM   19  O   UNL     1      -8.206  10.614  69.145  1.00  0.00    -0.146 OA 
ENDBRANCH  14  15
ENDBRANCH  13  14
ENDBRANCH  12  13
ENDBRANCH   2   3
TORSDOF 4
ENDMDL
MODEL      189
REMARK 921   NORMALIZED FREE ENERGY PREDICTED BY IDOCK:   -3.36 KCAL/MOL
REMARK 922        TOTAL FREE ENERGY PREDICTED BY IDOCK:   -4.58 KCAL/MOL
REMARK 923 INTER-LIGAND FREE ENERGY PREDICTED BY IDOCK:   -4.24 KCAL/MOL
REMARK 924 INTRA-LIGAND FREE ENERGY PREDICTED BY IDOCK:   -0.34 KCAL/MOL
REMARK 927      BINDING AFFINITY PREDICTED BY RF-SCORE:    0.00 PKD
ROOT
HETATM    1  C   UNL     1      -9.721   3.933  64.879  1.00  0.00    -0.188 C  
HETATM    2  O   UNL     1      -9.030   3.370  65.995  1.00  0.00    -0.130 OA 
ENDROOT
BRANCH   2   3
HETATM    3  C   UNL     1      -9.331   3.951  67.199  1.00  0.00    -0.191 A  
HETATM    4  C   UNL     1      -9.741   5.290  67.156  1.00  0.00    -0.165 A  
HETATM    5  C   UNL     1     -10.043   6.029  68.332  1.00  0.00    -0.198 A  
HETATM    6  C   UNL     1      -9.934   5.329  69.563  1.00  0.00    -0.297 A  
HETATM    7  C   UNL     1     -10.178   5.983  70.776  1.00  0.00    -0.258 A  
HETATM    8  C   UNL     1      -9.587   3.972  69.588  1.00  0.00    -0.270 A  
HETATM    9  C   UNL     1     -10.528   7.325  70.801  1.00  0.00    -0.224 A  
HETATM   10  C   UNL     1      -9.288   3.284  68.415  1.00  0.00    -0.241 A  
HETATM   11  C   UNL     1     -10.667   8.024  69.607  1.00  0.00    -0.207 A  
HETATM   12  C   UNL     1     -10.432   7.408  68.362  1.00  0.00    -0.220 A  
BRANCH  12  13
HETATM   13  C   UNL     1     -10.701   8.188  67.077  1.00  0.00    -0.247 C  
BRANCH  13  14
HETATM   14  C   UNL     1      -9.751   9.358  66.773  1.00  0.00    -0.198 C  
BRANCH  14  15
HETATM   15  N   UNL     1     -10.433  10.639  66.659  1.00  0.00    -0.244 N  
HETATM   16  C   UNL     1     -10.655  11.245  65.444  1.00  0.00    -0.250 C  
HETATM   17  H   UNL     1     -10.757  11.103  67.508  1.00  0.00     0.000 HD 
HETATM   18  C   UNL     1     -11.291  12.606  65.538  1.00  0.00    -0.356 C  
HETATM   19  O   UNL     1     -10.375  10.735  64.365  1.00  0.00    -0.353 OA 
ENDBRANCH  14  15
ENDBRANCH  13  14
ENDBRANCH  12  13
ENDBRANCH   2   3
TORSDOF 4
ENDMDL
MODEL      190
REMARK 921   NORMALIZED FREE ENERGY PREDICTED BY IDOCK:   -3.31 KCAL/MOL
REMARK 922        TOTAL FREE ENERGY PREDICTED BY IDOCK:   -4.52 KCAL/MOL
REMARK 923 INTER-LIGAND FREE ENERGY PREDICTED BY IDOCK:   -4.53 KCAL/MOL
REMARK 924 INTRA-LIGAND FREE ENERGY PREDICTED BY IDOCK:    0.01 KCAL/MOL
REMARK 927      BINDING AFFINITY PREDICTED BY RF-SCORE:    0.00 PKD
ROOT
HETATM    1  C   UNL     1      -8.079   5.381  65.391  1.00  0.00    -0.120 C  
HETATM    2  O   UNL     1      -7.310   6.577  65.262  1.00  0.00    -0.071 OA 
ENDROOT
BRANCH   2   3
HETATM    3  C   UNL     1      -8.055   7.724  65.189  1.00  0.00    -0.137 A  
HETATM    4  C   UNL     1      -8.619   8.173  66.391  1.00  0.00    -0.150 A  
HETATM    5  C   UNL     1      -9.451   9.325  66.453  1.00  0.00    -0.277 A  
HETATM    6  C   UNL     1      -9.661  10.020  65.233  1.00  0.00    -0.355 A  
HETATM    7  C   UNL     1     -10.491  11.145  65.191  1.00  0.00    -0.341 A  
HETATM    8  C   UNL     1      -9.037   9.598  64.051  1.00  0.00    -0.246 A  
HETATM    9  C   UNL     1     -11.127  11.602  66.336  1.00  0.00    -0.347 A  
HETATM   10  C   UNL     1      -8.238   8.459  64.027  1.00  0.00    -0.115 A  
HETATM   11  C   UNL     1     -10.915  10.954  67.548  1.00  0.00    -0.352 A  
HETATM   12  C   UNL     1     -10.087   9.817  67.640  1.00  0.00    -0.236 A  
BRANCH  12  13
HETATM   13  C   UNL     1      -9.803   9.206  69.009  1.00  0.00    -0.176 C  
BRANCH  13  14
HETATM   14  C   UNL     1     -11.021   8.717  69.809  1.00  0.00    -0.127 C  
BRANCH  14  15
HETATM   15  N   UNL     1     -11.895   9.796  70.247  1.00  0.00    -0.431 N  
HETATM   16  C   UNL     1     -12.504   9.790  71.479  1.00  0.00    -0.403 C  
HETATM   17  H   UNL     1     -12.060  10.583  69.619  1.00  0.00     0.000 HD 
HETATM   18  C   UNL     1     -13.441  10.946  71.713  1.00  0.00    -0.283 C  
HETATM   19  O   UNL     1     -12.311   8.932  72.334  1.00  0.00    -0.367 OA 
ENDBRANCH  14  15
ENDBRANCH  13  14
ENDBRANCH  12  13
ENDBRANCH   2   3
TORSDOF 4
ENDMDL
MODEL      191
REMARK 921   NORMALIZED FREE ENERGY PREDICTED BY IDOCK:   -3.31 KCAL/MOL
REMARK 922        TOTAL FREE ENERGY PREDICTED BY IDOCK:   -4.52 KCAL/MOL
REMARK 923 INTER-LIGAND FREE ENERGY PREDICTED BY IDOCK:   -4.20 KCAL/MOL
REMARK 924 INTRA-LIGAND FREE ENERGY PREDICTED BY IDOCK:   -0.32 KCAL/MOL
REMARK 927      BINDING AFFINITY PREDICTED BY RF-SCORE:    0.00 PKD
ROOT
HETATM    1  C   UNL     1      -6.086   7.509  67.796  1.00  0.00    -0.044 C  
HETATM    2  O   UNL     1      -7.497   7.730  67.780  1.00  0.00    -0.099 OA 
ENDROOT
BRANCH   2   3
HETATM    3  C   UNL     1      -7.965   8.317  66.633  1.00  0.00    -0.098 A  
HETATM    4  C   UNL     1      -8.708   9.493  66.800  1.00  0.00    -0.138 A  
HETATM    5  C   UNL     1      -9.290  10.183  65.701  1.00  0.00    -0.250 A  
HETATM    6  C   UNL     1      -9.057   9.631  64.413  1.00  0.00    -0.279 A  
HETATM    7  C   UNL     1      -9.618  10.222  63.276  1.00  0.00    -0.305 A  
HETATM    8  C   UNL     1      -8.258   8.492  64.256  1.00  0.00    -0.147 A  
HETATM    9  C   UNL     1     -10.414  11.353  63.383  1.00  0.00    -0.452 A  
HETATM   10  C   UNL     1      -7.713   7.837  65.356  1.00  0.00    -0.106 A  
HETATM   11  C   UNL     1     -10.634  11.927  64.630  1.00  0.00    -0.353 A  
HETATM   12  C   UNL     1     -10.090  11.368  65.803  1.00  0.00    -0.289 A  
BRANCH  12  13
HETATM   13  C   UNL     1     -10.272  12.095  67.134  1.00  0.00    -0.226 C  
BRANCH  13  14
HETATM   14  C   UNL     1     -11.703  12.155  67.692  1.00  0.00    -0.316 C  
BRANCH  14  15
HETATM   15  N   UNL     1     -11.821  12.972  68.891  1.00  0.00    -0.317 N  
HETATM   16  C   UNL     1     -12.052  12.423  70.130  1.00  0.00    -0.290 C  
HETATM   17  H   UNL     1     -11.727  13.985  68.810  1.00  0.00     0.000 HD 
HETATM   18  C   UNL     1     -12.233  13.434  71.232  1.00  0.00    -0.163 C  
HETATM   19  O   UNL     1     -12.103  11.217  70.346  1.00  0.00    -0.332 OA 
ENDBRANCH  14  15
ENDBRANCH  13  14
ENDBRANCH  12  13
ENDBRANCH   2   3
TORSDOF 4
ENDMDL
MODEL      192
REMARK 921   NORMALIZED FREE ENERGY PREDICTED BY IDOCK:   -3.29 KCAL/MOL
REMARK 922        TOTAL FREE ENERGY PREDICTED BY IDOCK:   -4.50 KCAL/MOL
REMARK 923 INTER-LIGAND FREE ENERGY PREDICTED BY IDOCK:   -4.33 KCAL/MOL
REMARK 924 INTRA-LIGAND FREE ENERGY PREDICTED BY IDOCK:   -0.17 KCAL/MOL
REMARK 927      BINDING AFFINITY PREDICTED BY RF-SCORE:    0.00 PKD
ROOT
HETATM    1  C   UNL     1      -7.242   5.562  68.766  1.00  0.00    -0.070 C  
HETATM    2  O   UNL     1      -8.467   6.180  68.372  1.00  0.00    -0.113 OA 
ENDROOT
BRANCH   2   3
HETATM    3  C   UNL     1      -8.404   6.854  67.180  1.00  0.00    -0.121 A  
HETATM    4  C   UNL     1      -9.128   8.052  67.107  1.00  0.00    -0.159 A  
HETATM    5  C   UNL     1      -9.186   8.831  65.919  1.00  0.00    -0.282 A  
HETATM    6  C   UNL     1      -8.447   8.345  64.808  1.00  0.00    -0.120 A  
HETATM    7  C   UNL     1      -8.472   9.026  63.586  1.00  0.00    -0.173 A  
HETATM    8  C   UNL     1      -7.675   7.181  64.915  1.00  0.00    -0.117 A  
HETATM    9  C   UNL     1      -9.219  10.185  63.435  1.00  0.00    -0.324 A  
HETATM   10  C   UNL     1      -7.651   6.439  66.092  1.00  0.00    -0.090 A  
HETATM   11  C   UNL     1      -9.929  10.695  64.516  1.00  0.00    -0.410 A  
HETATM   12  C   UNL     1      -9.934  10.044  65.766  1.00  0.00    -0.346 A  
BRANCH  12  13
HETATM   13  C   UNL     1     -10.642  10.699  66.949  1.00  0.00    -0.311 C  
BRANCH  13  14
HETATM   14  C   UNL     1     -11.545  11.902  66.628  1.00  0.00    -0.264 C  
BRANCH  14  15
HETATM   15  N   UNL     1     -10.814  13.155  66.509  1.00  0.00    -0.278 N  
HETATM   16  C   UNL     1     -11.322  14.237  65.829  1.00  0.00    -0.326 C  
HETATM   17  H   UNL     1      -9.895  13.234  66.945  1.00  0.00     0.000 HD 
HETATM   18  C   UNL     1     -10.381  15.409  65.738  1.00  0.00    -0.381 C  
HETATM   19  O   UNL     1     -12.445  14.270  65.338  1.00  0.00    -0.443 OA 
ENDBRANCH  14  15
ENDBRANCH  13  14
ENDBRANCH  12  13
ENDBRANCH   2   3
TORSDOF 4
ENDMDL
MODEL      193
REMARK 921   NORMALIZED FREE ENERGY PREDICTED BY IDOCK:   -3.27 KCAL/MOL
REMARK 922        TOTAL FREE ENERGY PREDICTED BY IDOCK:   -4.47 KCAL/MOL
REMARK 923 INTER-LIGAND FREE ENERGY PREDICTED BY IDOCK:   -4.81 KCAL/MOL
REMARK 924 INTRA-LIGAND FREE ENERGY PREDICTED BY IDOCK:    0.34 KCAL/MOL
REMARK 927      BINDING AFFINITY PREDICTED BY RF-SCORE:    0.00 PKD
ROOT
HETATM    1  C   UNL     1      -5.679  11.235  69.423  1.00  0.00    -0.049 C  
HETATM    2  O   UNL     1      -6.880  12.005  69.369  1.00  0.00    -0.098 OA 
ENDROOT
BRANCH   2   3
HETATM    3  C   UNL     1      -7.637  11.795  68.246  1.00  0.00    -0.122 A  
HETATM    4  C   UNL     1      -8.930  12.336  68.261  1.00  0.00    -0.182 A  
HETATM    5  C   UNL     1      -9.838  12.157  67.181  1.00  0.00    -0.205 A  
HETATM    6  C   UNL     1      -9.358  11.421  66.066  1.00  0.00    -0.235 A  
HETATM    7  C   UNL     1     -10.191  11.165  64.972  1.00  0.00    -0.354 A  
HETATM    8  C   UNL     1      -8.042  10.941  66.037  1.00  0.00    -0.142 A  
HETATM    9  C   UNL     1     -11.500  11.623  64.954  1.00  0.00    -0.205 A  
HETATM   10  C   UNL     1      -7.184  11.126  67.118  1.00  0.00    -0.120 A  
HETATM   11  C   UNL     1     -11.985  12.370  66.023  1.00  0.00    -0.419 A  
HETATM   12  C   UNL     1     -11.183  12.652  67.146  1.00  0.00    -0.348 A  
BRANCH  12  13
HETATM   13  C   UNL     1     -11.725  13.565  68.244  1.00  0.00    -0.394 C  
BRANCH  13  14
HETATM   14  C   UNL     1     -10.728  14.554  68.869  1.00  0.00    -0.254 C  
BRANCH  14  15
HETATM   15  N   UNL     1     -10.770  14.573  70.324  1.00  0.00    -0.459 N  
HETATM   16  C   UNL     1     -11.725  15.276  71.019  1.00  0.00    -0.348 C  
HETATM   17  H   UNL     1     -10.068  14.047  70.845  1.00  0.00     0.000 HD 
HETATM   18  C   UNL     1     -11.549  15.249  72.514  1.00  0.00    -0.498 C  
HETATM   19  O   UNL     1     -12.655  15.875  70.489  1.00  0.00    -0.377 OA 
ENDBRANCH  14  15
ENDBRANCH  13  14
ENDBRANCH  12  13
ENDBRANCH   2   3
TORSDOF 4
ENDMDL
MODEL      194
REMARK 921   NORMALIZED FREE ENERGY PREDICTED BY IDOCK:   -3.26 KCAL/MOL
REMARK 922        TOTAL FREE ENERGY PREDICTED BY IDOCK:   -4.46 KCAL/MOL
REMARK 923 INTER-LIGAND FREE ENERGY PREDICTED BY IDOCK:   -4.18 KCAL/MOL
REMARK 924 INTRA-LIGAND FREE ENERGY PREDICTED BY IDOCK:   -0.28 KCAL/MOL
REMARK 927      BINDING AFFINITY PREDICTED BY RF-SCORE:    0.00 PKD
ROOT
HETATM    1  C   UNL     1     -11.105  14.037  65.996  1.00  0.00    -0.303 C  
HETATM    2  O   UNL     1     -10.232  13.022  66.491  1.00  0.00    -0.258 OA 
ENDROOT
BRANCH   2   3
HETATM    3  C   UNL     1     -10.682  12.390  67.621  1.00  0.00    -0.221 A  
HETATM    4  C   UNL     1      -9.815  11.447  68.190  1.00  0.00    -0.195 A  
HETATM    5  C   UNL     1     -10.171  10.687  69.338  1.00  0.00    -0.218 A  
HETATM    6  C   UNL     1     -11.448  10.951  69.900  1.00  0.00    -0.402 A  
HETATM    7  C   UNL     1     -11.899  10.227  71.010  1.00  0.00    -0.472 A  
HETATM    8  C   UNL     1     -12.278  11.941  69.360  1.00  0.00    -0.185 A  
HETATM    9  C   UNL     1     -11.110   9.239  71.580  1.00  0.00    -0.438 A  
HETATM   10  C   UNL     1     -11.900  12.659  68.229  1.00  0.00    -0.354 A  
HETATM   11  C   UNL     1      -9.844   8.981  71.064  1.00  0.00    -0.352 A  
HETATM   12  C   UNL     1      -9.348   9.684  69.948  1.00  0.00    -0.256 A  
BRANCH  12  13
HETATM   13  C   UNL     1      -7.914   9.439  69.486  1.00  0.00    -0.098 C  
BRANCH  13  14
HETATM   14  C   UNL     1      -7.740   8.648  68.179  1.00  0.00    -0.102 C  
BRANCH  14  15
HETATM   15  N   UNL     1      -8.193   7.268  68.276  1.00  0.00    -0.124 N  
HETATM   16  C   UNL     1      -7.359   6.205  68.023  1.00  0.00    -0.088 C  
HETATM   17  H   UNL     1      -9.161   7.084  68.540  1.00  0.00     0.000 HD 
HETATM   18  C   UNL     1      -8.033   4.860  68.086  1.00  0.00    -0.086 C  
HETATM   19  O   UNL     1      -6.163   6.317  67.775  1.00  0.00    -0.029 OA 
ENDBRANCH  14  15
ENDBRANCH  13  14
ENDBRANCH  12  13
ENDBRANCH   2   3
TORSDOF 4
ENDMDL
MODEL      195
REMARK 921   NORMALIZED FREE ENERGY PREDICTED BY IDOCK:   -3.26 KCAL/MOL
REMARK 922        TOTAL FREE ENERGY PREDICTED BY IDOCK:   -4.45 KCAL/MOL
REMARK 923 INTER-LIGAND FREE ENERGY PREDICTED BY IDOCK:   -3.85 KCAL/MOL
REMARK 924 INTRA-LIGAND FREE ENERGY PREDICTED BY IDOCK:   -0.60 KCAL/MOL
REMARK 927      BINDING AFFINITY PREDICTED BY RF-SCORE:    0.00 PKD
ROOT
HETATM    1  C   UNL     1      -8.861   2.667  65.910  1.00  0.00    -0.135 C  
HETATM    2  O   UNL     1      -8.227   2.376  67.156  1.00  0.00    -0.077 OA 
ENDROOT
BRANCH   2   3
HETATM    3  C   UNL     1      -8.789   3.002  68.238  1.00  0.00    -0.123 A  
HETATM    4  C   UNL     1      -9.515   4.170  67.968  1.00  0.00    -0.215 A  
HETATM    5  C   UNL     1     -10.115   4.944  69.000  1.00  0.00    -0.210 A  
HETATM    6  C   UNL     1      -9.964   4.456  70.325  1.00  0.00    -0.248 A  
HETATM    7  C   UNL     1     -10.490   5.169  71.408  1.00  0.00    -0.249 A  
HETATM    8  C   UNL     1      -9.291   3.253  70.574  1.00  0.00    -0.228 A  
HETATM    9  C   UNL     1     -11.167   6.364  71.210  1.00  0.00    -0.346 A  
HETATM   10  C   UNL     1      -8.708   2.528  69.539  1.00  0.00    -0.129 A  
HETATM   11  C   UNL     1     -11.351   6.847  69.919  1.00  0.00    -0.321 A  
HETATM   12  C   UNL     1     -10.839   6.165  68.798  1.00  0.00    -0.402 A  
BRANCH  12  13
HETATM   13  C   UNL     1     -11.159   6.679  67.397  1.00  0.00    -0.398 C  
BRANCH  13  14
HETATM   14  C   UNL     1     -10.471   7.987  66.973  1.00  0.00    -0.340 C  
BRANCH  14  15
HETATM   15  N   UNL     1      -9.101   8.099  67.453  1.00  0.00    -0.133 N  
HETATM   16  C   UNL     1      -8.050   7.482  66.817  1.00  0.00    -0.123 C  
HETATM   17  H   UNL     1      -8.915   8.655  68.289  1.00  0.00     0.000 HD 
HETATM   18  C   UNL     1      -6.725   7.640  67.516  1.00  0.00    -0.068 C  
HETATM   19  O   UNL     1      -8.156   6.859  65.767  1.00  0.00    -0.109 OA 
ENDBRANCH  14  15
ENDBRANCH  13  14
ENDBRANCH  12  13
ENDBRANCH   2   3
TORSDOF 4
ENDMDL
MODEL      196
REMARK 921   NORMALIZED FREE ENERGY PREDICTED BY IDOCK:   -3.24 KCAL/MOL
REMARK 922        TOTAL FREE ENERGY PREDICTED BY IDOCK:   -4.44 KCAL/MOL
REMARK 923 INTER-LIGAND FREE ENERGY PREDICTED BY IDOCK:   -4.45 KCAL/MOL
REMARK 924 INTRA-LIGAND FREE ENERGY PREDICTED BY IDOCK:    0.02 KCAL/MOL
REMARK 927      BINDING AFFINITY PREDICTED BY RF-SCORE:    0.00 PKD
ROOT
HETATM    1  C   UNL     1     -10.953   6.283  66.891  1.00  0.00    -0.329 C  
HETATM    2  O   UNL     1      -9.659   6.522  66.337  1.00  0.00    -0.163 OA 
ENDROOT
BRANCH   2   3
HETATM    3  C   UNL     1      -9.045   7.656  66.801  1.00  0.00    -0.151 A  
HETATM    4  C   UNL     1      -9.662   8.871  66.474  1.00  0.00    -0.322 A  
HETATM    5  C   UNL     1      -9.110  10.126  66.852  1.00  0.00    -0.160 A  
HETATM    6  C   UNL     1      -7.908  10.087  67.606  1.00  0.00    -0.095 A  
HETATM    7  C   UNL     1      -7.274  11.272  67.994  1.00  0.00    -0.079 A  
HETATM    8  C   UNL     1      -7.337   8.864  67.982  1.00  0.00    -0.084 A  
HETATM    9  C   UNL     1      -7.803  12.507  67.648  1.00  0.00    -0.162 A  
HETATM   10  C   UNL     1      -7.900   7.655  67.584  1.00  0.00    -0.123 A  
HETATM   11  C   UNL     1      -8.994  12.571  66.933  1.00  0.00    -0.212 A  
HETATM   12  C   UNL     1      -9.669  11.405  66.521  1.00  0.00    -0.226 A  
BRANCH  12  13
HETATM   13  C   UNL     1     -11.025  11.527  65.832  1.00  0.00    -0.301 C  
BRANCH  13  14
HETATM   14  C   UNL     1     -11.991  12.580  66.400  1.00  0.00    -0.318 C  
BRANCH  14  15
HETATM   15  N   UNL     1     -11.561  13.949  66.156  1.00  0.00    -0.345 N  
HETATM   16  C   UNL     1     -11.882  14.621  65.000  1.00  0.00    -0.377 C  
HETATM   17  H   UNL     1     -11.004  14.425  66.865  1.00  0.00     0.000 HD 
HETATM   18  C   UNL     1     -11.270  15.993  64.891  1.00  0.00    -0.319 C  
HETATM   19  O   UNL     1     -12.609  14.167  64.123  1.00  0.00    -0.684 OA 
ENDBRANCH  14  15
ENDBRANCH  13  14
ENDBRANCH  12  13
ENDBRANCH   2   3
TORSDOF 4
ENDMDL
MODEL      197
REMARK 921   NORMALIZED FREE ENERGY PREDICTED BY IDOCK:   -3.23 KCAL/MOL
REMARK 922        TOTAL FREE ENERGY PREDICTED BY IDOCK:   -4.43 KCAL/MOL
REMARK 923 INTER-LIGAND FREE ENERGY PREDICTED BY IDOCK:   -4.13 KCAL/MOL
REMARK 924 INTRA-LIGAND FREE ENERGY PREDICTED BY IDOCK:   -0.30 KCAL/MOL
REMARK 927      BINDING AFFINITY PREDICTED BY RF-SCORE:    0.00 PKD
ROOT
HETATM    1  C   UNL     1      -8.306   4.644  69.295  1.00  0.00    -0.079 C  
HETATM    2  O   UNL     1      -8.663   5.629  68.324  1.00  0.00    -0.107 OA 
ENDROOT
BRANCH   2   3
HETATM    3  C   UNL     1      -9.230   6.761  68.848  1.00  0.00    -0.131 A  
HETATM    4  C   UNL     1     -10.152   6.569  69.885  1.00  0.00    -0.202 A  
HETATM    5  C   UNL     1     -10.847   7.651  70.491  1.00  0.00    -0.249 A  
HETATM    6  C   UNL     1     -10.539   8.951  70.007  1.00  0.00    -0.234 A  
HETATM    7  C   UNL     1     -11.198  10.074  70.518  1.00  0.00    -0.408 A  
HETATM    8  C   UNL     1      -9.567   9.134  69.014  1.00  0.00    -0.156 A  
HETATM    9  C   UNL     1     -12.165   9.942  71.504  1.00  0.00    -0.505 A  
HETATM   10  C   UNL     1      -8.914   8.049  68.437  1.00  0.00    -0.133 A  
HETATM   11  C   UNL     1     -12.464   8.682  72.013  1.00  0.00    -0.433 A  
HETATM   12  C   UNL     1     -11.827   7.523  71.529  1.00  0.00    -0.324 A  
BRANCH  12  13
HETATM   13  C   UNL     1     -12.113   6.178  72.193  1.00  0.00    -0.263 C  
BRANCH  13  14
HETATM   14  C   UNL     1     -11.038   5.646  73.155  1.00  0.00    -0.270 C  
BRANCH  14  15
HETATM   15  N   UNL     1     -10.301   4.508  72.624  1.00  0.00    -0.188 N  
HETATM   16  C   UNL     1     -10.348   3.266  73.212  1.00  0.00    -0.156 C  
HETATM   17  H   UNL     1      -9.732   4.636  71.787  1.00  0.00     0.000 HD 
HETATM   18  C   UNL     1      -9.448   2.243  72.572  1.00  0.00    -0.145 C  
HETATM   19  O   UNL     1     -11.060   2.990  74.172  1.00  0.00    -0.146 OA 
ENDBRANCH  14  15
ENDBRANCH  13  14
ENDBRANCH  12  13
ENDBRANCH   2   3
TORSDOF 4
ENDMDL
MODEL      198
REMARK 921   NORMALIZED FREE ENERGY PREDICTED BY IDOCK:   -3.23 KCAL/MOL
REMARK 922        TOTAL FREE ENERGY PREDICTED BY IDOCK:   -4.43 KCAL/MOL
REMARK 923 INTER-LIGAND FREE ENERGY PREDICTED BY IDOCK:   -4.12 KCAL/MOL
REMARK 924 INTRA-LIGAND FREE ENERGY PREDICTED BY IDOCK:   -0.31 KCAL/MOL
REMARK 927      BINDING AFFINITY PREDICTED BY RF-SCORE:    0.00 PKD
ROOT
HETATM    1  C   UNL     1      -7.423   4.945  71.047  1.00  0.00    -0.073 C  
HETATM    2  O   UNL     1      -7.269   6.068  70.180  1.00  0.00    -0.071 OA 
ENDROOT
BRANCH   2   3
HETATM    3  C   UNL     1      -8.188   7.065  70.375  1.00  0.00    -0.124 A  
HETATM    4  C   UNL     1      -8.874   7.506  69.236  1.00  0.00    -0.136 A  
HETATM    5  C   UNL     1      -9.823   8.564  69.285  1.00  0.00    -0.185 A  
HETATM    6  C   UNL     1     -10.064   9.138  70.562  1.00  0.00    -0.288 A  
HETATM    7  C   UNL     1     -10.956  10.207  70.703  1.00  0.00    -0.357 A  
HETATM    8  C   UNL     1      -9.419   8.644  71.703  1.00  0.00    -0.339 A  
HETATM    9  C   UNL     1     -11.620  10.727  69.602  1.00  0.00    -0.388 A  
HETATM   10  C   UNL     1      -8.487   7.614  71.614  1.00  0.00    -0.120 A  
HETATM   11  C   UNL     1     -11.422  10.164  68.346  1.00  0.00    -0.086 A  
HETATM   12  C   UNL     1     -10.534   9.087  68.155  1.00  0.00    -0.257 A  
BRANCH  12  13
HETATM   13  C   UNL     1     -10.431   8.435  66.778  1.00  0.00    -0.315 C  
BRANCH  13  14
HETATM   14  C   UNL     1      -9.345   8.984  65.839  1.00  0.00    -0.242 C  
BRANCH  14  15
HETATM   15  N   UNL     1      -9.818  10.054  64.973  1.00  0.00    -0.323 N  
HETATM   16  C   UNL     1      -9.285  10.276  63.725  1.00  0.00    -0.275 C  
HETATM   17  H   UNL     1     -10.571  10.659  65.302  1.00  0.00     0.000 HD 
HETATM   18  C   UNL     1      -9.842  11.484  63.019  1.00  0.00    -0.367 C  
HETATM   19  O   UNL     1      -8.434   9.561  63.208  1.00  0.00    -0.171 OA 
ENDBRANCH  14  15
ENDBRANCH  13  14
ENDBRANCH  12  13
ENDBRANCH   2   3
TORSDOF 4
ENDMDL
MODEL      199
REMARK 921   NORMALIZED FREE ENERGY PREDICTED BY IDOCK:   -3.23 KCAL/MOL
REMARK 922        TOTAL FREE ENERGY PREDICTED BY IDOCK:   -4.42 KCAL/MOL
REMARK 923 INTER-LIGAND FREE ENERGY PREDICTED BY IDOCK:   -4.11 KCAL/MOL
REMARK 924 INTRA-LIGAND FREE ENERGY PREDICTED BY IDOCK:   -0.31 KCAL/MOL
REMARK 927      BINDING AFFINITY PREDICTED BY RF-SCORE:    0.00 PKD
ROOT
HETATM    1  C   UNL     1      -8.404   5.051  66.534  1.00  0.00    -0.107 C  
HETATM    2  O   UNL     1      -7.670   4.066  67.261  1.00  0.00    -0.082 OA 
ENDROOT
BRANCH   2   3
HETATM    3  C   UNL     1      -8.093   3.880  68.551  1.00  0.00    -0.075 A  
HETATM    4  C   UNL     1      -9.135   4.711  68.986  1.00  0.00    -0.165 A  
HETATM    5  C   UNL     1      -9.643   4.657  70.313  1.00  0.00    -0.270 A  
HETATM    6  C   UNL     1      -9.056   3.692  71.175  1.00  0.00    -0.177 A  
HETATM    7  C   UNL     1      -9.468   3.589  72.508  1.00  0.00    -0.179 A  
HETATM    8  C   UNL     1      -8.061   2.824  70.708  1.00  0.00    -0.061 A  
HETATM    9  C   UNL     1     -10.452   4.425  73.014  1.00  0.00    -0.250 A  
HETATM   10  C   UNL     1      -7.581   2.914  69.405  1.00  0.00    -0.044 A  
HETATM   11  C   UNL     1     -11.061   5.358  72.181  1.00  0.00    -0.234 A  
HETATM   12  C   UNL     1     -10.680   5.499  70.832  1.00  0.00    -0.283 A  
BRANCH  12  13
HETATM   13  C   UNL     1     -11.449   6.463  69.933  1.00  0.00    -0.483 C  
BRANCH  13  14
HETATM   14  C   UNL     1     -10.914   7.902  69.853  1.00  0.00    -0.178 C  
BRANCH  14  15
HETATM   15  N   UNL     1     -11.844   8.893  70.375  1.00  0.00    -0.476 N  
HETATM   16  C   UNL     1     -11.540  10.234  70.413  1.00  0.00    -0.328 C  
HETATM   17  H   UNL     1     -12.751   8.583  70.724  1.00  0.00     0.000 HD 
HETATM   18  C   UNL     1     -12.590  11.089  71.072  1.00  0.00    -0.512 C  
HETATM   19  O   UNL     1     -10.512  10.715  69.949  1.00  0.00    -0.207 OA 
ENDBRANCH  14  15
ENDBRANCH  13  14
ENDBRANCH  12  13
ENDBRANCH   2   3
TORSDOF 4
ENDMDL
MODEL      200
REMARK 921   NORMALIZED FREE ENERGY PREDICTED BY IDOCK:   -3.20 KCAL/MOL
REMARK 922        TOTAL FREE ENERGY PREDICTED BY IDOCK:   -4.38 KCAL/MOL
REMARK 923 INTER-LIGAND FREE ENERGY PREDICTED BY IDOCK:   -4.11 KCAL/MOL
REMARK 924 INTRA-LIGAND FREE ENERGY PREDICTED BY IDOCK:   -0.27 KCAL/MOL
REMARK 927      BINDING AFFINITY PREDICTED BY RF-SCORE:    0.00 PKD
ROOT
HETATM    1  C   UNL     1      -6.728   1.695  71.069  1.00  0.00    -0.024 C  
HETATM    2  O   UNL     1      -8.029   2.269  71.201  1.00  0.00    -0.046 OA 
ENDROOT
BRANCH   2   3
HETATM    3  C   UNL     1      -8.512   2.847  70.057  1.00  0.00    -0.050 A  
HETATM    4  C   UNL     1      -8.971   4.166  70.175  1.00  0.00    -0.150 A  
HETATM    5  C   UNL     1      -9.538   4.872  69.080  1.00  0.00    -0.224 A  
HETATM    6  C   UNL     1      -9.592   4.179  67.841  1.00  0.00    -0.203 A  
HETATM    7  C   UNL     1     -10.165   4.781  66.715  1.00  0.00    -0.253 A  
HETATM    8  C   UNL     1      -9.071   2.884  67.721  1.00  0.00    -0.222 A  
HETATM    9  C   UNL     1     -10.690   6.063  66.786  1.00  0.00    -0.374 A  
HETATM   10  C   UNL     1      -8.533   2.220  68.819  1.00  0.00    -0.091 A  
HETATM   11  C   UNL     1     -10.623   6.772  67.980  1.00  0.00    -0.283 A  
HETATM   12  C   UNL     1     -10.057   6.207  69.140  1.00  0.00    -0.212 A  
BRANCH  12  13
HETATM   13  C   UNL     1      -9.911   7.063  70.396  1.00  0.00    -0.184 C  
BRANCH  13  14
HETATM   14  C   UNL     1     -10.932   8.198  70.575  1.00  0.00    -0.243 C  
BRANCH  14  15
HETATM   15  N   UNL     1     -12.262   7.726  70.931  1.00  0.00    -0.491 N  
HETATM   16  C   UNL     1     -13.053   8.385  71.843  1.00  0.00    -0.358 C  
HETATM   17  H   UNL     1     -12.620   6.878  70.489  1.00  0.00     0.000 HD 
HETATM   18  C   UNL     1     -14.356   7.693  72.147  1.00  0.00    -0.356 C  
HETATM   19  O   UNL     1     -12.749   9.449  72.369  1.00  0.00    -0.352 OA 
ENDBRANCH  14  15
ENDBRANCH  13  14
ENDBRANCH  12  13
ENDBRANCH   2   3
TORSDOF 4
ENDMDL
MODEL      201
REMARK 921   NORMALIZED FREE ENERGY PREDICTED BY IDOCK:   -3.16 KCAL/MOL
REMARK 922        TOTAL FREE ENERGY PREDICTED BY IDOCK:   -4.34 KCAL/MOL
REMARK 923 INTER-LIGAND FREE ENERGY PREDICTED BY IDOCK:   -3.96 KCAL/MOL
REMARK 924 INTRA-LIGAND FREE ENERGY PREDICTED BY IDOCK:   -0.38 KCAL/MOL
REMARK 927      BINDING AFFINITY PREDICTED BY RF-SCORE:    0.00 PKD
ROOT
HETATM    1  C   UNL     1      -9.313   3.313  64.921  1.00  0.00    -0.149 C  
HETATM    2  O   UNL     1      -8.150   4.120  65.104  1.00  0.00    -0.099 OA 
ENDROOT
BRANCH   2   3
HETATM    3  C   UNL     1      -8.412   5.442  65.356  1.00  0.00    -0.144 A  
HETATM    4  C   UNL     1      -9.198   5.713  66.483  1.00  0.00    -0.149 A  
HETATM    5  C   UNL     1      -9.582   7.035  66.838  1.00  0.00    -0.214 A  
HETATM    6  C   UNL     1      -9.104   8.079  66.002  1.00  0.00    -0.193 A  
HETATM    7  C   UNL     1      -9.459   9.409  66.253  1.00  0.00    -0.273 A  
HETATM    8  C   UNL     1      -8.265   7.799  64.915  1.00  0.00    -0.111 A  
HETATM    9  C   UNL     1     -10.285   9.734  67.319  1.00  0.00    -0.289 A  
HETATM   10  C   UNL     1      -7.919   6.490  64.592  1.00  0.00    -0.116 A  
HETATM   11  C   UNL     1     -10.743   8.732  68.168  1.00  0.00    -0.131 A  
HETATM   12  C   UNL     1     -10.412   7.379  67.956  1.00  0.00    -0.253 A  
BRANCH  12  13
HETATM   13  C   UNL     1     -10.852   6.331  68.975  1.00  0.00    -0.400 C  
BRANCH  13  14
HETATM   14  C   UNL     1     -11.719   6.831  70.142  1.00  0.00    -0.313 C  
BRANCH  14  15
HETATM   15  N   UNL     1     -11.142   6.554  71.449  1.00  0.00    -0.257 N  
HETATM   16  C   UNL     1     -10.606   7.545  72.238  1.00  0.00    -0.236 C  
HETATM   17  H   UNL     1     -11.135   5.593  71.792  1.00  0.00     0.000 HD 
HETATM   18  C   UNL     1      -9.976   7.050  73.513  1.00  0.00    -0.321 C  
HETATM   19  O   UNL     1     -10.635   8.737  71.952  1.00  0.00    -0.309 OA 
ENDBRANCH  14  15
ENDBRANCH  13  14
ENDBRANCH  12  13
ENDBRANCH   2   3
TORSDOF 4
ENDMDL
MODEL      202
REMARK 921   NORMALIZED FREE ENERGY PREDICTED BY IDOCK:   -3.16 KCAL/MOL
REMARK 922        TOTAL FREE ENERGY PREDICTED BY IDOCK:   -4.33 KCAL/MOL
REMARK 923 INTER-LIGAND FREE ENERGY PREDICTED BY IDOCK:   -3.93 KCAL/MOL
REMARK 924 INTRA-LIGAND FREE ENERGY PREDICTED BY IDOCK:   -0.41 KCAL/MOL
REMARK 927      BINDING AFFINITY PREDICTED BY RF-SCORE:    0.00 PKD
ROOT
HETATM    1  C   UNL     1     -12.865  10.865  71.421  1.00  0.00    -0.449 C  
HETATM    2  O   UNL     1     -11.842  11.501  70.654  1.00  0.00    -0.328 OA 
ENDROOT
BRANCH   2   3
HETATM    3  C   UNL     1     -11.153  10.659  69.820  1.00  0.00    -0.295 A  
HETATM    4  C   UNL     1     -10.173   9.858  70.422  1.00  0.00    -0.299 A  
HETATM    5  C   UNL     1      -9.354   8.972  69.670  1.00  0.00    -0.169 A  
HETATM    6  C   UNL     1      -9.597   8.918  68.272  1.00  0.00    -0.159 A  
HETATM    7  C   UNL     1      -8.818   8.100  67.447  1.00  0.00    -0.131 A  
HETATM    8  C   UNL     1     -10.624   9.676  67.694  1.00  0.00    -0.334 A  
HETATM    9  C   UNL     1      -7.793   7.329  67.975  1.00  0.00    -0.118 A  
HETATM   10  C   UNL     1     -11.399  10.541  68.460  1.00  0.00    -0.320 A  
HETATM   11  C   UNL     1      -7.553   7.345  69.345  1.00  0.00    -0.096 A  
HETATM   12  C   UNL     1      -8.311   8.152  70.216  1.00  0.00    -0.124 A  
BRANCH  12  13
HETATM   13  C   UNL     1      -8.080   8.054  71.721  1.00  0.00    -0.142 C  
BRANCH  13  14
HETATM   14  C   UNL     1      -8.253   6.662  72.352  1.00  0.00    -0.103 C  
BRANCH  14  15
HETATM   15  N   UNL     1      -9.615   6.156  72.269  1.00  0.00    -0.153 N  
HETATM   16  C   UNL     1     -10.286   5.676  73.369  1.00  0.00    -0.222 C  
HETATM   17  H   UNL     1     -10.088   6.158  71.364  1.00  0.00     0.000 HD 
HETATM   18  C   UNL     1     -11.650   5.113  73.065  1.00  0.00    -0.301 C  
HETATM   19  O   UNL     1      -9.837   5.702  74.509  1.00  0.00    -0.184 OA 
ENDBRANCH  14  15
ENDBRANCH  13  14
ENDBRANCH  12  13
ENDBRANCH   2   3
TORSDOF 4
ENDMDL
MODEL      203
REMARK 921   NORMALIZED FREE ENERGY PREDICTED BY IDOCK:   -3.15 KCAL/MOL
REMARK 922        TOTAL FREE ENERGY PREDICTED BY IDOCK:   -4.33 KCAL/MOL
REMARK 923 INTER-LIGAND FREE ENERGY PREDICTED BY IDOCK:   -3.67 KCAL/MOL
REMARK 924 INTRA-LIGAND FREE ENERGY PREDICTED BY IDOCK:   -0.66 KCAL/MOL
REMARK 927      BINDING AFFINITY PREDICTED BY RF-SCORE:    0.00 PKD
ROOT
HETATM    1  C   UNL     1      -7.245   2.195  71.344  1.00  0.00    -0.032 C  
HETATM    2  O   UNL     1      -8.453   2.873  71.000  1.00  0.00    -0.060 OA 
ENDROOT
BRANCH   2   3
HETATM    3  C   UNL     1      -8.275   4.158  70.557  1.00  0.00    -0.062 A  
HETATM    4  C   UNL     1      -9.438   4.923  70.396  1.00  0.00    -0.233 A  
HETATM    5  C   UNL     1      -9.404   6.256  69.902  1.00  0.00    -0.158 A  
HETATM    6  C   UNL     1      -8.121   6.788  69.604  1.00  0.00    -0.126 A  
HETATM    7  C   UNL     1      -7.992   8.079  69.081  1.00  0.00    -0.114 A  
HETATM    8  C   UNL     1      -6.963   6.034  69.832  1.00  0.00    -0.070 A  
HETATM    9  C   UNL     1      -9.111   8.864  68.842  1.00  0.00    -0.140 A  
HETATM   10  C   UNL     1      -7.036   4.728  70.306  1.00  0.00    -0.048 A  
HETATM   11  C   UNL     1     -10.376   8.375  69.152  1.00  0.00    -0.229 A  
HETATM   12  C   UNL     1     -10.555   7.081  69.680  1.00  0.00    -0.253 A  
BRANCH  12  13
HETATM   13  C   UNL     1     -11.952   6.632  70.102  1.00  0.00    -0.250 C  
BRANCH  13  14
HETATM   14  C   UNL     1     -12.478   7.189  71.435  1.00  0.00    -0.388 C  
BRANCH  14  15
HETATM   15  N   UNL     1     -11.877   6.559  72.601  1.00  0.00    -0.504 N  
HETATM   16  C   UNL     1     -10.805   7.113  73.261  1.00  0.00    -0.338 C  
HETATM   17  H   UNL     1     -12.263   5.678  72.941  1.00  0.00     0.000 HD 
HETATM   18  C   UNL     1     -10.267   6.270  74.386  1.00  0.00    -0.339 C  
HETATM   19  O   UNL     1     -10.318   8.203  72.981  1.00  0.00    -0.321 OA 
ENDBRANCH  14  15
ENDBRANCH  13  14
ENDBRANCH  12  13
ENDBRANCH   2   3
TORSDOF 4
ENDMDL
MODEL      204
REMARK 921   NORMALIZED FREE ENERGY PREDICTED BY IDOCK:   -3.14 KCAL/MOL
REMARK 922        TOTAL FREE ENERGY PREDICTED BY IDOCK:   -4.31 KCAL/MOL
REMARK 923 INTER-LIGAND FREE ENERGY PREDICTED BY IDOCK:   -4.02 KCAL/MOL
REMARK 924 INTRA-LIGAND FREE ENERGY PREDICTED BY IDOCK:   -0.29 KCAL/MOL
REMARK 927      BINDING AFFINITY PREDICTED BY RF-SCORE:    0.00 PKD
ROOT
HETATM    1  C   UNL     1      -9.452   1.529  70.760  1.00  0.00    -0.116 C  
HETATM    2  O   UNL     1      -8.820   2.659  70.159  1.00  0.00    -0.067 OA 
ENDROOT
BRANCH   2   3
HETATM    3  C   UNL     1      -8.531   3.676  71.031  1.00  0.00    -0.071 A  
HETATM    4  C   UNL     1      -9.611   4.472  71.434  1.00  0.00    -0.232 A  
HETATM    5  C   UNL     1      -9.449   5.587  72.300  1.00  0.00    -0.163 A  
HETATM    6  C   UNL     1      -8.130   5.842  72.763  1.00  0.00    -0.108 A  
HETATM    7  C   UNL     1      -7.868   6.938  73.592  1.00  0.00    -0.108 A  
HETATM    8  C   UNL     1      -7.070   4.999  72.404  1.00  0.00    -0.084 A  
HETATM    9  C   UNL     1      -8.887   7.797  73.976  1.00  0.00    -0.304 A  
HETATM   10  C   UNL     1      -7.266   3.922  71.544  1.00  0.00    -0.039 A  
HETATM   11  C   UNL     1     -10.191   7.553  73.558  1.00  0.00    -0.380 A  
HETATM   12  C   UNL     1     -10.503   6.462  72.723  1.00  0.00    -0.238 A  
BRANCH  12  13
HETATM   13  C   UNL     1     -11.963   6.175  72.379  1.00  0.00    -0.240 C  
BRANCH  13  14
HETATM   14  C   UNL     1     -12.621   7.110  71.351  1.00  0.00    -0.394 C  
BRANCH  14  15
HETATM   15  N   UNL     1     -11.671   7.973  70.665  1.00  0.00    -0.444 N  
HETATM   16  C   UNL     1     -11.588   9.321  70.923  1.00  0.00    -0.301 C  
HETATM   17  H   UNL     1     -11.046   7.565  69.970  1.00  0.00     0.000 HD 
HETATM   18  C   UNL     1     -10.610  10.061  70.050  1.00  0.00    -0.344 C  
HETATM   19  O   UNL     1     -12.238   9.893  71.792  1.00  0.00    -0.389 OA 
ENDBRANCH  14  15
ENDBRANCH  13  14
ENDBRANCH  12  13
ENDBRANCH   2   3
TORSDOF 4
ENDMDL
MODEL      205
REMARK 921   NORMALIZED FREE ENERGY PREDICTED BY IDOCK:   -3.10 KCAL/MOL
REMARK 922        TOTAL FREE ENERGY PREDICTED BY IDOCK:   -4.26 KCAL/MOL
REMARK 923 INTER-LIGAND FREE ENERGY PREDICTED BY IDOCK:   -3.74 KCAL/MOL
REMARK 924 INTRA-LIGAND FREE ENERGY PREDICTED BY IDOCK:   -0.51 KCAL/MOL
REMARK 927      BINDING AFFINITY PREDICTED BY RF-SCORE:    0.00 PKD
ROOT
HETATM    1  C   UNL     1      -5.553   3.743  70.238  1.00  0.00    -0.013 C  
HETATM    2  O   UNL     1      -6.917   3.565  70.620  1.00  0.00    -0.033 OA 
ENDROOT
BRANCH   2   3
HETATM    3  C   UNL     1      -7.826   3.986  69.685  1.00  0.00    -0.052 A  
HETATM    4  C   UNL     1      -8.090   5.362  69.655  1.00  0.00    -0.099 A  
HETATM    5  C   UNL     1      -9.043   5.931  68.766  1.00  0.00    -0.116 A  
HETATM    6  C   UNL     1      -9.700   5.033  67.884  1.00  0.00    -0.196 A  
HETATM    7  C   UNL     1     -10.678   5.496  66.997  1.00  0.00    -0.286 A  
HETATM    8  C   UNL     1      -9.379   3.669  67.880  1.00  0.00    -0.241 A  
HETATM    9  C   UNL     1     -11.027   6.838  66.963  1.00  0.00    -0.439 A  
HETATM   10  C   UNL     1      -8.448   3.146  68.772  1.00  0.00    -0.096 A  
HETATM   11  C   UNL     1     -10.378   7.742  67.798  1.00  0.00    -0.284 A  
HETATM   12  C   UNL     1      -9.387   7.322  68.708  1.00  0.00    -0.143 A  
BRANCH  12  13
HETATM   13  C   UNL     1      -8.630   8.365  69.526  1.00  0.00    -0.129 C  
BRANCH  13  14
HETATM   14  C   UNL     1      -9.190   8.679  70.923  1.00  0.00    -0.190 C  
BRANCH  14  15
HETATM   15  N   UNL     1     -10.204   9.724  70.917  1.00  0.00    -0.338 N  
HETATM   16  C   UNL     1     -11.549   9.438  70.901  1.00  0.00    -0.312 C  
HETATM   17  H   UNL     1      -9.907  10.700  70.924  1.00  0.00     0.000 HD 
HETATM   18  C   UNL     1     -12.438  10.650  70.804  1.00  0.00    -0.480 C  
HETATM   19  O   UNL     1     -12.009   8.303  70.969  1.00  0.00    -0.296 OA 
ENDBRANCH  14  15
ENDBRANCH  13  14
ENDBRANCH  12  13
ENDBRANCH   2   3
TORSDOF 4
ENDMDL
MODEL      206
REMARK 921   NORMALIZED FREE ENERGY PREDICTED BY IDOCK:   -3.08 KCAL/MOL
REMARK 922        TOTAL FREE ENERGY PREDICTED BY IDOCK:   -4.24 KCAL/MOL
REMARK 923 INTER-LIGAND FREE ENERGY PREDICTED BY IDOCK:   -3.72 KCAL/MOL
REMARK 924 INTRA-LIGAND FREE ENERGY PREDICTED BY IDOCK:   -0.52 KCAL/MOL
REMARK 927      BINDING AFFINITY PREDICTED BY RF-SCORE:    0.00 PKD
ROOT
HETATM    1  C   UNL     1      -6.060   9.984  66.079  1.00  0.00    -0.077 C  
HETATM    2  O   UNL     1      -5.460   9.086  67.012  1.00  0.00    -0.039 OA 
ENDROOT
BRANCH   2   3
HETATM    3  C   UNL     1      -6.308   8.127  67.502  1.00  0.00    -0.056 A  
HETATM    4  C   UNL     1      -7.664   8.474  67.563  1.00  0.00    -0.098 A  
HETATM    5  C   UNL     1      -8.648   7.593  68.090  1.00  0.00    -0.123 A  
HETATM    6  C   UNL     1      -8.189   6.323  68.529  1.00  0.00    -0.112 A  
HETATM    7  C   UNL     1      -9.079   5.403  69.094  1.00  0.00    -0.131 A  
HETATM    8  C   UNL     1      -6.841   5.965  68.402  1.00  0.00    -0.066 A  
HETATM    9  C   UNL     1     -10.424   5.712  69.237  1.00  0.00    -0.356 A  
HETATM   10  C   UNL     1      -5.904   6.858  67.891  1.00  0.00    -0.024 A  
HETATM   11  C   UNL     1     -10.902   6.939  68.789  1.00  0.00    -0.238 A  
HETATM   12  C   UNL     1     -10.044   7.897  68.214  1.00  0.00    -0.225 A  
BRANCH  12  13
HETATM   13  C   UNL     1     -10.633   9.183  67.641  1.00  0.00    -0.307 C  
BRANCH  13  14
HETATM   14  C   UNL     1     -10.706  10.388  68.594  1.00  0.00    -0.218 C  
BRANCH  14  15
HETATM   15  N   UNL     1     -11.857  10.349  69.485  1.00  0.00    -0.463 N  
HETATM   16  C   UNL     1     -11.752   9.961  70.800  1.00  0.00    -0.341 C  
HETATM   17  H   UNL     1     -12.771  10.620  69.122  1.00  0.00     0.000 HD 
HETATM   18  C   UNL     1     -13.065   9.898  71.534  1.00  0.00    -0.516 C  
HETATM   19  O   UNL     1     -10.690   9.692  71.351  1.00  0.00    -0.327 OA 
ENDBRANCH  14  15
ENDBRANCH  13  14
ENDBRANCH  12  13
ENDBRANCH   2   3
TORSDOF 4
ENDMDL
MODEL      207
REMARK 921   NORMALIZED FREE ENERGY PREDICTED BY IDOCK:   -3.08 KCAL/MOL
REMARK 922        TOTAL FREE ENERGY PREDICTED BY IDOCK:   -4.24 KCAL/MOL
REMARK 923 INTER-LIGAND FREE ENERGY PREDICTED BY IDOCK:   -3.96 KCAL/MOL
REMARK 924 INTRA-LIGAND FREE ENERGY PREDICTED BY IDOCK:   -0.28 KCAL/MOL
REMARK 927      BINDING AFFINITY PREDICTED BY RF-SCORE:    0.00 PKD
ROOT
HETATM    1  C   UNL     1      -6.131   7.990  74.346  1.00  0.00    -0.096 C  
HETATM    2  O   UNL     1      -7.044   8.767  73.571  1.00  0.00    -0.347 OA 
ENDROOT
BRANCH   2   3
HETATM    3  C   UNL     1      -8.225   8.133  73.285  1.00  0.00    -0.199 A  
HETATM    4  C   UNL     1      -8.667   8.217  71.957  1.00  0.00    -0.243 A  
HETATM    5  C   UNL     1      -9.896   7.644  71.530  1.00  0.00    -0.192 A  
HETATM    6  C   UNL     1     -10.647   6.952  72.517  1.00  0.00    -0.251 A  
HETATM    7  C   UNL     1     -11.886   6.385  72.197  1.00  0.00    -0.361 A  
HETATM    8  C   UNL     1     -10.163   6.820  73.824  1.00  0.00    -0.378 A  
HETATM    9  C   UNL     1     -12.404   6.488  70.915  1.00  0.00    -0.142 A  
HETATM   10  C   UNL     1      -8.960   7.404  74.209  1.00  0.00    -0.242 A  
HETATM   11  C   UNL     1     -11.674   7.137  69.925  1.00  0.00    -0.038 A  
HETATM   12  C   UNL     1     -10.422   7.723  70.199  1.00  0.00    -0.231 A  
BRANCH  12  13
HETATM   13  C   UNL     1      -9.613   8.330  69.056  1.00  0.00    -0.156 C  
BRANCH  13  14
HETATM   14  C   UNL     1     -10.320   8.437  67.695  1.00  0.00    -0.252 C  
BRANCH  14  15
HETATM   15  N   UNL     1     -10.748   9.791  67.373  1.00  0.00    -0.269 N  
HETATM   16  C   UNL     1      -9.862  10.762  66.969  1.00  0.00    -0.187 C  
HETATM   17  H   UNL     1     -11.738  10.027  67.448  1.00  0.00     0.000 HD 
HETATM   18  C   UNL     1     -10.480  12.121  66.770  1.00  0.00    -0.245 C  
HETATM   19  O   UNL     1      -8.669  10.560  66.773  1.00  0.00    -0.130 OA 
ENDBRANCH  14  15
ENDBRANCH  13  14
ENDBRANCH  12  13
ENDBRANCH   2   3
TORSDOF 4
ENDMDL
MODEL      208
REMARK 921   NORMALIZED FREE ENERGY PREDICTED BY IDOCK:   -3.02 KCAL/MOL
REMARK 922        TOTAL FREE ENERGY PREDICTED BY IDOCK:   -4.17 KCAL/MOL
REMARK 923 INTER-LIGAND FREE ENERGY PREDICTED BY IDOCK:   -3.97 KCAL/MOL
REMARK 924 INTRA-LIGAND FREE ENERGY PREDICTED BY IDOCK:   -0.20 KCAL/MOL
REMARK 927      BINDING AFFINITY PREDICTED BY RF-SCORE:    0.00 PKD
ROOT
HETATM    1  C   UNL     1     -12.536  13.863  65.478  1.00  0.00    -0.526 C  
HETATM    2  O   UNL     1     -11.640  12.757  65.370  1.00  0.00    -0.326 OA 
ENDROOT
BRANCH   2   3
HETATM    3  C   UNL     1     -11.382  12.119  66.555  1.00  0.00    -0.350 A  
HETATM    4  C   UNL     1     -10.269  11.267  66.570  1.00  0.00    -0.269 A  
HETATM    5  C   UNL     1      -9.911  10.509  67.718  1.00  0.00    -0.198 A  
HETATM    6  C   UNL     1     -10.728  10.679  68.867  1.00  0.00    -0.254 A  
HETATM    7  C   UNL     1     -10.473   9.948  70.033  1.00  0.00    -0.331 A  
HETATM    8  C   UNL     1     -11.798  11.583  68.859  1.00  0.00    -0.406 A  
HETATM    9  C   UNL     1      -9.423   9.044  70.089  1.00  0.00    -0.217 A  
HETATM   10  C   UNL     1     -12.125  12.300  67.712  1.00  0.00    -0.033 A  
HETATM   11  C   UNL     1      -8.592   8.881  68.986  1.00  0.00    -0.138 A  
HETATM   12  C   UNL     1      -8.810   9.594  67.790  1.00  0.00    -0.125 A  
BRANCH  12  13
HETATM   13  C   UNL     1      -7.809   9.459  66.645  1.00  0.00    -0.104 C  
BRANCH  13  14
HETATM   14  C   UNL     1      -7.719   8.080  65.972  1.00  0.00    -0.088 C  
BRANCH  14  15
HETATM   15  N   UNL     1      -8.863   7.225  66.255  1.00  0.00    -0.155 N  
HETATM   16  C   UNL     1      -8.956   5.942  65.768  1.00  0.00    -0.120 C  
HETATM   17  H   UNL     1      -9.620   7.589  66.834  1.00  0.00     0.000 HD 
HETATM   18  C   UNL     1     -10.253   5.249  66.093  1.00  0.00    -0.223 C  
HETATM   19  O   UNL     1      -8.069   5.386  65.130  1.00  0.00    -0.109 OA 
ENDBRANCH  14  15
ENDBRANCH  13  14
ENDBRANCH  12  13
ENDBRANCH   2   3
TORSDOF 4
ENDMDL
MODEL      209
REMARK 921   NORMALIZED FREE ENERGY PREDICTED BY IDOCK:   -3.02 KCAL/MOL
REMARK 922        TOTAL FREE ENERGY PREDICTED BY IDOCK:   -4.16 KCAL/MOL
REMARK 923 INTER-LIGAND FREE ENERGY PREDICTED BY IDOCK:   -3.88 KCAL/MOL
REMARK 924 INTRA-LIGAND FREE ENERGY PREDICTED BY IDOCK:   -0.28 KCAL/MOL
REMARK 927      BINDING AFFINITY PREDICTED BY RF-SCORE:    0.00 PKD
ROOT
HETATM    1  C   UNL     1      -6.486  10.643  69.964  1.00  0.00    -0.138 C  
HETATM    2  O   UNL     1      -6.444   9.226  70.129  1.00  0.00    -0.041 OA 
ENDROOT
BRANCH   2   3
HETATM    3  C   UNL     1      -7.509   8.703  70.816  1.00  0.00    -0.080 A  
HETATM    4  C   UNL     1      -8.543   8.166  70.038  1.00  0.00    -0.129 A  
HETATM    5  C   UNL     1      -9.726   7.630  70.618  1.00  0.00    -0.174 A  
HETATM    6  C   UNL     1      -9.797   7.643  72.036  1.00  0.00    -0.211 A  
HETATM    7  C   UNL     1     -10.937   7.169  72.694  1.00  0.00    -0.325 A  
HETATM    8  C   UNL     1      -8.728   8.124  72.803  1.00  0.00    -0.281 A  
HETATM    9  C   UNL     1     -12.019   6.680  71.977  1.00  0.00    -0.361 A  
HETATM   10  C   UNL     1      -7.589   8.651  72.200  1.00  0.00    -0.061 A  
HETATM   11  C   UNL     1     -11.962   6.632  70.588  1.00  0.00    -0.404 A  
HETATM   12  C   UNL     1     -10.835   7.098  69.882  1.00  0.00    -0.276 A  
BRANCH  12  13
HETATM   13  C   UNL     1     -10.777   6.926  68.366  1.00  0.00    -0.259 C  
BRANCH  13  14
HETATM   14  C   UNL     1     -10.327   5.550  67.848  1.00  0.00    -0.182 C  
BRANCH  14  15
HETATM   15  N   UNL     1     -10.778   5.268  66.493  1.00  0.00    -0.453 N  
HETATM   16  C   UNL     1     -10.246   4.247  65.742  1.00  0.00    -0.186 C  
HETATM   17  H   UNL     1     -11.513   5.848  66.087  1.00  0.00     0.000 HD 
HETATM   18  C   UNL     1     -10.775   4.171  64.335  1.00  0.00    -0.152 C  
HETATM   19  O   UNL     1      -9.416   3.448  66.164  1.00  0.00    -0.170 OA 
ENDBRANCH  14  15
ENDBRANCH  13  14
ENDBRANCH  12  13
ENDBRANCH   2   3
TORSDOF 4
ENDMDL
MODEL      210
REMARK 921   NORMALIZED FREE ENERGY PREDICTED BY IDOCK:   -3.01 KCAL/MOL
REMARK 922        TOTAL FREE ENERGY PREDICTED BY IDOCK:   -4.15 KCAL/MOL
REMARK 923 INTER-LIGAND FREE ENERGY PREDICTED BY IDOCK:   -3.88 KCAL/MOL
REMARK 924 INTRA-LIGAND FREE ENERGY PREDICTED BY IDOCK:   -0.26 KCAL/MOL
REMARK 927      BINDING AFFINITY PREDICTED BY RF-SCORE:    0.00 PKD
ROOT
HETATM    1  C   UNL     1      -6.014   8.514  74.370  1.00  0.00    -0.124 C  
HETATM    2  O   UNL     1      -7.230   8.354  73.640  1.00  0.00    -0.205 OA 
ENDROOT
BRANCH   2   3
HETATM    3  C   UNL     1      -7.766   7.094  73.702  1.00  0.00    -0.100 A  
HETATM    4  C   UNL     1      -9.114   6.976  73.337  1.00  0.00    -0.176 A  
HETATM    5  C   UNL     1      -9.809   5.737  73.395  1.00  0.00    -0.167 A  
HETATM    6  C   UNL     1      -9.056   4.610  73.820  1.00  0.00    -0.108 A  
HETATM    7  C   UNL     1      -9.664   3.356  73.941  1.00  0.00    -0.142 A  
HETATM    8  C   UNL     1      -7.693   4.730  74.120  1.00  0.00    -0.093 A  
HETATM    9  C   UNL     1     -11.010   3.188  73.652  1.00  0.00    -0.327 A  
HETATM   10  C   UNL     1      -7.049   5.962  74.061  1.00  0.00    -0.081 A  
HETATM   11  C   UNL     1     -11.761   4.272  73.208  1.00  0.00    -0.093 A  
HETATM   12  C   UNL     1     -11.193   5.553  73.071  1.00  0.00    -0.346 A  
BRANCH  12  13
HETATM   13  C   UNL     1     -12.030   6.685  72.479  1.00  0.00    -0.089 C  
BRANCH  13  14
HETATM   14  C   UNL     1     -11.636   7.167  71.074  1.00  0.00    -0.309 C  
BRANCH  14  15
HETATM   15  N   UNL     1     -12.171   8.480  70.744  1.00  0.00    -0.495 N  
HETATM   16  C   UNL     1     -11.492   9.641  71.032  1.00  0.00    -0.371 C  
HETATM   17  H   UNL     1     -13.079   8.542  70.284  1.00  0.00     0.000 HD 
HETATM   18  C   UNL     1     -12.247  10.900  70.698  1.00  0.00    -0.472 C  
HETATM   19  O   UNL     1     -10.363   9.672  71.511  1.00  0.00    -0.186 OA 
ENDBRANCH  14  15
ENDBRANCH  13  14
ENDBRANCH  12  13
ENDBRANCH   2   3
TORSDOF 4
ENDMDL
MODEL      211
REMARK 921   NORMALIZED FREE ENERGY PREDICTED BY IDOCK:   -2.98 KCAL/MOL
REMARK 922        TOTAL FREE ENERGY PREDICTED BY IDOCK:   -4.11 KCAL/MOL
REMARK 923 INTER-LIGAND FREE ENERGY PREDICTED BY IDOCK:   -3.77 KCAL/MOL
REMARK 924 INTRA-LIGAND FREE ENERGY PREDICTED BY IDOCK:   -0.35 KCAL/MOL
REMARK 927      BINDING AFFINITY PREDICTED BY RF-SCORE:    0.00 PKD
ROOT
HETATM    1  C   UNL     1     -11.801  13.856  69.968  1.00  0.00    -0.315 C  
HETATM    2  O   UNL     1     -11.993  15.242  69.684  1.00  0.00    -0.315 OA 
ENDROOT
BRANCH   2   3
HETATM    3  C   UNL     1     -10.978  15.819  68.965  1.00  0.00    -0.262 A  
HETATM    4  C   UNL     1      -9.790  15.082  68.871  1.00  0.00    -0.233 A  
HETATM    5  C   UNL     1      -8.643  15.579  68.193  1.00  0.00    -0.152 A  
HETATM    6  C   UNL     1      -8.770  16.858  67.589  1.00  0.00    -0.212 A  
HETATM    7  C   UNL     1      -7.683  17.443  66.930  1.00  0.00    -0.249 A  
HETATM    8  C   UNL     1      -9.984  17.555  67.636  1.00  0.00    -0.309 A  
HETATM    9  C   UNL     1      -6.462  16.788  66.856  1.00  0.00    -0.243 A  
HETATM   10  C   UNL     1     -11.083  17.041  68.318  1.00  0.00    -0.172 A  
HETATM   11  C   UNL     1      -6.322  15.523  67.415  1.00  0.00    -0.106 A  
HETATM   12  C   UNL     1      -7.388  14.894  68.089  1.00  0.00    -0.121 A  
BRANCH  12  13
HETATM   13  C   UNL     1      -7.216  13.463  68.593  1.00  0.00    -0.107 C  
BRANCH  13  14
HETATM   14  C   UNL     1      -7.826  12.352  67.723  1.00  0.00    -0.154 C  
BRANCH  14  15
HETATM   15  N   UNL     1      -9.036  11.775  68.290  1.00  0.00    -0.184 N  
HETATM   16  C   UNL     1      -9.722  10.757  67.671  1.00  0.00    -0.166 C  
HETATM   17  H   UNL     1      -9.387  12.138  69.177  1.00  0.00     0.000 HD 
HETATM   18  C   UNL     1     -10.998  10.358  68.364  1.00  0.00    -0.312 C  
HETATM   19  O   UNL     1      -9.342  10.201  66.646  1.00  0.00    -0.156 OA 
ENDBRANCH  14  15
ENDBRANCH  13  14
ENDBRANCH  12  13
ENDBRANCH   2   3
TORSDOF 4
ENDMDL
MODEL      212
REMARK 921   NORMALIZED FREE ENERGY PREDICTED BY IDOCK:   -2.96 KCAL/MOL
REMARK 922        TOTAL FREE ENERGY PREDICTED BY IDOCK:   -4.08 KCAL/MOL
REMARK 923 INTER-LIGAND FREE ENERGY PREDICTED BY IDOCK:   -3.74 KCAL/MOL
REMARK 924 INTRA-LIGAND FREE ENERGY PREDICTED BY IDOCK:   -0.34 KCAL/MOL
REMARK 927      BINDING AFFINITY PREDICTED BY RF-SCORE:    0.00 PKD
ROOT
HETATM    1  C   UNL     1     -12.825   8.710  70.894  1.00  0.00     0.145 C  
HETATM    2  O   UNL     1     -12.527   7.424  71.438  1.00  0.00    -0.337 OA 
ENDROOT
BRANCH   2   3
HETATM    3  C   UNL     1     -11.564   6.729  70.755  1.00  0.00    -0.366 A  
HETATM    4  C   UNL     1     -11.165   7.270  69.525  1.00  0.00    -0.064 A  
HETATM    5  C   UNL     1     -10.207   6.631  68.691  1.00  0.00    -0.184 A  
HETATM    6  C   UNL     1      -9.649   5.421  69.182  1.00  0.00    -0.193 A  
HETATM    7  C   UNL     1      -8.724   4.704  68.416  1.00  0.00    -0.111 A  
HETATM    8  C   UNL     1     -10.009   4.925  70.442  1.00  0.00    -0.316 A  
HETATM    9  C   UNL     1      -8.336   5.157  67.164  1.00  0.00    -0.107 A  
HETATM   10  C   UNL     1     -10.959   5.573  71.226  1.00  0.00    -0.198 A  
HETATM   11  C   UNL     1      -8.847   6.354  66.674  1.00  0.00    -0.132 A  
HETATM   12  C   UNL     1      -9.781   7.111  67.409  1.00  0.00    -0.186 A  
BRANCH  12  13
HETATM   13  C   UNL     1     -10.232   8.468  66.876  1.00  0.00    -0.375 C  
BRANCH  13  14
HETATM   14  C   UNL     1      -9.134   9.376  66.297  1.00  0.00    -0.163 C  
BRANCH  14  15
HETATM   15  N   UNL     1      -9.332   9.694  64.890  1.00  0.00    -0.323 N  
HETATM   16  C   UNL     1      -9.841  10.903  64.477  1.00  0.00    -0.300 C  
HETATM   17  H   UNL     1      -9.084   8.998  64.187  1.00  0.00     0.000 HD 
HETATM   18  C   UNL     1     -10.057  11.010  62.991  1.00  0.00    -0.285 C  
HETATM   19  O   UNL     1     -10.096  11.833  65.235  1.00  0.00    -0.246 OA 
ENDBRANCH  14  15
ENDBRANCH  13  14
ENDBRANCH  12  13
ENDBRANCH   2   3
TORSDOF 4
ENDMDL
MODEL      213
REMARK 921   NORMALIZED FREE ENERGY PREDICTED BY IDOCK:   -2.88 KCAL/MOL
REMARK 922        TOTAL FREE ENERGY PREDICTED BY IDOCK:   -4.00 KCAL/MOL
REMARK 923 INTER-LIGAND FREE ENERGY PREDICTED BY IDOCK:   -3.70 KCAL/MOL
REMARK 924 INTRA-LIGAND FREE ENERGY PREDICTED BY IDOCK:   -0.30 KCAL/MOL
REMARK 927      BINDING AFFINITY PREDICTED BY RF-SCORE:    0.00 PKD
ROOT
HETATM    1  C   UNL     1      -9.400   4.576  64.527  1.00  0.00    -0.112 C  
HETATM    2  O   UNL     1      -8.713   4.560  65.778  1.00  0.00    -0.118 OA 
ENDROOT
BRANCH   2   3
HETATM    3  C   UNL     1      -9.254   5.382  66.732  1.00  0.00    -0.128 A  
HETATM    4  C   UNL     1      -9.425   6.724  66.368  1.00  0.00    -0.166 A  
HETATM    5  C   UNL     1      -9.935   7.695  67.273  1.00  0.00    -0.273 A  
HETATM    6  C   UNL     1     -10.290   7.229  68.566  1.00  0.00    -0.210 A  
HETATM    7  C   UNL     1     -10.768   8.119  69.535  1.00  0.00    -0.180 A  
HETATM    8  C   UNL     1     -10.175   5.873  68.896  1.00  0.00    -0.254 A  
HETATM    9  C   UNL     1     -10.903   9.470  69.253  1.00  0.00    -0.211 A  
HETATM   10  C   UNL     1      -9.661   4.952  67.987  1.00  0.00    -0.202 A  
HETATM   11  C   UNL     1     -10.587   9.946  67.985  1.00  0.00    -0.288 A  
HETATM   12  C   UNL     1     -10.102   9.088  66.977  1.00  0.00    -0.318 A  
BRANCH  12  13
HETATM   13  C   UNL     1      -9.871   9.639  65.572  1.00  0.00    -0.352 C  
BRANCH  13  14
HETATM   14  C   UNL     1      -9.007  10.905  65.465  1.00  0.00    -0.197 C  
BRANCH  14  15
HETATM   15  N   UNL     1      -7.695  10.660  64.883  1.00  0.00    -0.346 N  
HETATM   16  C   UNL     1      -7.521  10.439  63.537  1.00  0.00    -0.036 C  
HETATM   17  H   UNL     1      -6.878  10.653  65.494  1.00  0.00     0.000 HD 
HETATM   18  C   UNL     1      -6.105  10.114  63.141  1.00  0.00    -0.140 C  
HETATM   19  O   UNL     1      -8.424  10.504  62.711  1.00  0.00    -0.169 OA 
ENDBRANCH  14  15
ENDBRANCH  13  14
ENDBRANCH  12  13
ENDBRANCH   2   3
TORSDOF 4
ENDMDL
MODEL      214
REMARK 921   NORMALIZED FREE ENERGY PREDICTED BY IDOCK:   -2.86 KCAL/MOL
REMARK 922        TOTAL FREE ENERGY PREDICTED BY IDOCK:   -3.96 KCAL/MOL
REMARK 923 INTER-LIGAND FREE ENERGY PREDICTED BY IDOCK:   -3.43 KCAL/MOL
REMARK 924 INTRA-LIGAND FREE ENERGY PREDICTED BY IDOCK:   -0.53 KCAL/MOL
REMARK 927      BINDING AFFINITY PREDICTED BY RF-SCORE:    0.00 PKD
ROOT
HETATM    1  C   UNL     1      -9.428   1.468  70.769  1.00  0.00    -0.116 C  
HETATM    2  O   UNL     1      -8.571   2.529  70.348  1.00  0.00    -0.049 OA 
ENDROOT
BRANCH   2   3
HETATM    3  C   UNL     1      -8.430   3.540  71.263  1.00  0.00    -0.068 A  
HETATM    4  C   UNL     1      -9.403   4.547  71.226  1.00  0.00    -0.209 A  
HETATM    5  C   UNL     1      -9.356   5.678  72.087  1.00  0.00    -0.160 A  
HETATM    6  C   UNL     1      -8.280   5.722  73.014  1.00  0.00    -0.118 A  
HETATM    7  C   UNL     1      -8.132   6.813  73.878  1.00  0.00    -0.127 A  
HETATM    8  C   UNL     1      -7.351   4.676  73.084  1.00  0.00    -0.082 A  
HETATM    9  C   UNL     1      -9.029   7.870  73.847  1.00  0.00    -0.287 A  
HETATM   10  C   UNL     1      -7.423   3.590  72.216  1.00  0.00    -0.057 A  
HETATM   11  C   UNL     1     -10.107   7.836  72.968  1.00  0.00    -0.382 A  
HETATM   12  C   UNL     1     -10.297   6.760  72.079  1.00  0.00    -0.217 A  
BRANCH  12  13
HETATM   13  C   UNL     1     -11.551   6.718  71.210  1.00  0.00    -0.366 C  
BRANCH  13  14
HETATM   14  C   UNL     1     -11.514   7.542  69.912  1.00  0.00     0.039 C  
BRANCH  14  15
HETATM   15  N   UNL     1     -11.483   6.722  68.709  1.00  0.00    -0.567 N  
HETATM   16  C   UNL     1     -10.333   6.538  67.978  1.00  0.00    -0.187 C  
HETATM   17  H   UNL     1     -12.343   6.269  68.399  1.00  0.00     0.000 HD 
HETATM   18  C   UNL     1     -10.522   5.734  66.719  1.00  0.00    -0.350 C  
HETATM   19  O   UNL     1      -9.235   6.973  68.308  1.00  0.00    -0.130 OA 
ENDBRANCH  14  15
ENDBRANCH  13  14
ENDBRANCH  12  13
ENDBRANCH   2   3
TORSDOF 4
ENDMDL
MODEL      215
REMARK 921   NORMALIZED FREE ENERGY PREDICTED BY IDOCK:   -2.82 KCAL/MOL
REMARK 922        TOTAL FREE ENERGY PREDICTED BY IDOCK:   -3.92 KCAL/MOL
REMARK 923 INTER-LIGAND FREE ENERGY PREDICTED BY IDOCK:   -3.44 KCAL/MOL
REMARK 924 INTRA-LIGAND FREE ENERGY PREDICTED BY IDOCK:   -0.48 KCAL/MOL
REMARK 927      BINDING AFFINITY PREDICTED BY RF-SCORE:    0.00 PKD
ROOT
HETATM    1  C   UNL     1     -11.349  10.784  68.729  1.00  0.00    -0.288 C  
HETATM    2  O   UNL     1     -10.909  10.427  70.039  1.00  0.00    -0.275 OA 
ENDROOT
BRANCH   2   3
HETATM    3  C   UNL     1      -9.846   9.562  70.063  1.00  0.00    -0.233 A  
HETATM    4  C   UNL     1      -9.541   8.990  71.306  1.00  0.00    -0.361 A  
HETATM    5  C   UNL     1      -8.439   8.110  71.485  1.00  0.00    -0.160 A  
HETATM    6  C   UNL     1      -7.671   7.815  70.327  1.00  0.00    -0.089 A  
HETATM    7  C   UNL     1      -6.548   6.985  70.413  1.00  0.00    -0.051 A  
HETATM    8  C   UNL     1      -8.026   8.341  69.079  1.00  0.00    -0.112 A  
HETATM    9  C   UNL     1      -6.160   6.439  71.628  1.00  0.00    -0.041 A  
HETATM   10  C   UNL     1      -9.106   9.209  68.944  1.00  0.00    -0.139 A  
HETATM   11  C   UNL     1      -6.912   6.691  72.770  1.00  0.00    -0.076 A  
HETATM   12  C   UNL     1      -8.051   7.520  72.733  1.00  0.00    -0.134 A  
BRANCH  12  13
HETATM   13  C   UNL     1      -8.902   7.681  73.990  1.00  0.00    -0.305 C  
BRANCH  13  14
HETATM   14  C   UNL     1     -10.165   6.808  74.079  1.00  0.00    -0.369 C  
BRANCH  14  15
HETATM   15  N   UNL     1      -9.947   5.433  73.655  1.00  0.00    -0.167 N  
HETATM   16  C   UNL     1     -10.419   4.953  72.456  1.00  0.00    -0.205 C  
HETATM   17  H   UNL     1      -9.426   4.804  74.266  1.00  0.00     0.000 HD 
HETATM   18  C   UNL     1     -10.173   3.484  72.236  1.00  0.00    -0.180 C  
HETATM   19  O   UNL     1     -10.988   5.645  71.618  1.00  0.00    -0.253 OA 
ENDBRANCH  14  15
ENDBRANCH  13  14
ENDBRANCH  12  13
ENDBRANCH   2   3
TORSDOF 4
ENDMDL
MODEL      216
REMARK 921   NORMALIZED FREE ENERGY PREDICTED BY IDOCK:   -2.79 KCAL/MOL
REMARK 922        TOTAL FREE ENERGY PREDICTED BY IDOCK:   -3.88 KCAL/MOL
REMARK 923 INTER-LIGAND FREE ENERGY PREDICTED BY IDOCK:   -3.56 KCAL/MOL
REMARK 924 INTRA-LIGAND FREE ENERGY PREDICTED BY IDOCK:   -0.32 KCAL/MOL
REMARK 927      BINDING AFFINITY PREDICTED BY RF-SCORE:    0.00 PKD
ROOT
HETATM    1  C   UNL     1      -9.763   1.472  70.681  1.00  0.00    -0.041 C  
HETATM    2  O   UNL     1      -9.664   2.848  70.315  1.00  0.00    -0.118 OA 
ENDROOT
BRANCH   2   3
HETATM    3  C   UNL     1      -9.521   3.707  71.374  1.00  0.00    -0.157 A  
HETATM    4  C   UNL     1      -9.394   5.065  71.056  1.00  0.00    -0.203 A  
HETATM    5  C   UNL     1      -9.195   6.061  72.051  1.00  0.00    -0.151 A  
HETATM    6  C   UNL     1      -9.159   5.610  73.398  1.00  0.00    -0.129 A  
HETATM    7  C   UNL     1      -8.934   6.513  74.443  1.00  0.00    -0.186 A  
HETATM    8  C   UNL     1      -9.352   4.257  73.706  1.00  0.00    -0.109 A  
HETATM    9  C   UNL     1      -8.741   7.862  74.186  1.00  0.00    -0.263 A  
HETATM   10  C   UNL     1      -9.533   3.310  72.703  1.00  0.00    -0.162 A  
HETATM   11  C   UNL     1      -8.799   8.332  72.878  1.00  0.00    -0.302 A  
HETATM   12  C   UNL     1      -9.023   7.461  71.793  1.00  0.00    -0.135 A  
BRANCH  12  13
HETATM   13  C   UNL     1      -9.185   8.038  70.390  1.00  0.00    -0.155 C  
BRANCH  13  14
HETATM   14  C   UNL     1      -8.952   9.550  70.239  1.00  0.00    -0.248 C  
BRANCH  14  15
HETATM   15  N   UNL     1     -10.184  10.313  70.099  1.00  0.00    -0.424 N  
HETATM   16  C   UNL     1     -10.629  10.767  68.880  1.00  0.00    -0.216 C  
HETATM   17  H   UNL     1     -10.736  10.516  70.932  1.00  0.00     0.000 HD 
HETATM   18  C   UNL     1     -11.873  11.613  68.950  1.00  0.00    -0.392 C  
HETATM   19  O   UNL     1     -10.081  10.512  67.813  1.00  0.00    -0.166 OA 
ENDBRANCH  14  15
ENDBRANCH  13  14
ENDBRANCH  12  13
ENDBRANCH   2   3
TORSDOF 4
ENDMDL
MODEL      217
REMARK 921   NORMALIZED FREE ENERGY PREDICTED BY IDOCK:   -2.78 KCAL/MOL
REMARK 922        TOTAL FREE ENERGY PREDICTED BY IDOCK:   -3.86 KCAL/MOL
REMARK 923 INTER-LIGAND FREE ENERGY PREDICTED BY IDOCK:   -3.64 KCAL/MOL
REMARK 924 INTRA-LIGAND FREE ENERGY PREDICTED BY IDOCK:   -0.22 KCAL/MOL
REMARK 927      BINDING AFFINITY PREDICTED BY RF-SCORE:    0.00 PKD
ROOT
HETATM    1  C   UNL     1      -9.028   2.280  69.926  1.00  0.00    -0.095 C  
HETATM    2  O   UNL     1      -8.993   3.516  69.212  1.00  0.00    -0.094 OA 
ENDROOT
BRANCH   2   3
HETATM    3  C   UNL     1      -9.552   4.573  69.881  1.00  0.00    -0.199 A  
HETATM    4  C   UNL     1      -9.402   5.832  69.285  1.00  0.00    -0.148 A  
HETATM    5  C   UNL     1      -9.894   7.021  69.891  1.00  0.00    -0.173 A  
HETATM    6  C   UNL     1     -10.574   6.865  71.128  1.00  0.00    -0.246 A  
HETATM    7  C   UNL     1     -11.063   7.981  71.816  1.00  0.00    -0.313 A  
HETATM    8  C   UNL     1     -10.774   5.593  71.681  1.00  0.00    -0.313 A  
HETATM    9  C   UNL     1     -10.891   9.260  71.306  1.00  0.00    -0.417 A  
HETATM   10  C   UNL     1     -10.269   4.453  71.063  1.00  0.00    -0.121 A  
HETATM   11  C   UNL     1     -10.252   9.436  70.083  1.00  0.00    -0.271 A  
HETATM   12  C   UNL     1      -9.744   8.342  69.355  1.00  0.00    -0.177 A  
BRANCH  12  13
HETATM   13  C   UNL     1      -9.146   8.576  67.970  1.00  0.00    -0.144 C  
BRANCH  13  14
HETATM   14  C   UNL     1      -9.961   8.057  66.774  1.00  0.00    -0.274 C  
BRANCH  14  15
HETATM   15  N   UNL     1      -9.136   7.490  65.717  1.00  0.00    -0.380 N  
HETATM   16  C   UNL     1      -9.030   6.133  65.520  1.00  0.00     0.012 C  
HETATM   17  H   UNL     1      -8.620   8.119  65.102  1.00  0.00     0.000 HD 
HETATM   18  C   UNL     1      -8.060   5.738  64.438  1.00  0.00    -0.133 C  
HETATM   19  O   UNL     1      -9.668   5.298  66.152  1.00  0.00    -0.156 OA 
ENDBRANCH  14  15
ENDBRANCH  13  14
ENDBRANCH  12  13
ENDBRANCH   2   3
TORSDOF 4
ENDMDL
MODEL      218
REMARK 921   NORMALIZED FREE ENERGY PREDICTED BY IDOCK:   -2.77 KCAL/MOL
REMARK 922        TOTAL FREE ENERGY PREDICTED BY IDOCK:   -3.85 KCAL/MOL
REMARK 923 INTER-LIGAND FREE ENERGY PREDICTED BY IDOCK:   -3.56 KCAL/MOL
REMARK 924 INTRA-LIGAND FREE ENERGY PREDICTED BY IDOCK:   -0.29 KCAL/MOL
REMARK 927      BINDING AFFINITY PREDICTED BY RF-SCORE:    0.00 PKD
ROOT
HETATM    1  C   UNL     1      -7.827  10.326  67.659  1.00  0.00    -0.098 C  
HETATM    2  O   UNL     1      -6.950   9.499  68.424  1.00  0.00    -0.065 OA 
ENDROOT
BRANCH   2   3
HETATM    3  C   UNL     1      -7.337   8.187  68.506  1.00  0.00    -0.093 A  
HETATM    4  C   UNL     1      -8.296   7.884  69.482  1.00  0.00    -0.131 A  
HETATM    5  C   UNL     1      -8.755   6.557  69.706  1.00  0.00    -0.143 A  
HETATM    6  C   UNL     1      -8.210   5.549  68.866  1.00  0.00    -0.099 A  
HETATM    7  C   UNL     1      -8.577   4.210  69.035  1.00  0.00    -0.111 A  
HETATM    8  C   UNL     1      -7.301   5.876  67.851  1.00  0.00    -0.077 A  
HETATM    9  C   UNL     1      -9.476   3.839  70.024  1.00  0.00    -0.264 A  
HETATM   10  C   UNL     1      -6.866   7.185  67.669  1.00  0.00    -0.074 A  
HETATM   11  C   UNL     1     -10.044   4.812  70.841  1.00  0.00    -0.275 A  
HETATM   12  C   UNL     1      -9.705   6.173  70.708  1.00  0.00    -0.205 A  
BRANCH  12  13
HETATM   13  C   UNL     1     -10.435   7.212  71.555  1.00  0.00    -0.221 C  
BRANCH  13  14
HETATM   14  C   UNL     1     -11.940   7.378  71.292  1.00  0.00    -0.313 C  
BRANCH  14  15
HETATM   15  N   UNL     1     -12.454   8.683  71.684  1.00  0.00    -0.321 N  
HETATM   16  C   UNL     1     -12.140   9.830  70.995  1.00  0.00    -0.346 C  
HETATM   17  H   UNL     1     -13.067   8.748  72.497  1.00  0.00     0.000 HD 
HETATM   18  C   UNL     1     -12.692  11.091  71.606  1.00  0.00    -0.483 C  
HETATM   19  O   UNL     1     -11.478   9.849  69.963  1.00  0.00    -0.247 OA 
ENDBRANCH  14  15
ENDBRANCH  13  14
ENDBRANCH  12  13
ENDBRANCH   2   3
TORSDOF 4
ENDMDL
MODEL      219
REMARK 921   NORMALIZED FREE ENERGY PREDICTED BY IDOCK:   -2.76 KCAL/MOL
REMARK 922        TOTAL FREE ENERGY PREDICTED BY IDOCK:   -3.84 KCAL/MOL
REMARK 923 INTER-LIGAND FREE ENERGY PREDICTED BY IDOCK:   -3.46 KCAL/MOL
REMARK 924 INTRA-LIGAND FREE ENERGY PREDICTED BY IDOCK:   -0.39 KCAL/MOL
REMARK 927      BINDING AFFINITY PREDICTED BY RF-SCORE:    0.00 PKD
ROOT
HETATM    1  C   UNL     1      -6.122  10.594  66.210  1.00  0.00    -0.111 C  
HETATM    2  O   UNL     1      -5.554   9.716  67.182  1.00  0.00    -0.046 OA 
ENDROOT
BRANCH   2   3
HETATM    3  C   UNL     1      -6.363   8.670  67.542  1.00  0.00    -0.057 A  
HETATM    4  C   UNL     1      -7.735   8.842  67.313  1.00  0.00    -0.096 A  
HETATM    5  C   UNL     1      -8.693   7.856  67.678  1.00  0.00    -0.126 A  
HETATM    6  C   UNL     1      -8.184   6.667  68.266  1.00  0.00    -0.114 A  
HETATM    7  C   UNL     1      -9.054   5.656  68.688  1.00  0.00    -0.124 A  
HETATM    8  C   UNL     1      -6.805   6.482  68.429  1.00  0.00    -0.071 A  
HETATM    9  C   UNL     1     -10.426   5.794  68.544  1.00  0.00    -0.290 A  
HETATM   10  C   UNL     1      -5.898   7.474  68.070  1.00  0.00    -0.032 A  
HETATM   11  C   UNL     1     -10.947   6.937  67.946  1.00  0.00    -0.260 A  
HETATM   12  C   UNL     1     -10.110   7.981  67.505  1.00  0.00    -0.281 A  
BRANCH  12  13
HETATM   13  C   UNL     1     -10.721   9.166  66.760  1.00  0.00    -0.108 C  
BRANCH  13  14
HETATM   14  C   UNL     1     -11.124  10.379  67.614  1.00  0.00    -0.293 C  
BRANCH  14  15
HETATM   15  N   UNL     1     -10.488  11.619  67.192  1.00  0.00    -0.213 N  
HETATM   16  C   UNL     1     -11.119  12.523  66.370  1.00  0.00    -0.290 C  
HETATM   17  H   UNL     1      -9.542  11.823  67.517  1.00  0.00     0.000 HD 
HETATM   18  C   UNL     1     -10.266  13.698  65.972  1.00  0.00    -0.312 C  
HETATM   19  O   UNL     1     -12.278  12.407  65.990  1.00  0.00    -0.636 OA 
ENDBRANCH  14  15
ENDBRANCH  13  14
ENDBRANCH  12  13
ENDBRANCH   2   3
TORSDOF 4
ENDMDL
MODEL      220
REMARK 921   NORMALIZED FREE ENERGY PREDICTED BY IDOCK:   -2.73 KCAL/MOL
REMARK 922        TOTAL FREE ENERGY PREDICTED BY IDOCK:   -3.80 KCAL/MOL
REMARK 923 INTER-LIGAND FREE ENERGY PREDICTED BY IDOCK:   -3.60 KCAL/MOL
REMARK 924 INTRA-LIGAND FREE ENERGY PREDICTED BY IDOCK:   -0.20 KCAL/MOL
REMARK 927      BINDING AFFINITY PREDICTED BY RF-SCORE:    0.00 PKD
ROOT
HETATM    1  C   UNL     1      -5.837  13.558  69.571  1.00  0.00    -0.104 C  
HETATM    2  O   UNL     1      -6.150  12.200  69.880  1.00  0.00    -0.132 OA 
ENDROOT
BRANCH   2   3
HETATM    3  C   UNL     1      -7.052  11.618  69.027  1.00  0.00    -0.108 A  
HETATM    4  C   UNL     1      -7.659  10.439  69.480  1.00  0.00    -0.158 A  
HETATM    5  C   UNL     1      -8.580   9.707  68.681  1.00  0.00    -0.120 A  
HETATM    6  C   UNL     1      -8.878  10.249  67.403  1.00  0.00    -0.134 A  
HETATM    7  C   UNL     1      -9.748   9.581  66.534  1.00  0.00    -0.284 A  
HETATM    8  C   UNL     1      -8.314  11.463  66.989  1.00  0.00    -0.161 A  
HETATM    9  C   UNL     1     -10.333   8.378  66.901  1.00  0.00    -0.378 A  
HETATM   10  C   UNL     1      -7.407  12.146  67.795  1.00  0.00    -0.114 A  
HETATM   11  C   UNL     1     -10.078   7.842  68.159  1.00  0.00    -0.220 A  
HETATM   12  C   UNL     1      -9.210   8.478  69.067  1.00  0.00    -0.146 A  
BRANCH  12  13
HETATM   13  C   UNL     1      -9.046   7.906  70.473  1.00  0.00    -0.154 C  
BRANCH  13  14
HETATM   14  C   UNL     1     -10.104   8.318  71.509  1.00  0.00    -0.208 C  
BRANCH  14  15
HETATM   15  N   UNL     1     -11.461   7.961  71.120  1.00  0.00    -0.270 N  
HETATM   16  C   UNL     1     -12.555   8.315  71.874  1.00  0.00    -0.344 C  
HETATM   17  H   UNL     1     -11.605   7.432  70.260  1.00  0.00     0.000 HD 
HETATM   18  C   UNL     1     -13.864   7.777  71.357  1.00  0.00    -0.384 C  
HETATM   19  O   UNL     1     -12.496   9.014  72.880  1.00  0.00    -0.178 OA 
ENDBRANCH  14  15
ENDBRANCH  13  14
ENDBRANCH  12  13
ENDBRANCH   2   3
TORSDOF 4
ENDMDL
MODEL      221
REMARK 921   NORMALIZED FREE ENERGY PREDICTED BY IDOCK:   -2.72 KCAL/MOL
REMARK 922        TOTAL FREE ENERGY PREDICTED BY IDOCK:   -3.79 KCAL/MOL
REMARK 923 INTER-LIGAND FREE ENERGY PREDICTED BY IDOCK:   -3.22 KCAL/MOL
REMARK 924 INTRA-LIGAND FREE ENERGY PREDICTED BY IDOCK:   -0.57 KCAL/MOL
REMARK 927      BINDING AFFINITY PREDICTED BY RF-SCORE:    0.00 PKD
ROOT
HETATM    1  C   UNL     1      -6.344   2.337  69.634  1.00  0.00    -0.028 C  
HETATM    2  O   UNL     1      -7.718   2.683  69.452  1.00  0.00    -0.044 OA 
ENDROOT
BRANCH   2   3
HETATM    3  C   UNL     1      -7.924   3.800  68.685  1.00  0.00    -0.066 A  
HETATM    4  C   UNL     1      -9.043   4.577  69.013  1.00  0.00    -0.172 A  
HETATM    5  C   UNL     1      -9.401   5.738  68.274  1.00  0.00    -0.123 A  
HETATM    6  C   UNL     1      -8.547   6.089  67.195  1.00  0.00    -0.106 A  
HETATM    7  C   UNL     1      -8.838   7.196  66.390  1.00  0.00    -0.161 A  
HETATM    8  C   UNL     1      -7.395   5.340  66.920  1.00  0.00    -0.086 A  
HETATM    9  C   UNL     1      -9.965   7.969  66.627  1.00  0.00    -0.326 A  
HETATM   10  C   UNL     1      -7.082   4.203  67.659  1.00  0.00    -0.063 A  
HETATM   11  C   UNL     1     -10.802   7.661  67.694  1.00  0.00    -0.171 A  
HETATM   12  C   UNL     1     -10.550   6.556  68.532  1.00  0.00    -0.291 A  
BRANCH  12  13
HETATM   13  C   UNL     1     -11.437   6.323  69.752  1.00  0.00    -0.449 C  
BRANCH  13  14
HETATM   14  C   UNL     1     -11.514   7.469  70.774  1.00  0.00    -0.284 C  
BRANCH  14  15
HETATM   15  N   UNL     1     -10.344   7.552  71.636  1.00  0.00    -0.193 N  
HETATM   16  C   UNL     1      -9.356   8.488  71.442  1.00  0.00    -0.211 C  
HETATM   17  H   UNL     1     -10.255   6.894  72.411  1.00  0.00     0.000 HD 
HETATM   18  C   UNL     1      -8.185   8.356  72.379  1.00  0.00    -0.202 C  
HETATM   19  O   UNL     1      -9.407   9.369  70.591  1.00  0.00    -0.248 OA 
ENDBRANCH  14  15
ENDBRANCH  13  14
ENDBRANCH  12  13
ENDBRANCH   2   3
TORSDOF 4
ENDMDL
MODEL      222
REMARK 921   NORMALIZED FREE ENERGY PREDICTED BY IDOCK:   -2.71 KCAL/MOL
REMARK 922        TOTAL FREE ENERGY PREDICTED BY IDOCK:   -3.78 KCAL/MOL
REMARK 923 INTER-LIGAND FREE ENERGY PREDICTED BY IDOCK:   -3.46 KCAL/MOL
REMARK 924 INTRA-LIGAND FREE ENERGY PREDICTED BY IDOCK:   -0.32 KCAL/MOL
REMARK 927      BINDING AFFINITY PREDICTED BY RF-SCORE:    0.00 PKD
ROOT
HETATM    1  C   UNL     1      -6.420   8.828  65.883  1.00  0.00    -0.057 C  
HETATM    2  O   UNL     1      -5.879   7.785  66.694  1.00  0.00    -0.038 OA 
ENDROOT
BRANCH   2   3
HETATM    3  C   UNL     1      -6.819   7.026  67.342  1.00  0.00    -0.073 A  
HETATM    4  C   UNL     1      -7.749   7.725  68.122  1.00  0.00    -0.119 A  
HETATM    5  C   UNL     1      -8.751   7.062  68.882  1.00  0.00    -0.131 A  
HETATM    6  C   UNL     1      -8.780   5.645  68.789  1.00  0.00    -0.106 A  
HETATM    7  C   UNL     1      -9.709   4.905  69.528  1.00  0.00    -0.266 A  
HETATM    8  C   UNL     1      -7.886   4.963  67.955  1.00  0.00    -0.086 A  
HETATM    9  C   UNL     1     -10.617   5.537  70.365  1.00  0.00    -0.350 A  
HETATM   10  C   UNL     1      -6.911   5.646  67.234  1.00  0.00    -0.064 A  
HETATM   11  C   UNL     1     -10.626   6.925  70.451  1.00  0.00    -0.247 A  
HETATM   12  C   UNL     1      -9.709   7.713  69.727  1.00  0.00    -0.171 A  
BRANCH  12  13
HETATM   13  C   UNL     1      -9.828   9.234  69.773  1.00  0.00    -0.202 C  
BRANCH  13  14
HETATM   14  C   UNL     1     -11.247   9.815  69.655  1.00  0.00    -0.178 C  
BRANCH  14  15
HETATM   15  N   UNL     1     -11.408  10.716  68.523  1.00  0.00    -0.336 N  
HETATM   16  C   UNL     1     -11.662  12.058  68.685  1.00  0.00    -0.326 C  
HETATM   17  H   UNL     1     -11.331  10.340  67.578  1.00  0.00     0.000 HD 
HETATM   18  C   UNL     1     -11.888  12.806  67.398  1.00  0.00    -0.404 C  
HETATM   19  O   UNL     1     -11.696  12.620  69.774  1.00  0.00    -0.309 OA 
ENDBRANCH  14  15
ENDBRANCH  13  14
ENDBRANCH  12  13
ENDBRANCH   2   3
TORSDOF 4
ENDMDL
MODEL      223
REMARK 921   NORMALIZED FREE ENERGY PREDICTED BY IDOCK:   -2.71 KCAL/MOL
REMARK 922        TOTAL FREE ENERGY PREDICTED BY IDOCK:   -3.78 KCAL/MOL
REMARK 923 INTER-LIGAND FREE ENERGY PREDICTED BY IDOCK:   -3.29 KCAL/MOL
REMARK 924 INTRA-LIGAND FREE ENERGY PREDICTED BY IDOCK:   -0.48 KCAL/MOL
REMARK 927      BINDING AFFINITY PREDICTED BY RF-SCORE:    0.00 PKD
ROOT
HETATM    1  C   UNL     1      -9.344   3.298  64.878  1.00  0.00    -0.149 C  
HETATM    2  O   UNL     1      -8.156   4.062  65.085  1.00  0.00    -0.096 OA 
ENDROOT
BRANCH   2   3
HETATM    3  C   UNL     1      -8.369   5.405  65.254  1.00  0.00    -0.142 A  
HETATM    4  C   UNL     1      -9.290   5.766  66.246  1.00  0.00    -0.171 A  
HETATM    5  C   UNL     1      -9.640   7.121  66.499  1.00  0.00    -0.203 A  
HETATM    6  C   UNL     1      -8.983   8.101  65.709  1.00  0.00    -0.165 A  
HETATM    7  C   UNL     1      -9.287   9.458  65.863  1.00  0.00    -0.290 A  
HETATM    8  C   UNL     1      -8.015   7.731  64.766  1.00  0.00    -0.142 A  
HETATM    9  C   UNL     1     -10.236   9.872  66.787  1.00  0.00    -0.301 A  
HETATM   10  C   UNL     1      -7.707   6.392  64.538  1.00  0.00    -0.108 A  
HETATM   11  C   UNL     1     -10.872   8.933  67.591  1.00  0.00    -0.112 A  
HETATM   12  C   UNL     1     -10.599   7.556  67.472  1.00  0.00    -0.331 A  
BRANCH  12  13
HETATM   13  C   UNL     1     -11.244   6.576  68.449  1.00  0.00    -0.274 C  
BRANCH  13  14
HETATM   14  C   UNL     1     -10.429   6.221  69.703  1.00  0.00    -0.238 C  
BRANCH  14  15
HETATM   15  N   UNL     1     -10.229   4.790  69.875  1.00  0.00    -0.235 N  
HETATM   16  C   UNL     1      -9.003   4.195  69.693  1.00  0.00    -0.101 C  
HETATM   17  H   UNL     1     -11.025   4.208  70.138  1.00  0.00     0.000 HD 
HETATM   18  C   UNL     1      -9.016   2.695  69.826  1.00  0.00    -0.167 C  
HETATM   19  O   UNL     1      -7.972   4.813  69.453  1.00  0.00    -0.069 OA 
ENDBRANCH  14  15
ENDBRANCH  13  14
ENDBRANCH  12  13
ENDBRANCH   2   3
TORSDOF 4
ENDMDL
MODEL      224
REMARK 921   NORMALIZED FREE ENERGY PREDICTED BY IDOCK:   -2.67 KCAL/MOL
REMARK 922        TOTAL FREE ENERGY PREDICTED BY IDOCK:   -3.73 KCAL/MOL
REMARK 923 INTER-LIGAND FREE ENERGY PREDICTED BY IDOCK:   -3.38 KCAL/MOL
REMARK 924 INTRA-LIGAND FREE ENERGY PREDICTED BY IDOCK:   -0.35 KCAL/MOL
REMARK 927      BINDING AFFINITY PREDICTED BY RF-SCORE:    0.00 PKD
ROOT
HETATM    1  C   UNL     1     -12.573  13.874  65.471  1.00  0.00    -0.526 C  
HETATM    2  O   UNL     1     -11.530  12.914  65.303  1.00  0.00    -0.297 OA 
ENDROOT
BRANCH   2   3
HETATM    3  C   UNL     1     -11.184  12.246  66.449  1.00  0.00    -0.324 A  
HETATM    4  C   UNL     1      -9.873  11.756  66.508  1.00  0.00    -0.228 A  
HETATM    5  C   UNL     1      -9.393  11.008  67.617  1.00  0.00    -0.162 A  
HETATM    6  C   UNL     1     -10.307  10.803  68.685  1.00  0.00    -0.208 A  
HETATM    7  C   UNL     1      -9.935  10.050  69.803  1.00  0.00    -0.276 A  
HETATM    8  C   UNL     1     -11.594  11.354  68.641  1.00  0.00    -0.384 A  
HETATM    9  C   UNL     1      -8.671   9.487  69.892  1.00  0.00    -0.224 A  
HETATM   10  C   UNL     1     -12.033  12.073  67.532  1.00  0.00    -0.144 A  
HETATM   11  C   UNL     1      -7.748   9.697  68.872  1.00  0.00    -0.077 A  
HETATM   12  C   UNL     1      -8.077  10.448  67.726  1.00  0.00    -0.103 A  
BRANCH  12  13
HETATM   13  C   UNL     1      -6.999  10.739  66.686  1.00  0.00    -0.129 C  
BRANCH  13  14
HETATM   14  C   UNL     1      -5.855   9.716  66.579  1.00  0.00    -0.054 C  
BRANCH  14  15
HETATM   15  N   UNL     1      -6.221   8.517  65.839  1.00  0.00    -0.051 N  
HETATM   16  C   UNL     1      -6.205   8.472  64.465  1.00  0.00    -0.066 C  
HETATM   17  H   UNL     1      -6.498   7.683  66.357  1.00  0.00     0.000 HD 
HETATM   18  C   UNL     1      -6.703   7.176  63.882  1.00  0.00    -0.044 C  
HETATM   19  O   UNL     1      -5.815   9.392  63.755  1.00  0.00    -0.084 OA 
ENDBRANCH  14  15
ENDBRANCH  13  14
ENDBRANCH  12  13
ENDBRANCH   2   3
TORSDOF 4
ENDMDL
MODEL      225
REMARK 921   NORMALIZED FREE ENERGY PREDICTED BY IDOCK:   -2.66 KCAL/MOL
REMARK 922        TOTAL FREE ENERGY PREDICTED BY IDOCK:   -3.71 KCAL/MOL
REMARK 923 INTER-LIGAND FREE ENERGY PREDICTED BY IDOCK:   -3.53 KCAL/MOL
REMARK 924 INTRA-LIGAND FREE ENERGY PREDICTED BY IDOCK:   -0.19 KCAL/MOL
REMARK 927      BINDING AFFINITY PREDICTED BY RF-SCORE:    0.00 PKD
ROOT
HETATM    1  C   UNL     1      -7.529   2.112  71.838  1.00  0.00    -0.040 C  
HETATM    2  O   UNL     1      -8.843   2.621  71.602  1.00  0.00    -0.071 OA 
ENDROOT
BRANCH   2   3
HETATM    3  C   UNL     1      -9.077   3.007  70.308  1.00  0.00    -0.120 A  
HETATM    4  C   UNL     1      -9.518   4.324  70.126  1.00  0.00    -0.252 A  
HETATM    5  C   UNL     1      -9.841   4.844  68.843  1.00  0.00    -0.241 A  
HETATM    6  C   UNL     1      -9.667   3.964  67.742  1.00  0.00    -0.144 A  
HETATM    7  C   UNL     1      -9.992   4.376  66.445  1.00  0.00    -0.252 A  
HETATM    8  C   UNL     1      -9.164   2.670  67.932  1.00  0.00    -0.252 A  
HETATM    9  C   UNL     1     -10.490   5.649  66.209  1.00  0.00    -0.181 A  
HETATM   10  C   UNL     1      -8.869   2.192  69.205  1.00  0.00    -0.144 A  
HETATM   11  C   UNL     1     -10.643   6.538  67.267  1.00  0.00    -0.383 A  
HETATM   12  C   UNL     1     -10.329   6.168  68.590  1.00  0.00    -0.250 A  
BRANCH  12  13
HETATM   13  C   UNL     1     -10.413   7.213  69.700  1.00  0.00    -0.241 C  
BRANCH  13  14
HETATM   14  C   UNL     1      -9.673   8.537  69.453  1.00  0.00    -0.177 C  
BRANCH  14  15
HETATM   15  N   UNL     1     -10.468   9.515  68.723  1.00  0.00    -0.215 N  
HETATM   16  C   UNL     1     -11.044  10.599  69.343  1.00  0.00    -0.260 C  
HETATM   17  H   UNL     1     -10.602   9.392  67.719  1.00  0.00     0.000 HD 
HETATM   18  C   UNL     1     -11.903  11.444  68.440  1.00  0.00    -0.344 C  
HETATM   19  O   UNL     1     -10.880  10.878  70.526  1.00  0.00     0.040 OA 
ENDBRANCH  14  15
ENDBRANCH  13  14
ENDBRANCH  12  13
ENDBRANCH   2   3
TORSDOF 4
ENDMDL
MODEL      226
REMARK 921   NORMALIZED FREE ENERGY PREDICTED BY IDOCK:   -2.64 KCAL/MOL
REMARK 922        TOTAL FREE ENERGY PREDICTED BY IDOCK:   -3.70 KCAL/MOL
REMARK 923 INTER-LIGAND FREE ENERGY PREDICTED BY IDOCK:   -3.22 KCAL/MOL
REMARK 924 INTRA-LIGAND FREE ENERGY PREDICTED BY IDOCK:   -0.48 KCAL/MOL
REMARK 927      BINDING AFFINITY PREDICTED BY RF-SCORE:    0.00 PKD
ROOT
HETATM    1  C   UNL     1     -10.646  16.467  67.063  1.00  0.00    -0.260 C  
HETATM    2  O   UNL     1      -9.580  15.610  66.650  1.00  0.00    -0.225 OA 
ENDROOT
BRANCH   2   3
HETATM    3  C   UNL     1      -8.669  15.326  67.634  1.00  0.00    -0.172 A  
HETATM    4  C   UNL     1      -8.187  14.010  67.669  1.00  0.00    -0.185 A  
HETATM    5  C   UNL     1      -7.272  13.565  68.661  1.00  0.00    -0.107 A  
HETATM    6  C   UNL     1      -6.846  14.534  69.608  1.00  0.00    -0.142 A  
HETATM    7  C   UNL     1      -5.972  14.180  70.642  1.00  0.00    -0.194 A  
HETATM    8  C   UNL     1      -7.285  15.862  69.522  1.00  0.00    -0.174 A  
HETATM    9  C   UNL     1      -5.508  12.879  70.766  1.00  0.00    -0.178 A  
HETATM   10  C   UNL     1      -8.190  16.258  68.542  1.00  0.00    -0.195 A  
HETATM   11  C   UNL     1      -5.890  11.919  69.834  1.00  0.00    -0.137 A  
HETATM   12  C   UNL     1      -6.767  12.228  68.776  1.00  0.00    -0.089 A  
BRANCH  12  13
HETATM   13  C   UNL     1      -7.072  11.168  67.721  1.00  0.00    -0.086 C  
BRANCH  13  14
HETATM   14  C   UNL     1      -8.201  10.178  68.049  1.00  0.00    -0.113 C  
BRANCH  14  15
HETATM   15  N   UNL     1      -9.532  10.744  67.880  1.00  0.00    -0.155 N  
HETATM   16  C   UNL     1     -10.463  10.741  68.892  1.00  0.00    -0.205 C  
HETATM   17  H   UNL     1      -9.782  11.157  66.982  1.00  0.00     0.000 HD 
HETATM   18  C   UNL     1     -11.809  11.288  68.498  1.00  0.00    -0.355 C  
HETATM   19  O   UNL     1     -10.236  10.340  70.029  1.00  0.00    -0.246 OA 
ENDBRANCH  14  15
ENDBRANCH  13  14
ENDBRANCH  12  13
ENDBRANCH   2   3
TORSDOF 4
ENDMDL
MODEL      227
REMARK 921   NORMALIZED FREE ENERGY PREDICTED BY IDOCK:   -2.64 KCAL/MOL
REMARK 922        TOTAL FREE ENERGY PREDICTED BY IDOCK:   -3.69 KCAL/MOL
REMARK 923 INTER-LIGAND FREE ENERGY PREDICTED BY IDOCK:   -3.39 KCAL/MOL
REMARK 924 INTRA-LIGAND FREE ENERGY PREDICTED BY IDOCK:   -0.30 KCAL/MOL
REMARK 927      BINDING AFFINITY PREDICTED BY RF-SCORE:    0.00 PKD
ROOT
HETATM    1  C   UNL     1      -6.612   9.774  67.269  1.00  0.00    -0.070 C  
HETATM    2  O   UNL     1      -7.015   8.677  66.449  1.00  0.00    -0.076 OA 
ENDROOT
BRANCH   2   3
HETATM    3  C   UNL     1      -7.558   7.623  67.137  1.00  0.00    -0.104 A  
HETATM    4  C   UNL     1      -8.583   7.936  68.039  1.00  0.00    -0.126 A  
HETATM    5  C   UNL     1      -9.205   6.948  68.851  1.00  0.00    -0.132 A  
HETATM    6  C   UNL     1      -8.751   5.613  68.681  1.00  0.00    -0.106 A  
HETATM    7  C   UNL     1      -9.281   4.579  69.460  1.00  0.00    -0.192 A  
HETATM    8  C   UNL     1      -7.771   5.305  67.729  1.00  0.00    -0.091 A  
HETATM    9  C   UNL     1     -10.256   4.835  70.413  1.00  0.00    -0.261 A  
HETATM   10  C   UNL     1      -7.177   6.301  66.960  1.00  0.00    -0.075 A  
HETATM   11  C   UNL     1     -10.736   6.130  70.578  1.00  0.00    -0.340 A  
HETATM   12  C   UNL     1     -10.233   7.204  69.817  1.00  0.00    -0.215 A  
BRANCH  12  13
HETATM   13  C   UNL     1     -10.866   8.585  69.960  1.00  0.00    -0.225 C  
BRANCH  13  14
HETATM   14  C   UNL     1     -10.351   9.459  71.115  1.00  0.00    -0.307 C  
BRANCH  14  15
HETATM   15  N   UNL     1      -9.977   8.693  72.295  1.00  0.00    -0.311 N  
HETATM   16  C   UNL     1      -8.666   8.538  72.682  1.00  0.00    -0.139 C  
HETATM   17  H   UNL     1     -10.710   8.258  72.854  1.00  0.00     0.000 HD 
HETATM   18  C   UNL     1      -8.474   7.637  73.873  1.00  0.00    -0.270 C  
HETATM   19  O   UNL     1      -7.720   9.084  72.125  1.00  0.00    -0.351 OA 
ENDBRANCH  14  15
ENDBRANCH  13  14
ENDBRANCH  12  13
ENDBRANCH   2   3
TORSDOF 4
ENDMDL
MODEL      228
REMARK 921   NORMALIZED FREE ENERGY PREDICTED BY IDOCK:   -2.64 KCAL/MOL
REMARK 922        TOTAL FREE ENERGY PREDICTED BY IDOCK:   -3.69 KCAL/MOL
REMARK 923 INTER-LIGAND FREE ENERGY PREDICTED BY IDOCK:   -3.11 KCAL/MOL
REMARK 924 INTRA-LIGAND FREE ENERGY PREDICTED BY IDOCK:   -0.58 KCAL/MOL
REMARK 927      BINDING AFFINITY PREDICTED BY RF-SCORE:    0.00 PKD
ROOT
HETATM    1  C   UNL     1      -6.113   5.741  72.777  1.00  0.00    -0.047 C  
HETATM    2  O   UNL     1      -5.911   4.836  71.692  1.00  0.00    -0.015 OA 
ENDROOT
BRANCH   2   3
HETATM    3  C   UNL     1      -6.874   4.895  70.718  1.00  0.00    -0.040 A  
HETATM    4  C   UNL     1      -7.778   5.962  70.806  1.00  0.00    -0.097 A  
HETATM    5  C   UNL     1      -8.853   6.121  69.888  1.00  0.00    -0.140 A  
HETATM    6  C   UNL     1      -8.950   5.152  68.854  1.00  0.00    -0.122 A  
HETATM    7  C   UNL     1      -9.995   5.208  67.926  1.00  0.00    -0.202 A  
HETATM    8  C   UNL     1      -8.001   4.128  68.740  1.00  0.00    -0.072 A  
HETATM    9  C   UNL     1     -10.956   6.206  67.997  1.00  0.00    -0.399 A  
HETATM   10  C   UNL     1      -6.968   3.998  69.664  1.00  0.00    -0.042 A  
HETATM   11  C   UNL     1     -10.866   7.182  68.984  1.00  0.00    -0.172 A  
HETATM   12  C   UNL     1      -9.832   7.167  69.941  1.00  0.00    -0.174 A  
BRANCH  12  13
HETATM   13  C   UNL     1      -9.716   8.318  70.937  1.00  0.00    -0.204 C  
BRANCH  13  14
HETATM   14  C   UNL     1     -10.712   8.313  72.109  1.00  0.00    -0.319 C  
BRANCH  14  15
HETATM   15  N   UNL     1     -11.245   6.992  72.407  1.00  0.00    -0.258 N  
HETATM   16  C   UNL     1     -10.574   6.094  73.202  1.00  0.00    -0.248 C  
HETATM   17  H   UNL     1     -12.148   6.724  72.012  1.00  0.00     0.000 HD 
HETATM   18  C   UNL     1     -11.242   4.749  73.319  1.00  0.00    -0.421 C  
HETATM   19  O   UNL     1      -9.525   6.346  73.785  1.00  0.00    -0.140 OA 
ENDBRANCH  14  15
ENDBRANCH  13  14
ENDBRANCH  12  13
ENDBRANCH   2   3
TORSDOF 4
ENDMDL
MODEL      229
REMARK 921   NORMALIZED FREE ENERGY PREDICTED BY IDOCK:   -2.63 KCAL/MOL
REMARK 922        TOTAL FREE ENERGY PREDICTED BY IDOCK:   -3.68 KCAL/MOL
REMARK 923 INTER-LIGAND FREE ENERGY PREDICTED BY IDOCK:   -3.10 KCAL/MOL
REMARK 924 INTRA-LIGAND FREE ENERGY PREDICTED BY IDOCK:   -0.59 KCAL/MOL
REMARK 927      BINDING AFFINITY PREDICTED BY RF-SCORE:    0.00 PKD
ROOT
HETATM    1  C   UNL     1      -6.281   7.773  67.962  1.00  0.00    -0.046 C  
HETATM    2  O   UNL     1      -5.686   6.657  68.625  1.00  0.00    -0.016 OA 
ENDROOT
BRANCH   2   3
HETATM    3  C   UNL     1      -6.204   6.393  69.866  1.00  0.00    -0.031 A  
HETATM    4  C   UNL     1      -7.566   6.068  69.912  1.00  0.00    -0.081 A  
HETATM    5  C   UNL     1      -8.243   5.814  71.137  1.00  0.00    -0.122 A  
HETATM    6  C   UNL     1      -7.458   5.880  72.319  1.00  0.00    -0.099 A  
HETATM    7  C   UNL     1      -8.045   5.679  73.573  1.00  0.00    -0.113 A  
HETATM    8  C   UNL     1      -6.084   6.142  72.252  1.00  0.00    -0.042 A  
HETATM    9  C   UNL     1      -9.402   5.413  73.687  1.00  0.00    -0.133 A  
HETATM   10  C   UNL     1      -5.457   6.396  71.036  1.00  0.00    -0.022 A  
HETATM   11  C   UNL     1     -10.186   5.317  72.542  1.00  0.00    -0.237 A  
HETATM   12  C   UNL     1      -9.639   5.512  71.258  1.00  0.00    -0.198 A  
BRANCH  12  13
HETATM   13  C   UNL     1     -10.517   5.291  70.029  1.00  0.00    -0.351 C  
BRANCH  13  14
HETATM   14  C   UNL     1     -11.459   6.443  69.642  1.00  0.00    -0.378 C  
BRANCH  14  15
HETATM   15  N   UNL     1     -11.182   6.996  68.324  1.00  0.00    -0.509 N  
HETATM   16  C   UNL     1     -10.397   8.111  68.148  1.00  0.00    -0.201 C  
HETATM   17  H   UNL     1     -11.584   6.541  67.504  1.00  0.00     0.000 HD 
HETATM   18  C   UNL     1     -10.303   8.584  66.721  1.00  0.00    -0.346 C  
HETATM   19  O   UNL     1      -9.808   8.684  69.058  1.00  0.00    -0.173 OA 
ENDBRANCH  14  15
ENDBRANCH  13  14
ENDBRANCH  12  13
ENDBRANCH   2   3
TORSDOF 4
ENDMDL
MODEL      230
REMARK 921   NORMALIZED FREE ENERGY PREDICTED BY IDOCK:   -2.58 KCAL/MOL
REMARK 922        TOTAL FREE ENERGY PREDICTED BY IDOCK:   -3.63 KCAL/MOL
REMARK 923 INTER-LIGAND FREE ENERGY PREDICTED BY IDOCK:   -3.51 KCAL/MOL
REMARK 924 INTRA-LIGAND FREE ENERGY PREDICTED BY IDOCK:   -0.12 KCAL/MOL
REMARK 927      BINDING AFFINITY PREDICTED BY RF-SCORE:    0.00 PKD
ROOT
HETATM    1  C   UNL     1     -12.111  13.722  69.903  1.00  0.00    -0.348 C  
HETATM    2  O   UNL     1     -12.139  15.129  70.141  1.00  0.00    -0.301 OA 
ENDROOT
BRANCH   2   3
HETATM    3  C   UNL     1     -11.053  15.809  69.653  1.00  0.00    -0.307 A  
HETATM    4  C   UNL     1     -10.135  15.056  68.910  1.00  0.00    -0.234 A  
HETATM    5  C   UNL     1      -8.943  15.622  68.381  1.00  0.00    -0.185 A  
HETATM    6  C   UNL     1      -8.739  17.007  68.623  1.00  0.00    -0.261 A  
HETATM    7  C   UNL     1      -7.578  17.643  68.172  1.00  0.00    -0.234 A  
HETATM    8  C   UNL     1      -9.697  17.762  69.312  1.00  0.00     0.006 A  
HETATM    9  C   UNL     1      -6.604  16.937  67.482  1.00  0.00    -0.168 A  
HETATM   10  C   UNL     1     -10.848  17.170  69.824  1.00  0.00     0.237 A  
HETATM   11  C   UNL     1      -6.793  15.586  67.209  1.00  0.00    -0.168 A  
HETATM   12  C   UNL     1      -7.946  14.903  67.644  1.00  0.00    -0.184 A  
BRANCH  12  13
HETATM   13  C   UNL     1      -8.156  13.449  67.228  1.00  0.00    -0.147 C  
BRANCH  13  14
HETATM   14  C   UNL     1      -9.339  13.169  66.287  1.00  0.00    -0.127 C  
BRANCH  14  15
HETATM   15  N   UNL     1      -9.259  11.871  65.632  1.00  0.00    -0.412 N  
HETATM   16  C   UNL     1      -9.534  11.708  64.295  1.00  0.00    -0.024 C  
HETATM   17  H   UNL     1      -8.991  11.055  66.184  1.00  0.00     0.000 HD 
HETATM   18  C   UNL     1      -9.487  10.279  63.822  1.00  0.00    -0.352 C  
HETATM   19  O   UNL     1      -9.789  12.632  63.531  1.00  0.00    -0.297 OA 
ENDBRANCH  14  15
ENDBRANCH  13  14
ENDBRANCH  12  13
ENDBRANCH   2   3
TORSDOF 4
ENDMDL
MODEL      231
REMARK 921   NORMALIZED FREE ENERGY PREDICTED BY IDOCK:   -2.58 KCAL/MOL
REMARK 922        TOTAL FREE ENERGY PREDICTED BY IDOCK:   -3.62 KCAL/MOL
REMARK 923 INTER-LIGAND FREE ENERGY PREDICTED BY IDOCK:   -3.29 KCAL/MOL
REMARK 924 INTRA-LIGAND FREE ENERGY PREDICTED BY IDOCK:   -0.33 KCAL/MOL
REMARK 927      BINDING AFFINITY PREDICTED BY RF-SCORE:    0.00 PKD
ROOT
HETATM    1  C   UNL     1     -12.614  10.888  71.485  1.00  0.00    -0.375 C  
HETATM    2  O   UNL     1     -12.064   9.797  72.223  1.00  0.00    -0.129 OA 
ENDROOT
BRANCH   2   3
HETATM    3  C   UNL     1     -11.513   8.810  71.447  1.00  0.00    -0.297 A  
HETATM    4  C   UNL     1     -10.379   9.166  70.706  1.00  0.00    -0.323 A  
HETATM    5  C   UNL     1      -9.731   8.256  69.827  1.00  0.00    -0.180 A  
HETATM    6  C   UNL     1     -10.279   6.947  69.757  1.00  0.00    -0.210 A  
HETATM    7  C   UNL     1      -9.730   5.993  68.894  1.00  0.00    -0.159 A  
HETATM    8  C   UNL     1     -11.374   6.585  70.553  1.00  0.00    -0.426 A  
HETATM    9  C   UNL     1      -8.644   6.305  68.090  1.00  0.00    -0.116 A  
HETATM   10  C   UNL     1     -11.988   7.508  71.394  1.00  0.00    -0.336 A  
HETATM   11  C   UNL     1      -8.073   7.571  68.161  1.00  0.00    -0.124 A  
HETATM   12  C   UNL     1      -8.591   8.564  69.015  1.00  0.00    -0.130 A  
BRANCH  12  13
HETATM   13  C   UNL     1      -7.865   9.902  69.135  1.00  0.00    -0.105 C  
BRANCH  13  14
HETATM   14  C   UNL     1      -7.984  10.857  67.936  1.00  0.00    -0.111 C  
BRANCH  14  15
HETATM   15  N   UNL     1      -6.740  11.545  67.622  1.00  0.00    -0.073 N  
HETATM   16  C   UNL     1      -6.455  12.800  68.109  1.00  0.00    -0.085 C  
HETATM   17  H   UNL     1      -6.057  11.082  67.022  1.00  0.00     0.000 HD 
HETATM   18  C   UNL     1      -5.163  13.382  67.600  1.00  0.00    -0.004 C  
HETATM   19  O   UNL     1      -7.171  13.407  68.897  1.00  0.00    -0.103 OA 
ENDBRANCH  14  15
ENDBRANCH  13  14
ENDBRANCH  12  13
ENDBRANCH   2   3
TORSDOF 4
ENDMDL
MODEL      232
REMARK 921   NORMALIZED FREE ENERGY PREDICTED BY IDOCK:   -2.56 KCAL/MOL
REMARK 922        TOTAL FREE ENERGY PREDICTED BY IDOCK:   -3.60 KCAL/MOL
REMARK 923 INTER-LIGAND FREE ENERGY PREDICTED BY IDOCK:   -3.08 KCAL/MOL
REMARK 924 INTRA-LIGAND FREE ENERGY PREDICTED BY IDOCK:   -0.51 KCAL/MOL
REMARK 927      BINDING AFFINITY PREDICTED BY RF-SCORE:    0.00 PKD
ROOT
HETATM    1  C   UNL     1     -11.571   9.833  71.440  1.00  0.00    -0.378 C  
HETATM    2  O   UNL     1     -11.285   8.499  71.860  1.00  0.00    -0.281 OA 
ENDROOT
BRANCH   2   3
HETATM    3  C   UNL     1     -10.646   7.733  70.920  1.00  0.00    -0.213 A  
HETATM    4  C   UNL     1      -9.311   8.066  70.653  1.00  0.00    -0.162 A  
HETATM    5  C   UNL     1      -8.542   7.384  69.671  1.00  0.00    -0.137 A  
HETATM    6  C   UNL     1      -9.191   6.322  68.986  1.00  0.00    -0.127 A  
HETATM    7  C   UNL     1      -8.524   5.616  67.978  1.00  0.00    -0.102 A  
HETATM    8  C   UNL     1     -10.504   5.958  69.308  1.00  0.00    -0.342 A  
HETATM    9  C   UNL     1      -7.222   5.939  67.627  1.00  0.00    -0.076 A  
HETATM   10  C   UNL     1     -11.230   6.656  70.269  1.00  0.00    -0.408 A  
HETATM   11  C   UNL     1      -6.557   6.957  68.303  1.00  0.00    -0.058 A  
HETATM   12  C   UNL     1      -7.187   7.695  69.324  1.00  0.00    -0.082 A  
BRANCH  12  13
HETATM   13  C   UNL     1      -6.381   8.730  70.106  1.00  0.00    -0.038 C  
BRANCH  13  14
HETATM   14  C   UNL     1      -6.388  10.165  69.555  1.00  0.00    -0.051 C  
BRANCH  14  15
HETATM   15  N   UNL     1      -7.681  10.823  69.678  1.00  0.00    -0.359 N  
HETATM   16  C   UNL     1      -8.519  10.998  68.602  1.00  0.00    -0.157 C  
HETATM   17  H   UNL     1      -7.975  11.166  70.593  1.00  0.00     0.000 HD 
HETATM   18  C   UNL     1      -9.768  11.781  68.910  1.00  0.00     0.005 C  
HETATM   19  O   UNL     1      -8.294  10.556  67.480  1.00  0.00    -0.117 OA 
ENDBRANCH  14  15
ENDBRANCH  13  14
ENDBRANCH  12  13
ENDBRANCH   2   3
TORSDOF 4
ENDMDL
MODEL      233
REMARK 921   NORMALIZED FREE ENERGY PREDICTED BY IDOCK:   -2.56 KCAL/MOL
REMARK 922        TOTAL FREE ENERGY PREDICTED BY IDOCK:   -3.59 KCAL/MOL
REMARK 923 INTER-LIGAND FREE ENERGY PREDICTED BY IDOCK:   -3.20 KCAL/MOL
REMARK 924 INTRA-LIGAND FREE ENERGY PREDICTED BY IDOCK:   -0.39 KCAL/MOL
REMARK 927      BINDING AFFINITY PREDICTED BY RF-SCORE:    0.00 PKD
ROOT
HETATM    1  C   UNL     1      -8.057   2.766  64.155  1.00  0.00    -0.082 C  
HETATM    2  O   UNL     1      -9.083   2.351  65.056  1.00  0.00    -0.126 OA 
ENDROOT
BRANCH   2   3
HETATM    3  C   UNL     1      -9.502   3.324  65.925  1.00  0.00    -0.081 A  
HETATM    4  C   UNL     1      -9.263   3.085  67.285  1.00  0.00    -0.214 A  
HETATM    5  C   UNL     1      -9.684   3.989  68.298  1.00  0.00    -0.133 A  
HETATM    6  C   UNL     1     -10.340   5.170  67.859  1.00  0.00    -0.148 A  
HETATM    7  C   UNL     1     -10.820   6.102  68.786  1.00  0.00    -0.402 A  
HETATM    8  C   UNL     1     -10.514   5.427  66.493  1.00  0.00    -0.352 A  
HETATM    9  C   UNL     1     -10.667   5.891  70.149  1.00  0.00    -0.389 A  
HETATM   10  C   UNL     1     -10.099   4.513  65.530  1.00  0.00    -0.240 A  
HETATM   11  C   UNL     1     -10.003   4.756  70.602  1.00  0.00    -0.300 A  
HETATM   12  C   UNL     1      -9.503   3.790  69.706  1.00  0.00    -0.256 A  
BRANCH  12  13
HETATM   13  C   UNL     1      -8.691   2.616  70.247  1.00  0.00    -0.129 C  
BRANCH  13  14
HETATM   14  C   UNL     1      -9.107   2.071  71.624  1.00  0.00    -0.086 C  
BRANCH  14  15
HETATM   15  N   UNL     1      -8.074   2.221  72.639  1.00  0.00    -0.054 N  
HETATM   16  C   UNL     1      -8.183   3.129  73.666  1.00  0.00    -0.074 C  
HETATM   17  H   UNL     1      -7.242   1.632  72.587  1.00  0.00     0.000 HD 
HETATM   18  C   UNL     1      -6.975   3.200  74.561  1.00  0.00    -0.045 C  
HETATM   19  O   UNL     1      -9.173   3.825  73.860  1.00  0.00    -0.090 OA 
ENDBRANCH  14  15
ENDBRANCH  13  14
ENDBRANCH  12  13
ENDBRANCH   2   3
TORSDOF 4
ENDMDL
MODEL      234
REMARK 921   NORMALIZED FREE ENERGY PREDICTED BY IDOCK:   -2.48 KCAL/MOL
REMARK 922        TOTAL FREE ENERGY PREDICTED BY IDOCK:   -3.50 KCAL/MOL
REMARK 923 INTER-LIGAND FREE ENERGY PREDICTED BY IDOCK:   -2.90 KCAL/MOL
REMARK 924 INTRA-LIGAND FREE ENERGY PREDICTED BY IDOCK:   -0.60 KCAL/MOL
REMARK 927      BINDING AFFINITY PREDICTED BY RF-SCORE:    0.00 PKD
ROOT
HETATM    1  C   UNL     1      -5.995   4.250  69.375  1.00  0.00    -0.022 C  
HETATM    2  O   UNL     1      -5.413   4.935  68.266  1.00  0.00    -0.013 OA 
ENDROOT
BRANCH   2   3
HETATM    3  C   UNL     1      -6.160   5.981  67.790  1.00  0.00    -0.021 A  
HETATM    4  C   UNL     1      -7.549   5.865  67.934  1.00  0.00    -0.086 A  
HETATM    5  C   UNL     1      -8.446   6.854  67.446  1.00  0.00    -0.121 A  
HETATM    6  C   UNL     1      -7.859   7.988  66.824  1.00  0.00    -0.103 A  
HETATM    7  C   UNL     1      -8.663   8.997  66.283  1.00  0.00    -0.155 A  
HETATM    8  C   UNL     1      -6.467   8.122  66.744  1.00  0.00    -0.056 A  
HETATM    9  C   UNL     1     -10.047   8.910  66.341  1.00  0.00    -0.333 A  
HETATM   10  C   UNL     1      -5.620   7.127  67.224  1.00  0.00    -0.024 A  
HETATM   11  C   UNL     1     -10.644   7.823  66.970  1.00  0.00    -0.396 A  
HETATM   12  C   UNL     1      -9.875   6.783  67.529  1.00  0.00    -0.164 A  
BRANCH  12  13
HETATM   13  C   UNL     1     -10.574   5.666  68.300  1.00  0.00    -0.253 C  
BRANCH  13  14
HETATM   14  C   UNL     1     -11.044   6.006  69.724  1.00  0.00    -0.406 C  
BRANCH  14  15
HETATM   15  N   UNL     1      -9.981   6.519  70.575  1.00  0.00    -0.183 N  
HETATM   16  C   UNL     1      -9.857   7.857  70.866  1.00  0.00    -0.178 C  
HETATM   17  H   UNL     1      -9.305   5.864  70.970  1.00  0.00     0.000 HD 
HETATM   18  C   UNL     1      -8.643   8.203  71.687  1.00  0.00    -0.181 C  
HETATM   19  O   UNL     1     -10.659   8.712  70.506  1.00  0.00    -0.205 OA 
ENDBRANCH  14  15
ENDBRANCH  13  14
ENDBRANCH  12  13
ENDBRANCH   2   3
TORSDOF 4
ENDMDL
MODEL      235
REMARK 921   NORMALIZED FREE ENERGY PREDICTED BY IDOCK:   -2.44 KCAL/MOL
REMARK 922        TOTAL FREE ENERGY PREDICTED BY IDOCK:   -3.45 KCAL/MOL
REMARK 923 INTER-LIGAND FREE ENERGY PREDICTED BY IDOCK:   -4.06 KCAL/MOL
REMARK 924 INTRA-LIGAND FREE ENERGY PREDICTED BY IDOCK:    0.60 KCAL/MOL
REMARK 927      BINDING AFFINITY PREDICTED BY RF-SCORE:    0.00 PKD
ROOT
HETATM    1  C   UNL     1      -9.905  10.275  66.755  1.00  0.00    -0.197 C  
HETATM    2  O   UNL     1      -9.060   9.591  67.681  1.00  0.00    -0.122 OA 
ENDROOT
BRANCH   2   3
HETATM    3  C   UNL     1      -9.673   9.244  68.856  1.00  0.00    -0.161 A  
HETATM    4  C   UNL     1      -9.707   7.875  69.156  1.00  0.00    -0.162 A  
HETATM    5  C   UNL     1     -10.348   7.370  70.320  1.00  0.00    -0.217 A  
HETATM    6  C   UNL     1     -10.935   8.332  71.186  1.00  0.00    -0.286 A  
HETATM    7  C   UNL     1     -11.617   7.926  72.338  1.00  0.00    -0.436 A  
HETATM    8  C   UNL     1     -10.837   9.701  70.907  1.00  0.00    -0.409 A  
HETATM    9  C   UNL     1     -11.737   6.581  72.656  1.00  0.00    -0.126 A  
HETATM   10  C   UNL     1     -10.210  10.157  69.751  1.00  0.00    -0.286 A  
HETATM   11  C   UNL     1     -11.147   5.623  71.839  1.00  0.00    -0.278 A  
HETATM   12  C   UNL     1     -10.450   5.983  70.668  1.00  0.00    -0.305 A  
BRANCH  12  13
HETATM   13  C   UNL     1      -9.731   4.904  69.863  1.00  0.00    -0.276 C  
BRANCH  13  14
HETATM   14  C   UNL     1      -8.808   5.392  68.734  1.00  0.00    -0.103 C  
BRANCH  14  15
HETATM   15  N   UNL     1      -8.828   4.532  67.560  1.00  0.00    -0.105 N  
HETATM   16  C   UNL     1      -9.753   4.688  66.554  1.00  0.00    -0.201 C  
HETATM   17  H   UNL     1      -8.134   3.788  67.480  1.00  0.00     0.000 HD 
HETATM   18  C   UNL     1      -9.671   3.646  65.470  1.00  0.00    -0.117 C  
HETATM   19  O   UNL     1     -10.577   5.595  66.517  1.00  0.00    -0.269 OA 
ENDBRANCH  14  15
ENDBRANCH  13  14
ENDBRANCH  12  13
ENDBRANCH   2   3
TORSDOF 4
ENDMDL
MODEL      236
REMARK 921   NORMALIZED FREE ENERGY PREDICTED BY IDOCK:   -2.43 KCAL/MOL
REMARK 922        TOTAL FREE ENERGY PREDICTED BY IDOCK:   -3.44 KCAL/MOL
REMARK 923 INTER-LIGAND FREE ENERGY PREDICTED BY IDOCK:   -2.92 KCAL/MOL
REMARK 924 INTRA-LIGAND FREE ENERGY PREDICTED BY IDOCK:   -0.52 KCAL/MOL
REMARK 927      BINDING AFFINITY PREDICTED BY RF-SCORE:    0.00 PKD
ROOT
HETATM    1  C   UNL     1      -5.452   4.691  69.335  1.00  0.00    -0.008 C  
HETATM    2  O   UNL     1      -6.491   4.808  68.363  1.00  0.00    -0.035 OA 
ENDROOT
BRANCH   2   3
HETATM    3  C   UNL     1      -7.668   5.314  68.850  1.00  0.00    -0.082 A  
HETATM    4  C   UNL     1      -7.576   6.514  69.568  1.00  0.00    -0.095 A  
HETATM    5  C   UNL     1      -8.710   7.128  70.166  1.00  0.00    -0.141 A  
HETATM    6  C   UNL     1      -9.956   6.474  69.976  1.00  0.00    -0.193 A  
HETATM    7  C   UNL     1     -11.122   6.986  70.556  1.00  0.00    -0.316 A  
HETATM    8  C   UNL     1     -10.044   5.310  69.202  1.00  0.00    -0.289 A  
HETATM    9  C   UNL     1     -11.085   8.137  71.328  1.00  0.00    -0.287 A  
HETATM   10  C   UNL     1      -8.909   4.732  68.640  1.00  0.00    -0.121 A  
HETATM   11  C   UNL     1      -9.880   8.811  71.506  1.00  0.00    -0.371 A  
HETATM   12  C   UNL     1      -8.681   8.333  70.941  1.00  0.00    -0.163 A  
BRANCH  12  13
HETATM   13  C   UNL     1      -7.407   9.164  71.076  1.00  0.00    -0.116 C  
BRANCH  13  14
HETATM   14  C   UNL     1      -7.226  10.310  70.068  1.00  0.00    -0.158 C  
BRANCH  14  15
HETATM   15  N   UNL     1      -7.561   9.935  68.702  1.00  0.00    -0.078 N  
HETATM   16  C   UNL     1      -8.739  10.320  68.105  1.00  0.00    -0.123 C  
HETATM   17  H   UNL     1      -6.901   9.368  68.169  1.00  0.00     0.000 HD 
HETATM   18  C   UNL     1      -8.946   9.759  66.723  1.00  0.00    -0.156 C  
HETATM   19  O   UNL     1      -9.561  11.064  68.630  1.00  0.00    -0.183 OA 
ENDBRANCH  14  15
ENDBRANCH  13  14
ENDBRANCH  12  13
ENDBRANCH   2   3
TORSDOF 4
ENDMDL
MODEL      237
REMARK 921   NORMALIZED FREE ENERGY PREDICTED BY IDOCK:   -2.43 KCAL/MOL
REMARK 922        TOTAL FREE ENERGY PREDICTED BY IDOCK:   -3.43 KCAL/MOL
REMARK 923 INTER-LIGAND FREE ENERGY PREDICTED BY IDOCK:   -3.27 KCAL/MOL
REMARK 924 INTRA-LIGAND FREE ENERGY PREDICTED BY IDOCK:   -0.17 KCAL/MOL
REMARK 927      BINDING AFFINITY PREDICTED BY RF-SCORE:    0.00 PKD
ROOT
HETATM    1  C   UNL     1     -12.150  13.608  70.076  1.00  0.00    -0.348 C  
HETATM    2  O   UNL     1     -12.265  14.971  70.484  1.00  0.00    -0.292 OA 
ENDROOT
BRANCH   2   3
HETATM    3  C   UNL     1     -11.478  15.843  69.777  1.00  0.00    -0.342 A  
HETATM    4  C   UNL     1     -11.180  15.477  68.458  1.00  0.00    -0.334 A  
HETATM    5  C   UNL     1     -10.340  16.265  67.625  1.00  0.00    -0.284 A  
HETATM    6  C   UNL     1      -9.835  17.465  68.192  1.00  0.00    -0.301 A  
HETATM    7  C   UNL     1      -8.972  18.288  67.459  1.00  0.00    -0.256 A  
HETATM    8  C   UNL     1     -10.193  17.852  69.490  1.00  0.00     0.178 A  
HETATM    9  C   UNL     1      -8.592  17.948  66.169  1.00  0.00    -0.130 A  
HETATM   10  C   UNL     1     -11.010  17.048  70.279  1.00  0.00     0.431 A  
HETATM   11  C   UNL     1      -9.096  16.792  65.583  1.00  0.00     0.256 A  
HETATM   12  C   UNL     1      -9.967  15.933  66.281  1.00  0.00    -0.318 A  
BRANCH  12  13
HETATM   13  C   UNL     1     -10.575  14.733  65.558  1.00  0.00    -0.374 C  
BRANCH  13  14
HETATM   14  C   UNL     1     -12.040  14.873  65.111  1.00  0.00    -0.163 C  
BRANCH  14  15
HETATM   15  N   UNL     1     -12.499  13.764  64.287  1.00  0.00    -0.671 N  
HETATM   16  C   UNL     1     -12.700  12.505  64.801  1.00  0.00    -0.330 C  
HETATM   17  H   UNL     1     -12.678  13.926  63.296  1.00  0.00     0.000 HD 
HETATM   18  C   UNL     1     -13.087  11.471  63.777  1.00  0.00     0.349 C  
HETATM   19  O   UNL     1     -12.588  12.225  65.990  1.00  0.00    -0.337 OA 
ENDBRANCH  14  15
ENDBRANCH  13  14
ENDBRANCH  12  13
ENDBRANCH   2   3
TORSDOF 4
ENDMDL
MODEL      238
REMARK 921   NORMALIZED FREE ENERGY PREDICTED BY IDOCK:   -2.43 KCAL/MOL
REMARK 922        TOTAL FREE ENERGY PREDICTED BY IDOCK:   -3.43 KCAL/MOL
REMARK 923 INTER-LIGAND FREE ENERGY PREDICTED BY IDOCK:   -3.12 KCAL/MOL
REMARK 924 INTRA-LIGAND FREE ENERGY PREDICTED BY IDOCK:   -0.32 KCAL/MOL
REMARK 927      BINDING AFFINITY PREDICTED BY RF-SCORE:    0.00 PKD
ROOT
HETATM    1  C   UNL     1     -11.441  10.072  70.854  1.00  0.00    -0.371 C  
HETATM    2  O   UNL     1     -10.025   9.893  70.813  1.00  0.00    -0.178 OA 
ENDROOT
BRANCH   2   3
HETATM    3  C   UNL     1      -9.499   9.830  69.549  1.00  0.00    -0.212 A  
HETATM    4  C   UNL     1      -9.780   8.667  68.819  1.00  0.00    -0.171 A  
HETATM    5  C   UNL     1      -9.262   8.449  67.513  1.00  0.00    -0.158 A  
HETATM    6  C   UNL     1      -8.461   9.488  66.969  1.00  0.00    -0.128 A  
HETATM    7  C   UNL     1      -7.880   9.349  65.704  1.00  0.00    -0.099 A  
HETATM    8  C   UNL     1      -8.242  10.673  67.684  1.00  0.00    -0.107 A  
HETATM    9  C   UNL     1      -8.072   8.195  64.958  1.00  0.00    -0.155 A  
HETATM   10  C   UNL     1      -8.757  10.846  68.965  1.00  0.00    -0.108 A  
HETATM   11  C   UNL     1      -8.875   7.175  65.458  1.00  0.00     0.017 A  
HETATM   12  C   UNL     1      -9.480   7.270  66.727  1.00  0.00    -0.218 A  
BRANCH  12  13
HETATM   13  C   UNL     1     -10.436   6.172  67.185  1.00  0.00    -0.327 C  
BRANCH  13  14
HETATM   14  C   UNL     1     -10.389   4.851  66.401  1.00  0.00    -0.288 C  
BRANCH  14  15
HETATM   15  N   UNL     1      -9.767   3.763  67.141  1.00  0.00    -0.290 N  
HETATM   16  C   UNL     1      -8.854   2.912  66.563  1.00  0.00    -0.146 C  
HETATM   17  H   UNL     1     -10.015   3.627  68.122  1.00  0.00     0.000 HD 
HETATM   18  C   UNL     1      -8.391   1.796  67.462  1.00  0.00    -0.081 C  
HETATM   19  O   UNL     1      -8.432   3.037  65.419  1.00  0.00    -0.095 OA 
ENDBRANCH  14  15
ENDBRANCH  13  14
ENDBRANCH  12  13
ENDBRANCH   2   3
TORSDOF 4
ENDMDL
MODEL      239
REMARK 921   NORMALIZED FREE ENERGY PREDICTED BY IDOCK:   -2.42 KCAL/MOL
REMARK 922        TOTAL FREE ENERGY PREDICTED BY IDOCK:   -3.43 KCAL/MOL
REMARK 923 INTER-LIGAND FREE ENERGY PREDICTED BY IDOCK:   -3.13 KCAL/MOL
REMARK 924 INTRA-LIGAND FREE ENERGY PREDICTED BY IDOCK:   -0.30 KCAL/MOL
REMARK 927      BINDING AFFINITY PREDICTED BY RF-SCORE:    0.00 PKD
ROOT
HETATM    1  C   UNL     1      -9.026   1.796  67.379  1.00  0.00    -0.134 C  
HETATM    2  O   UNL     1      -8.906   1.940  65.963  1.00  0.00    -0.121 OA 
ENDROOT
BRANCH   2   3
HETATM    3  C   UNL     1      -8.638   3.216  65.544  1.00  0.00    -0.112 A  
HETATM    4  C   UNL     1      -8.957   4.243  66.443  1.00  0.00    -0.120 A  
HETATM    5  C   UNL     1      -8.773   5.615  66.121  1.00  0.00    -0.136 A  
HETATM    6  C   UNL     1      -8.220   5.897  64.844  1.00  0.00    -0.135 A  
HETATM    7  C   UNL     1      -8.033   7.219  64.427  1.00  0.00    -0.106 A  
HETATM    8  C   UNL     1      -7.845   4.859  63.981  1.00  0.00    -0.089 A  
HETATM    9  C   UNL     1      -8.387   8.279  65.248  1.00  0.00    -0.175 A  
HETATM   10  C   UNL     1      -8.051   3.526  64.326  1.00  0.00    -0.086 A  
HETATM   11  C   UNL     1      -8.905   8.029  66.515  1.00  0.00    -0.175 A  
HETATM   12  C   UNL     1      -9.110   6.714  66.978  1.00  0.00    -0.135 A  
BRANCH  12  13
HETATM   13  C   UNL     1      -9.581   6.491  68.413  1.00  0.00    -0.122 C  
BRANCH  13  14
HETATM   14  C   UNL     1      -9.993   7.744  69.203  1.00  0.00    -0.182 C  
BRANCH  14  15
HETATM   15  N   UNL     1     -11.342   7.667  69.744  1.00  0.00    -0.456 N  
HETATM   16  C   UNL     1     -11.638   6.934  70.870  1.00  0.00    -0.337 C  
HETATM   17  H   UNL     1     -12.093   8.173  69.274  1.00  0.00     0.000 HD 
HETATM   18  C   UNL     1     -13.102   6.902  71.221  1.00  0.00    -0.273 C  
HETATM   19  O   UNL     1     -10.798   6.356  71.550  1.00  0.00    -0.237 OA 
ENDBRANCH  14  15
ENDBRANCH  13  14
ENDBRANCH  12  13
ENDBRANCH   2   3
TORSDOF 4
ENDMDL
MODEL      240
REMARK 921   NORMALIZED FREE ENERGY PREDICTED BY IDOCK:   -2.42 KCAL/MOL
REMARK 922        TOTAL FREE ENERGY PREDICTED BY IDOCK:   -3.43 KCAL/MOL
REMARK 923 INTER-LIGAND FREE ENERGY PREDICTED BY IDOCK:   -2.88 KCAL/MOL
REMARK 924 INTRA-LIGAND FREE ENERGY PREDICTED BY IDOCK:   -0.54 KCAL/MOL
REMARK 927      BINDING AFFINITY PREDICTED BY RF-SCORE:    0.00 PKD
ROOT
HETATM    1  C   UNL     1      -6.720  10.834  69.837  1.00  0.00    -0.156 C  
HETATM    2  O   UNL     1      -6.754   9.410  69.730  1.00  0.00    -0.047 OA 
ENDROOT
BRANCH   2   3
HETATM    3  C   UNL     1      -7.539   8.791  70.667  1.00  0.00    -0.090 A  
HETATM    4  C   UNL     1      -8.662   8.109  70.181  1.00  0.00    -0.130 A  
HETATM    5  C   UNL     1      -9.586   7.459  71.044  1.00  0.00    -0.161 A  
HETATM    6  C   UNL     1      -9.297   7.511  72.434  1.00  0.00    -0.192 A  
HETATM    7  C   UNL     1     -10.167   6.929  73.362  1.00  0.00    -0.314 A  
HETATM    8  C   UNL     1      -8.136   8.140  72.901  1.00  0.00    -0.224 A  
HETATM    9  C   UNL     1     -11.327   6.292  72.946  1.00  0.00    -0.187 A  
HETATM   10  C   UNL     1      -7.260   8.776  72.026  1.00  0.00    -0.022 A  
HETATM   11  C   UNL     1     -11.617   6.204  71.589  1.00  0.00    -0.317 A  
HETATM   12  C   UNL     1     -10.771   6.775  70.617  1.00  0.00    -0.273 A  
BRANCH  12  13
HETATM   13  C   UNL     1     -11.078   6.559  69.137  1.00  0.00    -0.387 C  
BRANCH  13  14
HETATM   14  C   UNL     1     -10.479   5.300  68.489  1.00  0.00    -0.077 C  
BRANCH  14  15
HETATM   15  N   UNL     1      -9.139   5.507  67.958  1.00  0.00    -0.108 N  
HETATM   16  C   UNL     1      -8.015   5.069  68.617  1.00  0.00    -0.085 C  
HETATM   17  H   UNL     1      -9.031   5.993  67.067  1.00  0.00     0.000 HD 
HETATM   18  C   UNL     1      -6.719   5.456  67.956  1.00  0.00    -0.055 C  
HETATM   19  O   UNL     1      -8.041   4.409  69.651  1.00  0.00    -0.060 OA 
ENDBRANCH  14  15
ENDBRANCH  13  14
ENDBRANCH  12  13
ENDBRANCH   2   3
TORSDOF 4
ENDMDL
MODEL      241
REMARK 921   NORMALIZED FREE ENERGY PREDICTED BY IDOCK:   -2.35 KCAL/MOL
REMARK 922        TOTAL FREE ENERGY PREDICTED BY IDOCK:   -3.34 KCAL/MOL
REMARK 923 INTER-LIGAND FREE ENERGY PREDICTED BY IDOCK:   -3.00 KCAL/MOL
REMARK 924 INTRA-LIGAND FREE ENERGY PREDICTED BY IDOCK:   -0.34 KCAL/MOL
REMARK 927      BINDING AFFINITY PREDICTED BY RF-SCORE:    0.00 PKD
ROOT
HETATM    1  C   UNL     1      -7.099   9.408  66.986  1.00  0.00    -0.086 C  
HETATM    2  O   UNL     1      -6.302   8.247  67.217  1.00  0.00    -0.054 OA 
ENDROOT
BRANCH   2   3
HETATM    3  C   UNL     1      -7.001   7.068  67.203  1.00  0.00    -0.078 A  
HETATM    4  C   UNL     1      -7.479   6.617  68.440  1.00  0.00    -0.095 A  
HETATM    5  C   UNL     1      -8.182   5.389  68.579  1.00  0.00    -0.094 A  
HETATM    6  C   UNL     1      -8.401   4.648  67.388  1.00  0.00    -0.104 A  
HETATM    7  C   UNL     1      -9.054   3.411  67.431  1.00  0.00    -0.199 A  
HETATM    8  C   UNL     1      -7.975   5.142  66.148  1.00  0.00    -0.104 A  
HETATM    9  C   UNL     1      -9.496   2.884  68.635  1.00  0.00    -0.192 A  
HETATM   10  C   UNL     1      -7.280   6.344  66.053  1.00  0.00    -0.075 A  
HETATM   11  C   UNL     1      -9.318   3.604  69.812  1.00  0.00    -0.243 A  
HETATM   12  C   UNL     1      -8.666   4.853  69.818  1.00  0.00    -0.110 A  
BRANCH  12  13
HETATM   13  C   UNL     1      -8.589   5.651  71.117  1.00  0.00    -0.127 C  
BRANCH  13  14
HETATM   14  C   UNL     1      -9.922   5.934  71.828  1.00  0.00    -0.166 C  
BRANCH  14  15
HETATM   15  N   UNL     1     -10.295   7.341  71.815  1.00  0.00    -0.196 N  
HETATM   16  C   UNL     1     -11.593   7.753  71.624  1.00  0.00    -0.267 C  
HETATM   17  H   UNL     1      -9.570   8.046  71.953  1.00  0.00     0.000 HD 
HETATM   18  C   UNL     1     -11.765   9.247  71.552  1.00  0.00    -0.450 C  
HETATM   19  O   UNL     1     -12.546   6.987  71.527  1.00  0.00    -0.358 OA 
ENDBRANCH  14  15
ENDBRANCH  13  14
ENDBRANCH  12  13
ENDBRANCH   2   3
TORSDOF 4
ENDMDL
MODEL      242
REMARK 921   NORMALIZED FREE ENERGY PREDICTED BY IDOCK:   -2.35 KCAL/MOL
REMARK 922        TOTAL FREE ENERGY PREDICTED BY IDOCK:   -3.33 KCAL/MOL
REMARK 923 INTER-LIGAND FREE ENERGY PREDICTED BY IDOCK:   -2.81 KCAL/MOL
REMARK 924 INTRA-LIGAND FREE ENERGY PREDICTED BY IDOCK:   -0.52 KCAL/MOL
REMARK 927      BINDING AFFINITY PREDICTED BY RF-SCORE:    0.00 PKD
ROOT
HETATM    1  C   UNL     1      -7.516   2.118  71.827  1.00  0.00    -0.040 C  
HETATM    2  O   UNL     1      -8.822   2.593  71.496  1.00  0.00    -0.070 OA 
ENDROOT
BRANCH   2   3
HETATM    3  C   UNL     1      -8.982   2.940  70.180  1.00  0.00    -0.103 A  
HETATM    4  C   UNL     1      -9.487   4.224  69.936  1.00  0.00    -0.260 A  
HETATM    5  C   UNL     1      -9.744   4.699  68.621  1.00  0.00    -0.217 A  
HETATM    6  C   UNL     1      -9.435   3.811  67.556  1.00  0.00    -0.237 A  
HETATM    7  C   UNL     1      -9.686   4.178  66.230  1.00  0.00    -0.219 A  
HETATM    8  C   UNL     1      -8.870   2.555  67.812  1.00  0.00    -0.161 A  
HETATM    9  C   UNL     1     -10.242   5.413  65.928  1.00  0.00    -0.037 A  
HETATM   10  C   UNL     1      -8.642   2.120  69.114  1.00  0.00    -0.109 A  
HETATM   11  C   UNL     1     -10.527   6.311  66.952  1.00  0.00    -0.337 A  
HETATM   12  C   UNL     1     -10.291   5.985  68.302  1.00  0.00    -0.252 A  
BRANCH  12  13
HETATM   13  C   UNL     1     -10.521   7.043  69.379  1.00  0.00    -0.227 C  
BRANCH  13  14
HETATM   14  C   UNL     1      -9.906   8.428  69.122  1.00  0.00    -0.183 C  
BRANCH  14  15
HETATM   15  N   UNL     1      -8.503   8.515  69.501  1.00  0.00    -0.125 N  
HETATM   16  C   UNL     1      -7.492   8.512  68.569  1.00  0.00    -0.094 C  
HETATM   17  H   UNL     1      -8.262   8.581  70.490  1.00  0.00     0.000 HD 
HETATM   18  C   UNL     1      -6.106   8.516  69.158  1.00  0.00    -0.042 C  
HETATM   19  O   UNL     1      -7.678   8.514  67.357  1.00  0.00    -0.096 OA 
ENDBRANCH  14  15
ENDBRANCH  13  14
ENDBRANCH  12  13
ENDBRANCH   2   3
TORSDOF 4
ENDMDL
MODEL      243
REMARK 921   NORMALIZED FREE ENERGY PREDICTED BY IDOCK:   -2.32 KCAL/MOL
REMARK 922        TOTAL FREE ENERGY PREDICTED BY IDOCK:   -3.30 KCAL/MOL
REMARK 923 INTER-LIGAND FREE ENERGY PREDICTED BY IDOCK:   -3.01 KCAL/MOL
REMARK 924 INTRA-LIGAND FREE ENERGY PREDICTED BY IDOCK:   -0.29 KCAL/MOL
REMARK 927      BINDING AFFINITY PREDICTED BY RF-SCORE:    0.00 PKD
ROOT
HETATM    1  C   UNL     1     -10.527  10.992  69.120  1.00  0.00    -0.210 C  
HETATM    2  O   UNL     1      -9.997   9.865  69.818  1.00  0.00    -0.217 OA 
ENDROOT
BRANCH   2   3
HETATM    3  C   UNL     1     -10.090   8.680  69.135  1.00  0.00    -0.199 A  
HETATM    4  C   UNL     1      -9.354   7.607  69.655  1.00  0.00    -0.156 A  
HETATM    5  C   UNL     1      -9.324   6.334  69.024  1.00  0.00    -0.127 A  
HETATM    6  C   UNL     1     -10.104   6.193  67.845  1.00  0.00    -0.179 A  
HETATM    7  C   UNL     1     -10.109   4.987  67.137  1.00  0.00    -0.239 A  
HETATM    8  C   UNL     1     -10.886   7.255  67.373  1.00  0.00    -0.317 A  
HETATM    9  C   UNL     1      -9.353   3.907  67.568  1.00  0.00    -0.229 A  
HETATM   10  C   UNL     1     -10.882   8.492  68.012  1.00  0.00    -0.022 A  
HETATM   11  C   UNL     1      -8.603   4.011  68.735  1.00  0.00    -0.114 A  
HETATM   12  C   UNL     1      -8.566   5.205  69.481  1.00  0.00    -0.099 A  
BRANCH  12  13
HETATM   13  C   UNL     1      -7.814   5.236  70.809  1.00  0.00    -0.093 C  
BRANCH  13  14
HETATM   14  C   UNL     1      -8.628   4.894  72.068  1.00  0.00    -0.124 C  
BRANCH  14  15
HETATM   15  N   UNL     1      -9.196   3.554  72.040  1.00  0.00    -0.108 N  
HETATM   16  C   UNL     1     -10.320   3.220  72.759  1.00  0.00    -0.156 C  
HETATM   17  H   UNL     1      -8.745   2.839  71.469  1.00  0.00     0.000 HD 
HETATM   18  C   UNL     1     -10.699   1.765  72.675  1.00  0.00    -0.207 C  
HETATM   19  O   UNL     1     -10.977   4.023  73.412  1.00  0.00    -0.215 OA 
ENDBRANCH  14  15
ENDBRANCH  13  14
ENDBRANCH  12  13
ENDBRANCH   2   3
TORSDOF 4
ENDMDL
MODEL      244
REMARK 921   NORMALIZED FREE ENERGY PREDICTED BY IDOCK:   -2.30 KCAL/MOL
REMARK 922        TOTAL FREE ENERGY PREDICTED BY IDOCK:   -3.28 KCAL/MOL
REMARK 923 INTER-LIGAND FREE ENERGY PREDICTED BY IDOCK:   -2.77 KCAL/MOL
REMARK 924 INTRA-LIGAND FREE ENERGY PREDICTED BY IDOCK:   -0.51 KCAL/MOL
REMARK 927      BINDING AFFINITY PREDICTED BY RF-SCORE:    0.00 PKD
ROOT
HETATM    1  C   UNL     1      -7.518   2.184  71.865  1.00  0.00    -0.040 C  
HETATM    2  O   UNL     1      -8.831   2.726  71.719  1.00  0.00    -0.072 OA 
ENDROOT
BRANCH   2   3
HETATM    3  C   UNL     1      -9.011   3.478  70.587  1.00  0.00    -0.095 A  
HETATM    4  C   UNL     1      -9.685   4.695  70.754  1.00  0.00    -0.269 A  
HETATM    5  C   UNL     1      -9.979   5.553  69.659  1.00  0.00    -0.282 A  
HETATM    6  C   UNL     1      -9.528   5.126  68.382  1.00  0.00    -0.168 A  
HETATM    7  C   UNL     1      -9.801   5.889  67.241  1.00  0.00    -0.155 A  
HETATM    8  C   UNL     1      -8.799   3.939  68.240  1.00  0.00    -0.143 A  
HETATM    9  C   UNL     1     -10.517   7.073  67.334  1.00  0.00    -0.343 A  
HETATM   10  C   UNL     1      -8.539   3.118  69.333  1.00  0.00    -0.113 A  
HETATM   11  C   UNL     1     -10.945   7.526  68.577  1.00  0.00     0.062 A  
HETATM   12  C   UNL     1     -10.694   6.792  69.754  1.00  0.00    -0.288 A  
BRANCH  12  13
HETATM   13  C   UNL     1     -11.091   7.383  71.104  1.00  0.00    -0.271 C  
BRANCH  13  14
HETATM   14  C   UNL     1     -10.022   8.216  71.829  1.00  0.00    -0.201 C  
BRANCH  14  15
HETATM   15  N   UNL     1      -9.248   7.448  72.793  1.00  0.00    -0.141 N  
HETATM   16  C   UNL     1      -7.933   7.110  72.574  1.00  0.00    -0.096 C  
HETATM   17  H   UNL     1      -9.695   7.150  73.661  1.00  0.00     0.000 HD 
HETATM   18  C   UNL     1      -7.331   6.236  73.642  1.00  0.00    -0.087 C  
HETATM   19  O   UNL     1      -7.284   7.483  71.603  1.00  0.00    -0.065 OA 
ENDBRANCH  14  15
ENDBRANCH  13  14
ENDBRANCH  12  13
ENDBRANCH   2   3
TORSDOF 4
ENDMDL
MODEL      245
REMARK 921   NORMALIZED FREE ENERGY PREDICTED BY IDOCK:   -2.28 KCAL/MOL
REMARK 922        TOTAL FREE ENERGY PREDICTED BY IDOCK:   -3.24 KCAL/MOL
REMARK 923 INTER-LIGAND FREE ENERGY PREDICTED BY IDOCK:   -3.69 KCAL/MOL
REMARK 924 INTRA-LIGAND FREE ENERGY PREDICTED BY IDOCK:    0.45 KCAL/MOL
REMARK 927      BINDING AFFINITY PREDICTED BY RF-SCORE:    0.00 PKD
ROOT
HETATM    1  C   UNL     1      -9.207  11.692  69.027  1.00  0.00     0.187 C  
HETATM    2  O   UNL     1      -9.086  10.301  68.730  1.00  0.00    -0.143 OA 
ENDROOT
BRANCH   2   3
HETATM    3  C   UNL     1      -8.782  10.025  67.422  1.00  0.00    -0.125 A  
HETATM    4  C   UNL     1      -9.468  10.772  66.456  1.00  0.00    -0.197 A  
HETATM    5  C   UNL     1      -9.283  10.560  65.062  1.00  0.00    -0.245 A  
HETATM    6  C   UNL     1      -8.340   9.563  64.694  1.00  0.00    -0.161 A  
HETATM    7  C   UNL     1      -8.116   9.261  63.347  1.00  0.00    -0.161 A  
HETATM    8  C   UNL     1      -7.614   8.869  65.670  1.00  0.00    -0.086 A  
HETATM    9  C   UNL     1      -8.810   9.925  62.345  1.00  0.00    -0.262 A  
HETATM   10  C   UNL     1      -7.830   9.097  67.026  1.00  0.00    -0.102 A  
HETATM   11  C   UNL     1      -9.718  10.924  62.680  1.00  0.00    -0.250 A  
HETATM   12  C   UNL     1      -9.977  11.263  64.023  1.00  0.00    -0.362 A  
BRANCH  12  13
HETATM   13  C   UNL     1     -10.901  12.437  64.334  1.00  0.00    -0.375 C  
BRANCH  13  14
HETATM   14  C   UNL     1     -10.628  13.197  65.643  1.00  0.00    -0.277 C  
BRANCH  14  15
HETATM   15  N   UNL     1     -10.607  14.643  65.476  1.00  0.00    -0.331 N  
HETATM   16  C   UNL     1      -9.685  15.439  66.113  1.00  0.00    -0.318 C  
HETATM   17  H   UNL     1     -11.298  15.080  64.866  1.00  0.00     0.000 HD 
HETATM   18  C   UNL     1      -9.880  16.915  65.888  1.00  0.00    -0.241 C  
HETATM   19  O   UNL     1      -8.768  15.007  66.803  1.00  0.00    -0.242 OA 
ENDBRANCH  14  15
ENDBRANCH  13  14
ENDBRANCH  12  13
ENDBRANCH   2   3
TORSDOF 4
ENDMDL
MODEL      246
REMARK 921   NORMALIZED FREE ENERGY PREDICTED BY IDOCK:   -2.16 KCAL/MOL
REMARK 922        TOTAL FREE ENERGY PREDICTED BY IDOCK:   -3.11 KCAL/MOL
REMARK 923 INTER-LIGAND FREE ENERGY PREDICTED BY IDOCK:   -3.73 KCAL/MOL
REMARK 924 INTRA-LIGAND FREE ENERGY PREDICTED BY IDOCK:    0.63 KCAL/MOL
REMARK 927      BINDING AFFINITY PREDICTED BY RF-SCORE:    0.00 PKD
ROOT
HETATM    1  C   UNL     1     -11.440  10.164  70.985  1.00  0.00    -0.354 C  
HETATM    2  O   UNL     1     -10.043   9.869  71.022  1.00  0.00    -0.120 OA 
ENDROOT
BRANCH   2   3
HETATM    3  C   UNL     1      -9.499   9.550  69.805  1.00  0.00    -0.210 A  
HETATM    4  C   UNL     1      -9.954   8.363  69.216  1.00  0.00    -0.195 A  
HETATM    5  C   UNL     1      -9.443   7.890  67.976  1.00  0.00    -0.159 A  
HETATM    6  C   UNL     1      -8.461   8.699  67.346  1.00  0.00    -0.123 A  
HETATM    7  C   UNL     1      -7.876   8.297  66.140  1.00  0.00    -0.098 A  
HETATM    8  C   UNL     1      -8.063   9.916  67.915  1.00  0.00    -0.109 A  
HETATM    9  C   UNL     1      -8.241   7.102  65.538  1.00  0.00    -0.139 A  
HETATM   10  C   UNL     1      -8.578  10.342  69.136  1.00  0.00    -0.169 A  
HETATM   11  C   UNL     1      -9.220   6.305  66.122  1.00  0.00    -0.143 A  
HETATM   12  C   UNL     1      -9.837   6.669  67.336  1.00  0.00    -0.165 A  
BRANCH  12  13
HETATM   13  C   UNL     1     -10.980   5.816  67.881  1.00  0.00    -0.140 C  
BRANCH  13  14
HETATM   14  C   UNL     1     -11.100   5.726  69.411  1.00  0.00    -0.189 C  
BRANCH  14  15
HETATM   15  N   UNL     1     -12.226   6.477  69.946  1.00  0.00    -0.343 N  
HETATM   16  C   UNL     1     -12.372   6.717  71.292  1.00  0.00    -0.344 C  
HETATM   17  H   UNL     1     -12.929   6.839  69.301  1.00  0.00     0.000 HD 
HETATM   18  C   UNL     1     -13.646   7.431  71.659  1.00  0.00    -0.449 C  
HETATM   19  O   UNL     1     -11.546   6.394  72.138  1.00  0.00    -0.286 OA 
ENDBRANCH  14  15
ENDBRANCH  13  14
ENDBRANCH  12  13
ENDBRANCH   2   3
TORSDOF 4
ENDMDL
MODEL      247
REMARK 921   NORMALIZED FREE ENERGY PREDICTED BY IDOCK:   -2.15 KCAL/MOL
REMARK 922        TOTAL FREE ENERGY PREDICTED BY IDOCK:   -3.09 KCAL/MOL
REMARK 923 INTER-LIGAND FREE ENERGY PREDICTED BY IDOCK:   -3.23 KCAL/MOL
REMARK 924 INTRA-LIGAND FREE ENERGY PREDICTED BY IDOCK:    0.14 KCAL/MOL
REMARK 927      BINDING AFFINITY PREDICTED BY RF-SCORE:    0.00 PKD
ROOT
HETATM    1  C   UNL     1      -9.566  11.277  68.713  1.00  0.00    -0.151 C  
HETATM    2  O   UNL     1      -9.228   9.892  68.655  1.00  0.00    -0.132 OA 
ENDROOT
BRANCH   2   3
HETATM    3  C   UNL     1      -8.534   9.524  67.532  1.00  0.00    -0.126 A  
HETATM    4  C   UNL     1      -8.930  10.133  66.334  1.00  0.00    -0.163 A  
HETATM    5  C   UNL     1      -8.327   9.814  65.086  1.00  0.00    -0.146 A  
HETATM    6  C   UNL     1      -7.277   8.858  65.118  1.00  0.00    -0.087 A  
HETATM    7  C   UNL     1      -6.647   8.456  63.936  1.00  0.00    -0.075 A  
HETATM    8  C   UNL     1      -6.847   8.306  66.332  1.00  0.00    -0.066 A  
HETATM    9  C   UNL     1      -7.036   8.978  62.711  1.00  0.00    -0.095 A  
HETATM   10  C   UNL     1      -7.469   8.635  67.533  1.00  0.00    -0.090 A  
HETATM   11  C   UNL     1      -8.044   9.935  62.657  1.00  0.00    -0.137 A  
HETATM   12  C   UNL     1      -8.707  10.371  63.821  1.00  0.00    -0.198 A  
BRANCH  12  13
HETATM   13  C   UNL     1      -9.731  11.499  63.722  1.00  0.00    -0.298 C  
BRANCH  13  14
HETATM   14  C   UNL     1     -11.134  11.201  64.274  1.00  0.00    -0.105 C  
BRANCH  14  15
HETATM   15  N   UNL     1     -11.564  12.144  65.297  1.00  0.00    -0.342 N  
HETATM   16  C   UNL     1     -11.742  13.481  65.032  1.00  0.00    -0.334 C  
HETATM   17  H   UNL     1     -11.738  11.801  66.242  1.00  0.00     0.000 HD 
HETATM   18  C   UNL     1     -12.099  14.310  66.238  1.00  0.00    -0.433 C  
HETATM   19  O   UNL     1     -11.635  13.978  63.916  1.00  0.00    -0.251 OA 
ENDBRANCH  14  15
ENDBRANCH  13  14
ENDBRANCH  12  13
ENDBRANCH   2   3
TORSDOF 4
ENDMDL
MODEL      248
REMARK 921   NORMALIZED FREE ENERGY PREDICTED BY IDOCK:   -1.98 KCAL/MOL
REMARK 922        TOTAL FREE ENERGY PREDICTED BY IDOCK:   -2.88 KCAL/MOL
REMARK 923 INTER-LIGAND FREE ENERGY PREDICTED BY IDOCK:   -2.63 KCAL/MOL
REMARK 924 INTRA-LIGAND FREE ENERGY PREDICTED BY IDOCK:   -0.25 KCAL/MOL
REMARK 927      BINDING AFFINITY PREDICTED BY RF-SCORE:    0.00 PKD
ROOT
HETATM    1  C   UNL     1      -6.291   5.050  70.959  1.00  0.00    -0.023 C  
HETATM    2  O   UNL     1      -5.997   6.206  70.175  1.00  0.00    -0.027 OA 
ENDROOT
BRANCH   2   3
HETATM    3  C   UNL     1      -7.099   6.838  69.662  1.00  0.00    -0.068 A  
HETATM    4  C   UNL     1      -7.079   7.095  68.285  1.00  0.00    -0.082 A  
HETATM    5  C   UNL     1      -8.136   7.782  67.627  1.00  0.00    -0.124 A  
HETATM    6  C   UNL     1      -9.236   8.174  68.437  1.00  0.00    -0.135 A  
HETATM    7  C   UNL     1     -10.307   8.885  67.884  1.00  0.00    -0.286 A  
HETATM    8  C   UNL     1      -9.272   7.853  69.800  1.00  0.00    -0.150 A  
HETATM    9  C   UNL     1     -10.316   9.222  66.538  1.00  0.00    -0.270 A  
HETATM   10  C   UNL     1      -8.213   7.188  70.411  1.00  0.00    -0.126 A  
HETATM   11  C   UNL     1      -9.264   8.825  65.720  1.00  0.00    -0.269 A  
HETATM   12  C   UNL     1      -8.164   8.108  66.231  1.00  0.00    -0.114 A  
BRANCH  12  13
HETATM   13  C   UNL     1      -7.087   7.605  65.273  1.00  0.00    -0.063 C  
BRANCH  13  14
HETATM   14  C   UNL     1      -7.566   6.735  64.099  1.00  0.00    -0.105 C  
BRANCH  14  15
HETATM   15  N   UNL     1      -8.687   5.872  64.440  1.00  0.00    -0.350 N  
HETATM   16  C   UNL     1      -8.785   4.581  63.977  1.00  0.00    -0.139 C  
HETATM   17  H   UNL     1      -9.425   6.237  65.044  1.00  0.00     0.000 HD 
HETATM   18  C   UNL     1     -10.060   3.880  64.363  1.00  0.00    -0.221 C  
HETATM   19  O   UNL     1      -7.918   4.026  63.312  1.00  0.00    -0.076 OA 
ENDBRANCH  14  15
ENDBRANCH  13  14
ENDBRANCH  12  13
ENDBRANCH   2   3
TORSDOF 4
ENDMDL
MODEL      249
REMARK 921   NORMALIZED FREE ENERGY PREDICTED BY IDOCK:   -1.89 KCAL/MOL
REMARK 922        TOTAL FREE ENERGY PREDICTED BY IDOCK:   -2.77 KCAL/MOL
REMARK 923 INTER-LIGAND FREE ENERGY PREDICTED BY IDOCK:   -2.49 KCAL/MOL
REMARK 924 INTRA-LIGAND FREE ENERGY PREDICTED BY IDOCK:   -0.27 KCAL/MOL
REMARK 927      BINDING AFFINITY PREDICTED BY RF-SCORE:    0.00 PKD
ROOT
HETATM    1  C   UNL     1      -9.074   1.468  67.802  1.00  0.00    -0.146 C  
HETATM    2  O   UNL     1      -9.232   1.911  66.454  1.00  0.00    -0.074 OA 
ENDROOT
BRANCH   2   3
HETATM    3  C   UNL     1      -9.019   3.252  66.269  1.00  0.00    -0.149 A  
HETATM    4  C   UNL     1      -8.845   4.017  67.430  1.00  0.00    -0.132 A  
HETATM    5  C   UNL     1      -8.659   5.426  67.388  1.00  0.00    -0.108 A  
HETATM    6  C   UNL     1      -8.629   6.021  66.099  1.00  0.00    -0.142 A  
HETATM    7  C   UNL     1      -8.485   7.406  65.960  1.00  0.00    -0.152 A  
HETATM    8  C   UNL     1      -8.739   5.236  64.944  1.00  0.00    -0.122 A  
HETATM    9  C   UNL     1      -8.370   8.223  67.075  1.00  0.00    -0.122 A  
HETATM   10  C   UNL     1      -8.931   3.860  65.026  1.00  0.00    -0.131 A  
HETATM   11  C   UNL     1      -8.368   7.660  68.347  1.00  0.00    -0.125 A  
HETATM   12  C   UNL     1      -8.511   6.271  68.537  1.00  0.00    -0.115 A  
BRANCH  12  13
HETATM   13  C   UNL     1      -8.396   5.692  69.944  1.00  0.00    -0.117 C  
BRANCH  13  14
HETATM   14  C   UNL     1      -8.286   6.704  71.096  1.00  0.00    -0.120 C  
BRANCH  14  15
HETATM   15  N   UNL     1      -9.253   6.476  72.159  1.00  0.00    -0.140 N  
HETATM   16  C   UNL     1      -9.244   7.204  73.326  1.00  0.00    -0.157 C  
HETATM   17  H   UNL     1      -9.961   5.752  72.035  1.00  0.00     0.000 HD 
HETATM   18  C   UNL     1     -10.264   6.760  74.341  1.00  0.00    -0.220 C  
HETATM   19  O   UNL     1      -8.487   8.144  73.540  1.00  0.00    -0.219 OA 
ENDBRANCH  14  15
ENDBRANCH  13  14
ENDBRANCH  12  13
ENDBRANCH   2   3
TORSDOF 4
ENDMDL
MODEL      250
REMARK 921   NORMALIZED FREE ENERGY PREDICTED BY IDOCK:   -1.84 KCAL/MOL
REMARK 922        TOTAL FREE ENERGY PREDICTED BY IDOCK:   -2.71 KCAL/MOL
REMARK 923 INTER-LIGAND FREE ENERGY PREDICTED BY IDOCK:   -2.19 KCAL/MOL
REMARK 924 INTRA-LIGAND FREE ENERGY PREDICTED BY IDOCK:   -0.52 KCAL/MOL
REMARK 927      BINDING AFFINITY PREDICTED BY RF-SCORE:    0.00 PKD
ROOT
HETATM    1  C   UNL     1      -5.659   7.828  67.973  1.00  0.00    -0.032 C  
HETATM    2  O   UNL     1      -5.205   6.476  67.895  1.00  0.00    -0.004 OA 
ENDROOT
BRANCH   2   3
HETATM    3  C   UNL     1      -5.839   5.616  68.754  1.00  0.00    -0.019 A  
HETATM    4  C   UNL     1      -7.227   5.768  68.869  1.00  0.00    -0.082 A  
HETATM    5  C   UNL     1      -8.005   4.973  69.755  1.00  0.00    -0.074 A  
HETATM    6  C   UNL     1      -7.304   3.990  70.503  1.00  0.00    -0.041 A  
HETATM    7  C   UNL     1      -7.980   3.183  71.425  1.00  0.00    -0.059 A  
HETATM    8  C   UNL     1      -5.926   3.805  70.330  1.00  0.00    -0.018 A  
HETATM    9  C   UNL     1      -9.344   3.328  71.628  1.00  0.00    -0.207 A  
HETATM   10  C   UNL     1      -5.196   4.611  69.461  1.00  0.00     0.000 A  
HETATM   11  C   UNL     1     -10.058   4.265  70.887  1.00  0.00    -0.161 A  
HETATM   12  C   UNL     1      -9.420   5.099  69.948  1.00  0.00    -0.221 A  
BRANCH  12  13
HETATM   13  C   UNL     1     -10.262   6.035  69.085  1.00  0.00    -0.258 C  
BRANCH  13  14
HETATM   14  C   UNL     1     -10.464   7.463  69.618  1.00  0.00    -0.232 C  
BRANCH  14  15
HETATM   15  N   UNL     1     -10.159   7.598  71.035  1.00  0.00    -0.190 N  
HETATM   16  C   UNL     1      -8.999   8.187  71.481  1.00  0.00    -0.158 C  
HETATM   17  H   UNL     1     -10.827   7.244  71.720  1.00  0.00     0.000 HD 
HETATM   18  C   UNL     1      -8.821   8.150  72.976  1.00  0.00    -0.316 C  
HETATM   19  O   UNL     1      -8.170   8.711  70.745  1.00  0.00    -0.114 OA 
ENDBRANCH  14  15
ENDBRANCH  13  14
ENDBRANCH  12  13
ENDBRANCH   2   3
TORSDOF 4
ENDMDL
MODEL      251
REMARK 921   NORMALIZED FREE ENERGY PREDICTED BY IDOCK:   -1.22 KCAL/MOL
REMARK 922        TOTAL FREE ENERGY PREDICTED BY IDOCK:   -1.94 KCAL/MOL
REMARK 923 INTER-LIGAND FREE ENERGY PREDICTED BY IDOCK:   -1.75 KCAL/MOL
REMARK 924 INTRA-LIGAND FREE ENERGY PREDICTED BY IDOCK:   -0.19 KCAL/MOL
REMARK 927      BINDING AFFINITY PREDICTED BY RF-SCORE:    0.00 PKD
ROOT
HETATM    1  C   UNL     1      -6.509  13.206  69.083  1.00  0.00    -0.107 C  
HETATM    2  O   UNL     1      -6.123  11.834  69.004  1.00  0.00    -0.057 OA 
ENDROOT
BRANCH   2   3
HETATM    3  C   UNL     1      -6.620  11.167  67.915  1.00  0.00    -0.062 A  
HETATM    4  C   UNL     1      -6.503   9.771  67.938  1.00  0.00    -0.060 A  
HETATM    5  C   UNL     1      -6.937   8.956  66.856  1.00  0.00    -0.078 A  
HETATM    6  C   UNL     1      -7.525   9.631  65.753  1.00  0.00    -0.100 A  
HETATM    7  C   UNL     1      -7.950   8.916  64.628  1.00  0.00    -0.132 A  
HETATM    8  C   UNL     1      -7.695  11.021  65.772  1.00  0.00     0.037 A  
HETATM    9  C   UNL     1      -7.805   7.538  64.567  1.00  0.00    -0.130 A  
HETATM   10  C   UNL     1      -7.248  11.787  66.844  1.00  0.00    -0.103 A  
HETATM   11  C   UNL     1      -7.258   6.852  65.646  1.00  0.00    -0.073 A  
HETATM   12  C   UNL     1      -6.815   7.529  66.799  1.00  0.00    -0.070 A  
BRANCH  12  13
HETATM   13  C   UNL     1      -6.320   6.723  67.998  1.00  0.00    -0.045 C  
BRANCH  13  14
HETATM   14  C   UNL     1      -7.213   6.737  69.249  1.00  0.00    -0.090 C  
BRANCH  14  15
HETATM   15  N   UNL     1      -8.630   6.878  68.946  1.00  0.00    -0.131 N  
HETATM   16  C   UNL     1      -9.588   6.934  69.931  1.00  0.00    -0.156 C  
HETATM   17  H   UNL     1      -8.922   6.938  67.970  1.00  0.00     0.000 HD 
HETATM   18  C   UNL     1     -11.002   6.990  69.417  1.00  0.00    -0.232 C  
HETATM   19  O   UNL     1      -9.335   6.949  71.130  1.00  0.00    -0.161 OA 
ENDBRANCH  14  15
ENDBRANCH  13  14
ENDBRANCH  12  13
ENDBRANCH   2   3
TORSDOF 4
ENDMDL
MODEL      252
REMARK 921   NORMALIZED FREE ENERGY PREDICTED BY IDOCK:    7.89 KCAL/MOL
REMARK 922        TOTAL FREE ENERGY PREDICTED BY IDOCK:    9.30 KCAL/MOL
REMARK 923 INTER-LIGAND FREE ENERGY PREDICTED BY IDOCK:    9.20 KCAL/MOL
REMARK 924 INTRA-LIGAND FREE ENERGY PREDICTED BY IDOCK:    0.10 KCAL/MOL
REMARK 927      BINDING AFFINITY PREDICTED BY RF-SCORE:    0.00 PKD
ROOT
HETATM    1  C   UNL     1     -11.589   9.669  65.172  1.00  0.00     5.720 C  
HETATM    2  O   UNL     1     -11.688   8.494  65.976  1.00  0.00     4.474 OA 
ENDROOT
BRANCH   2   3
HETATM    3  C   UNL     1     -11.049   8.579  67.186  1.00  0.00     0.513 A  
HETATM    4  C   UNL     1      -9.962   7.715  67.373  1.00  0.00    -0.252 A  
HETATM    5  C   UNL     1      -9.236   7.666  68.594  1.00  0.00    -0.141 A  
HETATM    6  C   UNL     1      -9.653   8.562  69.615  1.00  0.00    -0.170 A  
HETATM    7  C   UNL     1      -9.020   8.562  70.862  1.00  0.00    -0.206 A  
HETATM    8  C   UNL     1     -10.700   9.466  69.391  1.00  0.00    -0.234 A  
HETATM    9  C   UNL     1      -7.976   7.688  71.129  1.00  0.00    -0.091 A  
HETATM   10  C   UNL     1     -11.395   9.477  68.185  1.00  0.00     0.244 A  
HETATM   11  C   UNL     1      -7.532   6.820  70.137  1.00  0.00    -0.094 A  
HETATM   12  C   UNL     1      -8.138   6.784  68.865  1.00  0.00    -0.120 A  
BRANCH  12  13
HETATM   13  C   UNL     1      -7.547   5.891  67.778  1.00  0.00    -0.089 C  
BRANCH  13  14
HETATM   14  C   UNL     1      -7.271   6.555  66.419  1.00  0.00    -0.073 C  
BRANCH  14  15
HETATM   15  N   UNL     1      -7.829   5.818  65.294  1.00  0.00    -0.100 N  
HETATM   16  C   UNL     1      -7.905   6.358  64.031  1.00  0.00    -0.111 C  
HETATM   17  H   UNL     1      -8.173   4.870  65.447  1.00  0.00     0.000 HD 
HETATM   18  C   UNL     1      -8.595   5.479  63.022  1.00  0.00     0.015 C  
HETATM   19  O   UNL     1      -7.450   7.455  63.727  1.00  0.00    -0.089 OA 
ENDBRANCH  14  15
ENDBRANCH  13  14
ENDBRANCH  12  13
ENDBRANCH   2   3
TORSDOF 4
ENDMDL
MODEL      253
REMARK 921   NORMALIZED FREE ENERGY PREDICTED BY IDOCK:   20.59 KCAL/MOL
REMARK 922        TOTAL FREE ENERGY PREDICTED BY IDOCK:   24.96 KCAL/MOL
REMARK 923 INTER-LIGAND FREE ENERGY PREDICTED BY IDOCK:   25.28 KCAL/MOL
REMARK 924 INTRA-LIGAND FREE ENERGY PREDICTED BY IDOCK:   -0.32 KCAL/MOL
REMARK 927      BINDING AFFINITY PREDICTED BY RF-SCORE:    0.00 PKD
ROOT
HETATM    1  C   UNL     1     -11.171  11.832  68.054  1.00  0.00    -0.263 C  
HETATM    2  O   UNL     1     -11.551  11.976  69.423  1.00  0.00    -0.288 OA 
ENDROOT
BRANCH   2   3
HETATM    3  C   UNL     1     -11.797  13.268  69.809  1.00  0.00    -0.325 A  
HETATM    4  C   UNL     1     -10.769  13.909  70.515  1.00  0.00     1.226 A  
HETATM    5  C   UNL     1     -10.905  15.233  71.014  1.00  0.00    -0.183 A  
HETATM    6  C   UNL     1     -12.134  15.890  70.737  1.00  0.00    -0.393 A  
HETATM    7  C   UNL     1     -12.372  17.182  71.217  1.00  0.00     3.818 A  
HETATM    8  C   UNL     1     -13.127  15.261  69.975  1.00  0.00     0.086 A  
HETATM    9  C   UNL     1     -11.417  17.846  71.973  1.00  0.00     2.946 A  
HETATM   10  C   UNL     1     -12.962  13.959  69.512  1.00  0.00     0.819 A  
HETATM   11  C   UNL     1     -10.195  17.234  72.234  1.00  0.00     6.035 A  
HETATM   12  C   UNL     1      -9.910  15.934  71.772  1.00  0.00     3.707 A  
BRANCH  12  13
HETATM   13  C   UNL     1      -8.518  15.348  71.993  1.00  0.00     6.655 C  
BRANCH  13  14
HETATM   14  C   UNL     1      -7.481  15.607  70.888  1.00  0.00     2.156 C  
BRANCH  14  15
HETATM   15  N   UNL     1      -7.471  14.582  69.855  1.00  0.00    -0.393 N  
HETATM   16  C   UNL     1      -6.388  14.383  69.031  1.00  0.00    -0.097 C  
HETATM   17  H   UNL     1      -8.294  13.990  69.738  1.00  0.00     0.000 HD 
HETATM   18  C   UNL     1      -6.603  13.339  67.967  1.00  0.00    -0.129 C  
HETATM   19  O   UNL     1      -5.326  14.986  69.139  1.00  0.00    -0.093 OA 
ENDBRANCH  14  15
ENDBRANCH  13  14
ENDBRANCH  12  13
ENDBRANCH   2   3
TORSDOF 4
ENDMDL
