MODEL        1
REMARK 921   NORMALIZED FREE ENERGY PREDICTED BY IDOCK:   -7.39 KCAL/MOL
REMARK 922        TOTAL FREE ENERGY PREDICTED BY IDOCK:   -7.95 KCAL/MOL
REMARK 923 INTER-LIGAND FREE ENERGY PREDICTED BY IDOCK:   -7.82 KCAL/MOL
REMARK 924 INTRA-LIGAND FREE ENERGY PREDICTED BY IDOCK:   -0.13 KCAL/MOL
REMARK 927      BINDING AFFINITY PREDICTED BY RF-SCORE:    0.00 PKD
ROOT
HETATM    1  C   UNL     1     -11.680  15.564  71.877  1.00  0.00    -0.527 C  
HETATM    2  C   UNL     1     -12.321  15.576  70.491  1.00  0.00    -0.461 C  
ENDROOT
BRANCH   2   3
HETATM    3  C   UNL     1     -11.454  14.908  69.434  1.00  0.00    -0.324 C  
HETATM    4  C   UNL     1     -12.145  13.818  68.540  1.00  0.00    -0.327 C  
HETATM    5  C   UNL     1     -11.023  12.738  68.717  1.00  0.00    -0.289 C  
HETATM    6  C   UNL     1      -9.933  13.354  67.781  1.00  0.00    -0.233 C  
HETATM    7  C   UNL     1      -9.408  12.646  66.536  1.00  0.00    -0.228 C  
HETATM    8  N   UNL     1      -9.378  11.191  66.673  1.00  0.00    -0.173 NA 
HETATM    9  C   UNL     1      -8.459  10.600  67.626  1.00  0.00    -0.118 C  
HETATM   10  C   UNL     1      -9.414  10.808  65.321  1.00  0.00    -0.218 A  
HETATM   11  C   UNL     1      -8.852   9.660  64.790  1.00  0.00    -0.242 A  
HETATM   12  C   UNL     1      -8.869   9.492  63.410  1.00  0.00    -0.236 A  
HETATM   13  C   UNL     1      -9.467  10.455  62.584  1.00  0.00    -0.324 A  
HETATM   14  C   UNL     1     -10.076  11.602  63.117  1.00  0.00    -0.409 A  
HETATM   15  C   UNL     1     -10.051  11.775  64.487  1.00  0.00    -0.312 A  
HETATM   16  C   UNL     1     -10.518  12.924  65.329  1.00  0.00    -0.312 C  
HETATM   17  C   UNL     1     -10.411  14.417  65.038  1.00  0.00    -0.454 C  
HETATM   18  C   UNL     1     -11.033  15.031  66.348  1.00  0.00    -0.336 C  
HETATM   19  N   UNL     1     -10.030  14.890  67.446  1.00  0.00    -0.223 NA 
HETATM   20  C   UNL     1     -12.280  14.183  66.830  1.00  0.00    -0.429 C  
HETATM   21  C   UNL     1     -12.104  12.928  65.800  1.00  0.00    -0.457 C  
HETATM   22  C   UNL     1     -10.545  15.726  68.536  1.00  0.00    -0.253 C  
HETATM   23  O   UNL     1      -9.420  16.222  69.217  1.00  0.00    -0.242 OA 
HETATM   24  O   UNL     1     -12.948  13.222  64.673  1.00  0.00    -0.692 OA 
HETATM   25  H   UNL     1     -13.858  13.224  64.943  1.00  0.00     0.000 HD 
HETATM   26  H   UNL     1      -8.850  16.734  68.655  1.00  0.00     0.000 HD 
ENDBRANCH   2   3
TORSDOF 1
ENDMDL
MODEL        2
REMARK 921   NORMALIZED FREE ENERGY PREDICTED BY IDOCK:   -7.20 KCAL/MOL
REMARK 922        TOTAL FREE ENERGY PREDICTED BY IDOCK:   -7.75 KCAL/MOL
REMARK 923 INTER-LIGAND FREE ENERGY PREDICTED BY IDOCK:   -7.61 KCAL/MOL
REMARK 924 INTRA-LIGAND FREE ENERGY PREDICTED BY IDOCK:   -0.14 KCAL/MOL
REMARK 927      BINDING AFFINITY PREDICTED BY RF-SCORE:    0.00 PKD
ROOT
HETATM    1  C   UNL     1      -8.628   9.802  62.848  1.00  0.00    -0.195 C  
HETATM    2  C   UNL     1      -9.625  10.895  62.467  1.00  0.00    -0.235 C  
ENDROOT
BRANCH   2   3
HETATM    3  C   UNL     1     -10.419  11.411  63.658  1.00  0.00    -0.472 C  
HETATM    4  C   UNL     1      -9.602  12.110  64.802  1.00  0.00     0.026 C  
HETATM    5  C   UNL     1     -10.259  11.307  65.977  1.00  0.00    -0.295 C  
HETATM    6  C   UNL     1     -11.650  12.019  66.019  1.00  0.00    -0.305 C  
HETATM    7  C   UNL     1     -12.151  12.794  67.234  1.00  0.00    -0.162 C  
HETATM    8  N   UNL     1     -11.684  12.238  68.502  1.00  0.00    -0.317 NA 
HETATM    9  C   UNL     1     -12.160  10.929  68.907  1.00  0.00    -0.116 C  
HETATM   10  C   UNL     1     -11.791  13.369  69.330  1.00  0.00    -0.335 A  
HETATM   11  C   UNL     1     -12.045  13.354  70.691  1.00  0.00    -0.374 A  
HETATM   12  C   UNL     1     -12.244  14.568  71.340  1.00  0.00    -0.425 A  
HETATM   13  C   UNL     1     -12.161  15.776  70.631  1.00  0.00    -0.422 A  
HETATM   14  C   UNL     1     -11.862  15.801  69.260  1.00  0.00    -0.358 A  
HETATM   15  C   UNL     1     -11.674  14.596  68.611  1.00  0.00    -0.362 A  
HETATM   16  C   UNL     1     -11.447  14.299  67.159  1.00  0.00    -0.377 C  
HETATM   17  C   UNL     1     -12.083  14.967  65.946  1.00  0.00     0.017 C  
HETATM   18  C   UNL     1     -11.450  14.135  64.769  1.00  0.00    -0.383 C  
HETATM   19  N   UNL     1     -12.120  12.799  64.735  1.00  0.00    -0.406 NA 
HETATM   20  C   UNL     1      -9.928  13.814  65.062  1.00  0.00    -0.211 C  
HETATM   21  C   UNL     1      -9.888  14.336  66.609  1.00  0.00    -0.281 C  
HETATM   22  C   UNL     1     -11.700  12.200  63.463  1.00  0.00    -0.490 C  
HETATM   23  O   UNL     1     -12.769  11.395  63.035  1.00  0.00    -0.903 OA 
HETATM   24  O   UNL     1      -9.420  15.695  66.555  1.00  0.00    -0.236 OA 
HETATM   25  H   UNL     1      -8.524  15.716  66.239  1.00  0.00     0.000 HD 
HETATM   26  H   UNL     1     -13.572  11.889  62.913  1.00  0.00     0.000 HD 
ENDBRANCH   2   3
TORSDOF 1
ENDMDL
MODEL        3
REMARK 921   NORMALIZED FREE ENERGY PREDICTED BY IDOCK:   -7.05 KCAL/MOL
REMARK 922        TOTAL FREE ENERGY PREDICTED BY IDOCK:   -7.60 KCAL/MOL
REMARK 923 INTER-LIGAND FREE ENERGY PREDICTED BY IDOCK:   -7.43 KCAL/MOL
REMARK 924 INTRA-LIGAND FREE ENERGY PREDICTED BY IDOCK:   -0.16 KCAL/MOL
REMARK 927      BINDING AFFINITY PREDICTED BY RF-SCORE:    0.00 PKD
ROOT
HETATM    1  C   UNL     1      -7.032  20.429  67.625  1.00  0.00    -0.342 C  
HETATM    2  C   UNL     1      -7.620  20.027  66.274  1.00  0.00    -0.326 C  
ENDROOT
BRANCH   2   3
HETATM    3  C   UNL     1      -8.588  18.857  66.375  1.00  0.00    -0.301 C  
HETATM    4  C   UNL     1      -8.054  17.558  67.077  1.00  0.00    -0.240 C  
HETATM    5  C   UNL     1      -8.532  16.569  65.959  1.00  0.00    -0.206 C  
HETATM    6  C   UNL     1     -10.064  16.561  66.270  1.00  0.00    -0.333 C  
HETATM    7  C   UNL     1     -10.821  15.306  66.690  1.00  0.00    -0.310 C  
HETATM    8  N   UNL     1     -10.290  14.086  66.084  1.00  0.00    -0.289 NA 
HETATM    9  C   UNL     1     -10.415  13.908  64.651  1.00  0.00    -0.396 C  
HETATM   10  C   UNL     1     -10.745  13.127  67.006  1.00  0.00    -0.262 A  
HETATM   11  C   UNL     1     -11.059  11.810  66.715  1.00  0.00    -0.360 A  
HETATM   12  C   UNL     1     -11.614  11.025  67.719  1.00  0.00    -0.277 A  
HETATM   13  C   UNL     1     -11.823  11.554  69.002  1.00  0.00    -0.408 A  
HETATM   14  C   UNL     1     -11.468  12.875  69.317  1.00  0.00    -0.341 A  
HETATM   15  C   UNL     1     -10.926  13.659  68.318  1.00  0.00    -0.275 A  
HETATM   16  C   UNL     1     -10.548  15.110  68.319  1.00  0.00    -0.243 C  
HETATM   17  C   UNL     1     -11.274  16.277  68.978  1.00  0.00    -0.326 C  
HETATM   18  C   UNL     1     -10.376  17.491  68.532  1.00  0.00    -0.380 C  
HETATM   19  N   UNL     1     -10.656  17.768  67.090  1.00  0.00    -0.326 NA 
HETATM   20  C   UNL     1      -8.842  17.101  68.576  1.00  0.00    -0.265 C  
HETATM   21  C   UNL     1      -9.029  15.501  68.844  1.00  0.00    -0.220 C  
HETATM   22  C   UNL     1     -10.021  19.063  66.825  1.00  0.00    -0.360 C  
HETATM   23  O   UNL     1     -10.808  19.695  65.847  1.00  0.00    -0.446 OA 
HETATM   24  O   UNL     1      -8.945  15.328  70.269  1.00  0.00    -0.201 OA 
HETATM   25  H   UNL     1      -8.072  15.552  70.571  1.00  0.00     0.000 HD 
HETATM   26  H   UNL     1     -11.706  19.824  66.128  1.00  0.00     0.000 HD 
ENDBRANCH   2   3
TORSDOF 1
ENDMDL
MODEL        4
REMARK 921   NORMALIZED FREE ENERGY PREDICTED BY IDOCK:   -6.99 KCAL/MOL
REMARK 922        TOTAL FREE ENERGY PREDICTED BY IDOCK:   -7.53 KCAL/MOL
REMARK 923 INTER-LIGAND FREE ENERGY PREDICTED BY IDOCK:   -7.37 KCAL/MOL
REMARK 924 INTRA-LIGAND FREE ENERGY PREDICTED BY IDOCK:   -0.16 KCAL/MOL
REMARK 927      BINDING AFFINITY PREDICTED BY RF-SCORE:    0.00 PKD
ROOT
HETATM    1  C   UNL     1     -10.197  19.907  66.009  1.00  0.00    -0.591 C  
HETATM    2  C   UNL     1      -8.925  19.185  66.450  1.00  0.00    -0.356 C  
ENDROOT
BRANCH   2   3
HETATM    3  C   UNL     1      -9.197  18.061  67.439  1.00  0.00    -0.253 C  
HETATM    4  C   UNL     1     -10.502  17.219  67.211  1.00  0.00    -0.319 C  
HETATM    5  C   UNL     1     -11.004  17.305  68.693  1.00  0.00    -0.097 C  
HETATM    6  C   UNL     1     -10.013  16.290  69.351  1.00  0.00    -0.232 C  
HETATM    7  C   UNL     1     -10.470  15.005  70.034  1.00  0.00    -0.114 C  
HETATM    8  N   UNL     1     -11.773  15.134  70.686  1.00  0.00    -0.287 NA 
HETATM    9  C   UNL     1     -11.894  16.010  71.835  1.00  0.00    -0.534 C  
HETATM   10  C   UNL     1     -12.174  13.787  70.718  1.00  0.00    -0.363 A  
HETATM   11  C   UNL     1     -12.995  13.209  71.673  1.00  0.00    -0.429 A  
HETATM   12  C   UNL     1     -13.194  11.835  71.629  1.00  0.00    -0.368 A  
HETATM   13  C   UNL     1     -12.597  11.060  70.622  1.00  0.00    -0.427 A  
HETATM   14  C   UNL     1     -11.798  11.644  69.626  1.00  0.00    -0.419 A  
HETATM   15  C   UNL     1     -11.591  13.008  69.674  1.00  0.00    -0.322 A  
HETATM   16  C   UNL     1     -10.721  13.889  68.827  1.00  0.00    -0.278 C  
HETATM   17  C   UNL     1      -9.332  13.596  68.273  1.00  0.00    -0.204 C  
HETATM   18  C   UNL     1      -8.998  14.952  67.546  1.00  0.00    -0.185 C  
HETATM   19  N   UNL     1      -8.672  15.969  68.591  1.00  0.00    -0.195 NA 
HETATM   20  C   UNL     1     -10.278  15.526  66.811  1.00  0.00    -0.282 C  
HETATM   21  C   UNL     1     -11.371  14.481  67.426  1.00  0.00    -0.356 C  
HETATM   22  C   UNL     1      -8.099  17.099  67.851  1.00  0.00    -0.201 C  
HETATM   23  O   UNL     1      -7.155  17.693  68.707  1.00  0.00    -0.243 OA 
HETATM   24  O   UNL     1     -11.494  13.424  66.459  1.00  0.00    -0.317 OA 
HETATM   25  H   UNL     1     -11.867  13.763  65.655  1.00  0.00     0.000 HD 
HETATM   26  H   UNL     1      -6.468  17.090  68.966  1.00  0.00     0.000 HD 
ENDBRANCH   2   3
TORSDOF 1
ENDMDL
MODEL        5
REMARK 921   NORMALIZED FREE ENERGY PREDICTED BY IDOCK:   -6.99 KCAL/MOL
REMARK 922        TOTAL FREE ENERGY PREDICTED BY IDOCK:   -7.53 KCAL/MOL
REMARK 923 INTER-LIGAND FREE ENERGY PREDICTED BY IDOCK:   -7.39 KCAL/MOL
REMARK 924 INTRA-LIGAND FREE ENERGY PREDICTED BY IDOCK:   -0.14 KCAL/MOL
REMARK 927      BINDING AFFINITY PREDICTED BY RF-SCORE:    0.00 PKD
ROOT
HETATM    1  C   UNL     1      -9.725   9.970  64.892  1.00  0.00    -0.377 C  
HETATM    2  C   UNL     1      -9.631  11.494  64.931  1.00  0.00    -0.212 C  
ENDROOT
BRANCH   2   3
HETATM    3  C   UNL     1     -10.445  12.107  66.061  1.00  0.00    -0.281 C  
HETATM    4  C   UNL     1      -9.644  12.629  67.306  1.00  0.00    -0.203 C  
HETATM    5  C   UNL     1     -10.541  11.919  68.378  1.00  0.00    -0.239 C  
HETATM    6  C   UNL     1     -11.792  12.855  68.317  1.00  0.00    -0.330 C  
HETATM    7  C   UNL     1     -12.277  13.673  69.509  1.00  0.00    -0.264 C  
HETATM    8  N   UNL     1     -12.040  13.013  70.792  1.00  0.00    -0.276 NA 
HETATM    9  C   UNL     1     -12.765  11.794  71.094  1.00  0.00    -0.305 C  
HETATM   10  C   UNL     1     -12.041  14.125  71.653  1.00  0.00    -0.107 A  
HETATM   11  C   UNL     1     -12.431  14.119  72.982  1.00  0.00    -0.111 A  
HETATM   12  C   UNL     1     -12.491  15.332  73.659  1.00  0.00    -0.716 A  
HETATM   13  C   UNL     1     -12.137  16.526  73.012  1.00  0.00    -0.477 A  
HETATM   14  C   UNL     1     -11.700  16.535  71.678  1.00  0.00    -0.205 A  
HETATM   15  C   UNL     1     -11.650  15.333  71.001  1.00  0.00    -0.399 A  
HETATM   16  C   UNL     1     -11.329  15.038  69.566  1.00  0.00    -0.308 C  
HETATM   17  C   UNL     1     -11.719  15.834  68.326  1.00  0.00    -0.229 C  
HETATM   18  C   UNL     1     -11.117  14.937  67.181  1.00  0.00    -0.332 C  
HETATM   19  N   UNL     1     -11.992  13.735  67.027  1.00  0.00    -0.408 NA 
HETATM   20  C   UNL     1      -9.706  14.356  67.606  1.00  0.00    -0.219 C  
HETATM   21  C   UNL     1      -9.737  14.824  69.170  1.00  0.00    -0.146 C  
HETATM   22  C   UNL     1     -11.550  13.106  65.778  1.00  0.00    -0.347 C  
HETATM   23  O   UNL     1     -12.690  12.505  65.215  1.00  0.00    -0.654 OA 
HETATM   24  O   UNL     1      -9.047  16.085  69.218  1.00  0.00    -0.246 OA 
HETATM   25  H   UNL     1      -8.134  15.962  68.990  1.00  0.00     0.000 HD 
HETATM   26  H   UNL     1     -13.382  13.131  65.038  1.00  0.00     0.000 HD 
ENDBRANCH   2   3
TORSDOF 1
ENDMDL
MODEL        6
REMARK 921   NORMALIZED FREE ENERGY PREDICTED BY IDOCK:   -6.97 KCAL/MOL
REMARK 922        TOTAL FREE ENERGY PREDICTED BY IDOCK:   -7.51 KCAL/MOL
REMARK 923 INTER-LIGAND FREE ENERGY PREDICTED BY IDOCK:   -7.34 KCAL/MOL
REMARK 924 INTRA-LIGAND FREE ENERGY PREDICTED BY IDOCK:   -0.17 KCAL/MOL
REMARK 927      BINDING AFFINITY PREDICTED BY RF-SCORE:    0.00 PKD
ROOT
HETATM    1  C   UNL     1     -12.083  13.978  64.108  1.00  0.00    -0.456 C  
HETATM    2  C   UNL     1     -11.983  13.278  65.461  1.00  0.00    -0.445 C  
ENDROOT
BRANCH   2   3
HETATM    3  C   UNL     1     -11.192  14.079  66.484  1.00  0.00    -0.326 C  
HETATM    4  C   UNL     1     -10.053  15.006  65.928  1.00  0.00    -0.343 C  
HETATM    5  C   UNL     1      -8.951  14.517  66.930  1.00  0.00    -0.267 C  
HETATM    6  C   UNL     1      -9.440  15.256  68.219  1.00  0.00    -0.205 C  
HETATM    7  C   UNL     1      -8.605  16.306  68.943  1.00  0.00    -0.260 C  
HETATM    8  N   UNL     1      -7.167  16.050  68.865  1.00  0.00    -0.156 NA 
HETATM    9  C   UNL     1      -6.630  14.886  69.541  1.00  0.00    -0.154 C  
HETATM   10  C   UNL     1      -6.667  17.346  69.081  1.00  0.00    -0.243 A  
HETATM   11  C   UNL     1      -5.455  17.658  69.674  1.00  0.00    -0.208 A  
HETATM   12  C   UNL     1      -5.166  18.994  69.925  1.00  0.00    -0.213 A  
HETATM   13  C   UNL     1      -6.073  20.000  69.559  1.00  0.00    -0.368 A  
HETATM   14  C   UNL     1      -7.285  19.695  68.919  1.00  0.00    -0.381 A  
HETATM   15  C   UNL     1      -7.579  18.368  68.678  1.00  0.00    -0.321 A  
HETATM   16  C   UNL     1      -8.815  17.733  68.115  1.00  0.00    -0.267 C  
HETATM   17  C   UNL     1     -10.271  18.114  68.360  1.00  0.00    -0.401 C  
HETATM   18  C   UNL     1     -11.023  17.013  67.523  1.00  0.00    -0.119 C  
HETATM   19  N   UNL     1     -10.942  15.725  68.275  1.00  0.00    -0.310 NA 
HETATM   20  C   UNL     1     -10.268  16.731  66.159  1.00  0.00    -0.363 C  
HETATM   21  C   UNL     1      -8.921  17.599  66.469  1.00  0.00    -0.262 C  
HETATM   22  C   UNL     1     -11.891  14.834  67.599  1.00  0.00    -0.292 C  
HETATM   23  O   UNL     1     -12.404  13.979  68.590  1.00  0.00    -0.525 OA 
HETATM   24  O   UNL     1      -9.144  18.895  65.887  1.00  0.00    -0.454 OA 
HETATM   25  H   UNL     1      -9.204  18.818  64.942  1.00  0.00     0.000 HD 
HETATM   26  H   UNL     1     -12.841  14.452  69.288  1.00  0.00     0.000 HD 
ENDBRANCH   2   3
TORSDOF 1
ENDMDL
MODEL        7
REMARK 921   NORMALIZED FREE ENERGY PREDICTED BY IDOCK:   -6.85 KCAL/MOL
REMARK 922        TOTAL FREE ENERGY PREDICTED BY IDOCK:   -7.38 KCAL/MOL
REMARK 923 INTER-LIGAND FREE ENERGY PREDICTED BY IDOCK:   -7.20 KCAL/MOL
REMARK 924 INTRA-LIGAND FREE ENERGY PREDICTED BY IDOCK:   -0.18 KCAL/MOL
REMARK 927      BINDING AFFINITY PREDICTED BY RF-SCORE:    0.00 PKD
ROOT
HETATM    1  C   UNL     1      -6.186  11.085  66.346  1.00  0.00    -0.136 C  
HETATM    2  C   UNL     1      -7.457  10.633  65.632  1.00  0.00    -0.093 C  
ENDROOT
BRANCH   2   3
HETATM    3  C   UNL     1      -8.725  11.019  66.380  1.00  0.00    -0.174 C  
HETATM    4  C   UNL     1      -8.556  11.993  67.599  1.00  0.00    -0.163 C  
HETATM    5  C   UNL     1      -9.414  11.143  68.598  1.00  0.00    -0.196 C  
HETATM    6  C   UNL     1     -10.840  11.474  68.047  1.00  0.00    -0.213 C  
HETATM    7  C   UNL     1     -11.905  12.188  68.873  1.00  0.00    -0.304 C  
HETATM    8  N   UNL     1     -11.833  11.872  70.299  1.00  0.00    -0.318 NA 
HETATM    9  C   UNL     1     -12.137  10.521  70.729  1.00  0.00    -0.370 C  
HETATM   10  C   UNL     1     -12.475  12.998  70.841  1.00  0.00    -0.310 A  
HETATM   11  C   UNL     1     -13.205  13.026  72.017  1.00  0.00    -0.543 A  
HETATM   12  C   UNL     1     -13.882  14.195  72.349  1.00  0.00    -0.638 A  
HETATM   13  C   UNL     1     -13.800  15.324  71.519  1.00  0.00    -0.617 A  
HETATM   14  C   UNL     1     -13.028  15.317  70.347  1.00  0.00    -0.307 A  
HETATM   15  C   UNL     1     -12.364  14.154  70.011  1.00  0.00    -0.403 A  
HETATM   16  C   UNL     1     -11.559  13.812  68.793  1.00  0.00    -0.363 C  
HETATM   17  C   UNL     1     -11.828  14.196  67.342  1.00  0.00    -0.447 C  
HETATM   18  C   UNL     1     -10.644  13.465  66.605  1.00  0.00    -0.282 C  
HETATM   19  N   UNL     1     -10.955  12.004  66.569  1.00  0.00    -0.281 NA 
HETATM   20  C   UNL     1      -9.307  13.571  67.447  1.00  0.00    -0.228 C  
HETATM   21  C   UNL     1      -9.953  14.206  68.806  1.00  0.00    -0.183 C  
HETATM   22  C   UNL     1      -9.978  11.435  65.634  1.00  0.00    -0.240 C  
HETATM   23  O   UNL     1     -10.618  10.350  65.008  1.00  0.00    -0.190 OA 
HETATM   24  O   UNL     1      -9.797  15.630  68.689  1.00  0.00    -0.199 OA 
HETATM   25  H   UNL     1      -8.874  15.856  68.697  1.00  0.00     0.000 HD 
HETATM   26  H   UNL     1     -11.403  10.611  64.541  1.00  0.00     0.000 HD 
ENDBRANCH   2   3
TORSDOF 1
ENDMDL
MODEL        8
REMARK 921   NORMALIZED FREE ENERGY PREDICTED BY IDOCK:   -6.81 KCAL/MOL
REMARK 922        TOTAL FREE ENERGY PREDICTED BY IDOCK:   -7.34 KCAL/MOL
REMARK 923 INTER-LIGAND FREE ENERGY PREDICTED BY IDOCK:   -7.19 KCAL/MOL
REMARK 924 INTRA-LIGAND FREE ENERGY PREDICTED BY IDOCK:   -0.14 KCAL/MOL
REMARK 927      BINDING AFFINITY PREDICTED BY RF-SCORE:    0.00 PKD
ROOT
HETATM    1  C   UNL     1      -8.867   9.369  65.538  1.00  0.00    -0.220 C  
HETATM    2  C   UNL     1     -10.285   9.763  65.947  1.00  0.00    -0.245 C  
ENDROOT
BRANCH   2   3
HETATM    3  C   UNL     1     -10.345  11.118  66.636  1.00  0.00    -0.286 C  
HETATM    4  C   UNL     1      -9.694  12.327  65.875  1.00  0.00    -0.247 C  
HETATM    5  C   UNL     1      -8.867  12.854  67.098  1.00  0.00    -0.210 C  
HETATM    6  C   UNL     1     -10.025  13.508  67.920  1.00  0.00    -0.245 C  
HETATM    7  C   UNL     1     -10.078  14.998  68.241  1.00  0.00    -0.222 C  
HETATM    8  N   UNL     1      -8.755  15.594  68.423  1.00  0.00    -0.173 NA 
HETATM    9  C   UNL     1      -7.958  15.185  69.563  1.00  0.00    -0.175 C  
HETATM   10  C   UNL     1      -9.045  16.941  68.149  1.00  0.00    -0.231 A  
HETATM   11  C   UNL     1      -8.390  18.036  68.688  1.00  0.00    -0.282 A  
HETATM   12  C   UNL     1      -8.882  19.306  68.407  1.00  0.00    -0.395 A  
HETATM   13  C   UNL     1     -10.000  19.467  67.574  1.00  0.00    -0.495 A  
HETATM   14  C   UNL     1     -10.643  18.366  66.989  1.00  0.00    -0.400 A  
HETATM   15  C   UNL     1     -10.162  17.103  67.275  1.00  0.00    -0.316 A  
HETATM   16  C   UNL     1     -10.688  15.753  66.891  1.00  0.00    -0.299 C  
HETATM   17  C   UNL     1     -12.139  15.290  66.809  1.00  0.00     0.419 C  
HETATM   18  C   UNL     1     -11.957  13.777  66.414  1.00  0.00    -0.438 C  
HETATM   19  N   UNL     1     -11.497  13.034  67.626  1.00  0.00    -0.303 NA 
HETATM   20  C   UNL     1     -10.782  13.606  65.367  1.00  0.00    -0.311 C  
HETATM   21  C   UNL     1     -10.200  15.130  65.438  1.00  0.00    -0.372 C  
HETATM   22  C   UNL     1     -11.628  11.617  67.272  1.00  0.00    -0.238 C  
HETATM   23  O   UNL     1     -11.938  10.940  68.465  1.00  0.00    -0.670 OA 
HETATM   24  O   UNL     1     -10.833  15.845  64.363  1.00  0.00    -0.843 OA 
HETATM   25  H   UNL     1     -10.553  15.487  63.529  1.00  0.00     0.000 HD 
HETATM   26  H   UNL     1     -12.742  11.252  68.863  1.00  0.00     0.000 HD 
ENDBRANCH   2   3
TORSDOF 1
ENDMDL
MODEL        9
REMARK 921   NORMALIZED FREE ENERGY PREDICTED BY IDOCK:   -6.79 KCAL/MOL
REMARK 922        TOTAL FREE ENERGY PREDICTED BY IDOCK:   -7.31 KCAL/MOL
REMARK 923 INTER-LIGAND FREE ENERGY PREDICTED BY IDOCK:   -7.14 KCAL/MOL
REMARK 924 INTRA-LIGAND FREE ENERGY PREDICTED BY IDOCK:   -0.18 KCAL/MOL
REMARK 927      BINDING AFFINITY PREDICTED BY RF-SCORE:    0.00 PKD
ROOT
HETATM    1  C   UNL     1     -10.379  20.194  65.883  1.00  0.00    -0.448 C  
HETATM    2  C   UNL     1      -9.208  19.925  66.826  1.00  0.00    -0.480 C  
ENDROOT
BRANCH   2   3
HETATM    3  C   UNL     1      -9.265  18.542  67.458  1.00  0.00    -0.288 C  
HETATM    4  C   UNL     1     -10.228  17.498  66.788  1.00  0.00    -0.327 C  
HETATM    5  C   UNL     1     -10.919  17.047  68.121  1.00  0.00    -0.263 C  
HETATM    6  C   UNL     1      -9.768  16.169  68.714  1.00  0.00    -0.233 C  
HETATM    7  C   UNL     1      -9.915  14.675  68.981  1.00  0.00    -0.193 C  
HETATM    8  N   UNL     1     -11.271  14.292  69.372  1.00  0.00    -0.271 NA 
HETATM    9  C   UNL     1     -11.788  14.761  70.643  1.00  0.00    -0.305 C  
HETATM   10  C   UNL     1     -11.264  12.933  69.016  1.00  0.00    -0.267 A  
HETATM   11  C   UNL     1     -11.996  11.931  69.631  1.00  0.00    -0.365 A  
HETATM   12  C   UNL     1     -11.780  10.616  69.235  1.00  0.00    -0.336 A  
HETATM   13  C   UNL     1     -10.859  10.321  68.218  1.00  0.00    -0.300 A  
HETATM   14  C   UNL     1     -10.144  11.334  67.561  1.00  0.00    -0.207 A  
HETATM   15  C   UNL     1     -10.350  12.640  67.959  1.00  0.00    -0.231 A  
HETATM   16  C   UNL     1      -9.674  13.906  67.526  1.00  0.00    -0.232 C  
HETATM   17  C   UNL     1      -8.200  14.131  67.207  1.00  0.00    -0.200 C  
HETATM   18  C   UNL     1      -8.185  15.673  66.890  1.00  0.00    -0.253 C  
HETATM   19  N   UNL     1      -8.306  16.412  68.183  1.00  0.00    -0.181 NA 
HETATM   20  C   UNL     1      -9.472  16.090  66.066  1.00  0.00    -0.384 C  
HETATM   21  C   UNL     1     -10.283  14.679  66.196  1.00  0.00    -0.301 C  
HETATM   22  C   UNL     1      -7.997  17.807  67.849  1.00  0.00    -0.233 C  
HETATM   23  O   UNL     1      -7.384  18.358  68.988  1.00  0.00    -0.277 OA 
HETATM   24  O   UNL     1      -9.968  13.932  65.009  1.00  0.00    -0.563 OA 
HETATM   25  H   UNL     1     -10.318  14.375  64.245  1.00  0.00     0.000 HD 
HETATM   26  H   UNL     1      -6.590  17.898  69.234  1.00  0.00     0.000 HD 
ENDBRANCH   2   3
TORSDOF 1
ENDMDL
MODEL       10
REMARK 921   NORMALIZED FREE ENERGY PREDICTED BY IDOCK:   -6.74 KCAL/MOL
REMARK 922        TOTAL FREE ENERGY PREDICTED BY IDOCK:   -7.26 KCAL/MOL
REMARK 923 INTER-LIGAND FREE ENERGY PREDICTED BY IDOCK:   -7.10 KCAL/MOL
REMARK 924 INTRA-LIGAND FREE ENERGY PREDICTED BY IDOCK:   -0.16 KCAL/MOL
REMARK 927      BINDING AFFINITY PREDICTED BY RF-SCORE:    0.00 PKD
ROOT
HETATM    1  C   UNL     1     -12.334  10.934  70.090  1.00  0.00    -0.399 C  
HETATM    2  C   UNL     1     -11.780  10.845  68.670  1.00  0.00    -0.334 C  
ENDROOT
BRANCH   2   3
HETATM    3  C   UNL     1     -11.131  12.141  68.206  1.00  0.00    -0.288 C  
HETATM    4  C   UNL     1     -11.880  13.474  68.566  1.00  0.00    -0.398 C  
HETATM    5  C   UNL     1     -11.811  14.085  67.124  1.00  0.00    -0.444 C  
HETATM    6  C   UNL     1     -10.303  14.497  67.100  1.00  0.00    -0.265 C  
HETATM    7  C   UNL     1      -9.838  15.942  66.949  1.00  0.00    -0.243 C  
HETATM    8  N   UNL     1     -10.730  16.748  66.118  1.00  0.00    -0.185 NA 
HETATM    9  C   UNL     1     -10.836  16.438  64.705  1.00  0.00    -0.178 C  
HETATM   10  C   UNL     1     -10.418  18.036  66.586  1.00  0.00    -0.325 A  
HETATM   11  C   UNL     1     -10.483  19.205  65.846  1.00  0.00    -0.500 A  
HETATM   12  C   UNL     1     -10.019  20.381  66.424  1.00  0.00    -0.402 A  
HETATM   13  C   UNL     1      -9.524  20.381  67.737  1.00  0.00    -0.424 A  
HETATM   14  C   UNL     1      -9.494  19.210  68.509  1.00  0.00    -0.444 A  
HETATM   15  C   UNL     1      -9.944  18.038  67.932  1.00  0.00    -0.335 A  
HETATM   16  C   UNL     1      -9.943  16.634  68.458  1.00  0.00    -0.261 C  
HETATM   17  C   UNL     1      -8.870  15.933  69.283  1.00  0.00    -0.249 C  
HETATM   18  C   UNL     1      -9.484  14.490  69.425  1.00  0.00     0.174 C  
HETATM   19  N   UNL     1      -9.328  13.790  68.114  1.00  0.00    -0.206 NA 
HETATM   20  C   UNL     1     -11.049  14.565  69.658  1.00  0.00    -0.264 C  
HETATM   21  C   UNL     1     -11.236  16.163  69.375  1.00  0.00    -0.335 C  
HETATM   22  C   UNL     1      -9.647  12.386  68.396  1.00  0.00    -0.180 C  
HETATM   23  O   UNL     1      -8.858  11.619  67.522  1.00  0.00    -0.151 OA 
HETATM   24  O   UNL     1     -11.180  16.800  70.663  1.00  0.00    -0.460 OA 
HETATM   25  H   UNL     1     -11.923  16.529  71.190  1.00  0.00     0.000 HD 
HETATM   26  H   UNL     1      -7.927  11.773  67.641  1.00  0.00     0.000 HD 
ENDBRANCH   2   3
TORSDOF 1
ENDMDL
MODEL       11
REMARK 921   NORMALIZED FREE ENERGY PREDICTED BY IDOCK:   -6.69 KCAL/MOL
REMARK 922        TOTAL FREE ENERGY PREDICTED BY IDOCK:   -7.21 KCAL/MOL
REMARK 923 INTER-LIGAND FREE ENERGY PREDICTED BY IDOCK:   -7.04 KCAL/MOL
REMARK 924 INTRA-LIGAND FREE ENERGY PREDICTED BY IDOCK:   -0.17 KCAL/MOL
REMARK 927      BINDING AFFINITY PREDICTED BY RF-SCORE:    0.00 PKD
ROOT
HETATM    1  C   UNL     1     -11.654  11.778  66.835  1.00  0.00    -0.310 C  
HETATM    2  C   UNL     1     -11.316  11.948  68.314  1.00  0.00    -0.335 C  
ENDROOT
BRANCH   2   3
HETATM    3  C   UNL     1     -10.671  13.291  68.623  1.00  0.00    -0.281 C  
HETATM    4  C   UNL     1      -9.958  14.023  67.430  1.00  0.00    -0.243 C  
HETATM    5  C   UNL     1      -8.632  14.329  68.207  1.00  0.00    -0.176 C  
HETATM    6  C   UNL     1      -9.137  15.497  69.115  1.00  0.00    -0.248 C  
HETATM    7  C   UNL     1      -8.569  16.910  69.045  1.00  0.00    -0.148 C  
HETATM    8  N   UNL     1      -7.148  16.942  68.704  1.00  0.00    -0.191 NA 
HETATM    9  C   UNL     1      -6.192  16.402  69.651  1.00  0.00    -0.210 C  
HETATM   10  C   UNL     1      -7.041  18.242  68.181  1.00  0.00    -0.236 A  
HETATM   11  C   UNL     1      -5.911  19.042  68.225  1.00  0.00    -0.221 A  
HETATM   12  C   UNL     1      -6.010  20.352  67.771  1.00  0.00    -0.264 A  
HETATM   13  C   UNL     1      -7.223  20.838  67.259  1.00  0.00    -0.415 A  
HETATM   14  C   UNL     1      -8.361  20.021  67.172  1.00  0.00    -0.381 A  
HETATM   15  C   UNL     1      -8.268  18.722  67.631  1.00  0.00    -0.282 A  
HETATM   16  C   UNL     1      -9.318  17.660  67.763  1.00  0.00    -0.255 C  
HETATM   17  C   UNL     1     -10.771  17.814  68.197  1.00  0.00    -0.293 C  
HETATM   18  C   UNL     1     -11.261  16.318  68.170  1.00  0.00    -0.298 C  
HETATM   19  N   UNL     1     -10.687  15.622  69.361  1.00  0.00    -0.232 NA 
HETATM   20  C   UNL     1     -10.655  15.551  66.924  1.00  0.00    -0.307 C  
HETATM   21  C   UNL     1      -9.606  16.706  66.443  1.00  0.00    -0.285 C  
HETATM   22  C   UNL     1     -11.404  14.344  69.431  1.00  0.00    -0.281 C  
HETATM   23  O   UNL     1     -11.489  14.014  70.795  1.00  0.00    -0.516 OA 
HETATM   24  O   UNL     1     -10.292  17.465  65.432  1.00  0.00    -0.631 OA 
HETATM   25  H   UNL     1     -10.458  16.917  64.674  1.00  0.00     0.000 HD 
HETATM   26  H   UNL     1     -11.948  14.674  71.302  1.00  0.00     0.000 HD 
ENDBRANCH   2   3
TORSDOF 1
ENDMDL
MODEL       12
REMARK 921   NORMALIZED FREE ENERGY PREDICTED BY IDOCK:   -6.67 KCAL/MOL
REMARK 922        TOTAL FREE ENERGY PREDICTED BY IDOCK:   -7.19 KCAL/MOL
REMARK 923 INTER-LIGAND FREE ENERGY PREDICTED BY IDOCK:   -7.05 KCAL/MOL
REMARK 924 INTRA-LIGAND FREE ENERGY PREDICTED BY IDOCK:   -0.14 KCAL/MOL
REMARK 927      BINDING AFFINITY PREDICTED BY RF-SCORE:    0.00 PKD
ROOT
HETATM    1  C   UNL     1     -13.415  15.382  71.354  1.00  0.00    -0.607 C  
HETATM    2  C   UNL     1     -12.474  14.423  70.628  1.00  0.00    -0.419 C  
ENDROOT
BRANCH   2   3
HETATM    3  C   UNL     1     -11.725  15.086  69.481  1.00  0.00    -0.350 C  
HETATM    4  C   UNL     1     -10.471  15.950  69.861  1.00  0.00    -0.311 C  
HETATM    5  C   UNL     1     -10.876  17.199  69.005  1.00  0.00    -0.129 C  
HETATM    6  C   UNL     1     -10.535  16.648  67.583  1.00  0.00    -0.320 C  
HETATM    7  C   UNL     1      -9.480  17.277  66.678  1.00  0.00    -0.265 C  
HETATM    8  N   UNL     1      -9.377  18.727  66.839  1.00  0.00    -0.291 NA 
HETATM    9  C   UNL     1     -10.494  19.554  66.428  1.00  0.00    -0.498 C  
HETATM   10  C   UNL     1      -8.068  18.941  66.375  1.00  0.00    -0.292 A  
HETATM   11  C   UNL     1      -7.606  20.092  65.758  1.00  0.00    -0.284 A  
HETATM   12  C   UNL     1      -6.314  20.095  65.246  1.00  0.00    -0.299 A  
HETATM   13  C   UNL     1      -5.493  18.964  65.378  1.00  0.00    -0.215 A  
HETATM   14  C   UNL     1      -5.939  17.809  66.040  1.00  0.00    -0.242 A  
HETATM   15  C   UNL     1      -7.226  17.800  66.540  1.00  0.00    -0.278 A  
HETATM   16  C   UNL     1      -8.008  16.700  67.193  1.00  0.00    -0.212 C  
HETATM   17  C   UNL     1      -8.028  15.216  66.842  1.00  0.00    -0.155 C  
HETATM   18  C   UNL     1      -9.089  14.671  67.869  1.00  0.00    -0.189 C  
HETATM   19  N   UNL     1     -10.445  15.087  67.398  1.00  0.00    -0.254 NA 
HETATM   20  C   UNL     1      -8.920  15.374  69.279  1.00  0.00    -0.261 C  
HETATM   21  C   UNL     1      -7.841  16.514  68.828  1.00  0.00    -0.235 C  
HETATM   22  C   UNL     1     -11.383  14.315  68.220  1.00  0.00    -0.289 C  
HETATM   23  O   UNL     1     -12.508  14.073  67.414  1.00  0.00    -0.518 OA 
HETATM   24  O   UNL     1      -6.544  15.970  69.129  1.00  0.00    -0.141 OA 
HETATM   25  H   UNL     1      -6.449  15.863  70.068  1.00  0.00     0.000 HD 
HETATM   26  H   UNL     1     -12.293  13.591  66.624  1.00  0.00     0.000 HD 
ENDBRANCH   2   3
TORSDOF 1
ENDMDL
MODEL       13
REMARK 921   NORMALIZED FREE ENERGY PREDICTED BY IDOCK:   -6.57 KCAL/MOL
REMARK 922        TOTAL FREE ENERGY PREDICTED BY IDOCK:   -7.08 KCAL/MOL
REMARK 923 INTER-LIGAND FREE ENERGY PREDICTED BY IDOCK:   -6.92 KCAL/MOL
REMARK 924 INTRA-LIGAND FREE ENERGY PREDICTED BY IDOCK:   -0.16 KCAL/MOL
REMARK 927      BINDING AFFINITY PREDICTED BY RF-SCORE:    0.00 PKD
ROOT
HETATM    1  C   UNL     1      -8.173  18.769  66.313  1.00  0.00    -0.270 C  
HETATM    2  C   UNL     1      -7.798  17.359  65.861  1.00  0.00    -0.077 C  
ENDROOT
BRANCH   2   3
HETATM    3  C   UNL     1      -8.778  16.302  66.349  1.00  0.00    -0.354 C  
HETATM    4  C   UNL     1      -8.633  15.841  67.842  1.00  0.00    -0.160 C  
HETATM    5  C   UNL     1      -8.666  14.304  67.534  1.00  0.00    -0.204 C  
HETATM    6  C   UNL     1     -10.192  14.141  67.238  1.00  0.00    -0.256 C  
HETATM    7  C   UNL     1     -11.112  13.257  68.073  1.00  0.00    -0.256 C  
HETATM    8  N   UNL     1     -10.440  12.074  68.608  1.00  0.00    -0.227 NA 
HETATM    9  C   UNL     1      -9.986  11.052  67.685  1.00  0.00    -0.173 C  
HETATM   10  C   UNL     1     -11.271  11.784  69.704  1.00  0.00    -0.152 A  
HETATM   11  C   UNL     1     -11.503  10.526  70.235  1.00  0.00    -0.416 A  
HETATM   12  C   UNL     1     -12.450  10.398  71.243  1.00  0.00    -0.521 A  
HETATM   13  C   UNL     1     -13.133  11.525  71.726  1.00  0.00    -0.503 A  
HETATM   14  C   UNL     1     -12.873  12.809  71.223  1.00  0.00    -0.355 A  
HETATM   15  C   UNL     1     -11.939  12.938  70.214  1.00  0.00    -0.359 A  
HETATM   16  C   UNL     1     -11.527  14.140  69.419  1.00  0.00    -0.337 C  
HETATM   17  C   UNL     1     -12.402  15.270  68.889  1.00  0.00    -0.007 C  
HETATM   18  C   UNL     1     -11.345  16.139  68.110  1.00  0.00    -0.270 C  
HETATM   19  N   UNL     1     -11.008  15.428  66.839  1.00  0.00    -0.315 NA 
HETATM   20  C   UNL     1      -9.978  16.209  68.906  1.00  0.00    -0.233 C  
HETATM   21  C   UNL     1     -10.331  15.095  70.047  1.00  0.00    -0.158 C  
HETATM   22  C   UNL     1     -10.260  16.409  66.046  1.00  0.00    -0.356 C  
HETATM   23  O   UNL     1     -10.556  16.135  64.699  1.00  0.00    -0.745 OA 
HETATM   24  O   UNL     1     -10.835  15.832  71.175  1.00  0.00    -0.218 OA 
HETATM   25  H   UNL     1     -10.149  16.380  71.535  1.00  0.00     0.000 HD 
HETATM   26  H   UNL     1     -11.485  16.201  64.509  1.00  0.00     0.000 HD 
ENDBRANCH   2   3
TORSDOF 1
ENDMDL
MODEL       14
REMARK 921   NORMALIZED FREE ENERGY PREDICTED BY IDOCK:   -6.55 KCAL/MOL
REMARK 922        TOTAL FREE ENERGY PREDICTED BY IDOCK:   -7.06 KCAL/MOL
REMARK 923 INTER-LIGAND FREE ENERGY PREDICTED BY IDOCK:   -6.94 KCAL/MOL
REMARK 924 INTRA-LIGAND FREE ENERGY PREDICTED BY IDOCK:   -0.12 KCAL/MOL
REMARK 927      BINDING AFFINITY PREDICTED BY RF-SCORE:    0.00 PKD
ROOT
HETATM    1  C   UNL     1      -9.865  20.572  67.261  1.00  0.00    -0.581 C  
HETATM    2  C   UNL     1      -9.172  19.713  68.317  1.00  0.00    -0.412 C  
ENDROOT
BRANCH   2   3
HETATM    3  C   UNL     1      -8.946  18.280  67.858  1.00  0.00    -0.285 C  
HETATM    4  C   UNL     1      -9.822  17.173  68.545  1.00  0.00    -0.297 C  
HETATM    5  C   UNL     1      -8.629  16.207  68.865  1.00  0.00    -0.245 C  
HETATM    6  C   UNL     1      -8.371  15.645  67.429  1.00  0.00    -0.177 C  
HETATM    7  C   UNL     1      -8.520  14.169  67.074  1.00  0.00    -0.156 C  
HETATM    8  N   UNL     1      -8.172  13.276  68.178  1.00  0.00    -0.152 NA 
HETATM    9  C   UNL     1      -6.793  13.222  68.623  1.00  0.00    -0.099 C  
HETATM   10  C   UNL     1      -8.891  12.126  67.809  1.00  0.00    -0.172 A  
HETATM   11  C   UNL     1      -8.537  10.820  68.104  1.00  0.00    -0.129 A  
HETATM   12  C   UNL     1      -9.293   9.789  67.558  1.00  0.00    -0.152 A  
HETATM   13  C   UNL     1     -10.404  10.074  66.749  1.00  0.00    -0.283 A  
HETATM   14  C   UNL     1     -10.795  11.395  66.479  1.00  0.00    -0.334 A  
HETATM   15  C   UNL     1     -10.039  12.420  67.013  1.00  0.00    -0.223 A  
HETATM   16  C   UNL     1     -10.143  13.903  66.824  1.00  0.00    -0.265 C  
HETATM   17  C   UNL     1     -10.472  14.675  65.551  1.00  0.00    -0.374 C  
HETATM   18  C   UNL     1     -10.349  16.163  66.052  1.00  0.00    -0.358 C  
HETATM   19  N   UNL     1      -8.897  16.482  66.203  1.00  0.00    -0.398 NA 
HETATM   20  C   UNL     1     -10.949  16.316  67.510  1.00  0.00    -0.207 C  
HETATM   21  C   UNL     1     -11.168  14.729  67.825  1.00  0.00    -0.313 C  
HETATM   22  C   UNL     1      -8.848  17.936  66.385  1.00  0.00    -0.228 C  
HETATM   23  O   UNL     1      -7.639  18.365  65.810  1.00  0.00    -0.500 OA 
HETATM   24  O   UNL     1     -12.532  14.442  67.473  1.00  0.00    -0.599 OA 
HETATM   25  H   UNL     1     -13.121  14.916  68.048  1.00  0.00     0.000 HD 
HETATM   26  H   UNL     1      -7.577  18.149  64.887  1.00  0.00     0.000 HD 
ENDBRANCH   2   3
TORSDOF 1
ENDMDL
MODEL       15
REMARK 921   NORMALIZED FREE ENERGY PREDICTED BY IDOCK:   -6.49 KCAL/MOL
REMARK 922        TOTAL FREE ENERGY PREDICTED BY IDOCK:   -6.99 KCAL/MOL
REMARK 923 INTER-LIGAND FREE ENERGY PREDICTED BY IDOCK:   -6.83 KCAL/MOL
REMARK 924 INTRA-LIGAND FREE ENERGY PREDICTED BY IDOCK:   -0.16 KCAL/MOL
REMARK 927      BINDING AFFINITY PREDICTED BY RF-SCORE:    0.00 PKD
ROOT
HETATM    1  C   UNL     1     -12.155  12.657  66.060  1.00  0.00    -0.429 C  
HETATM    2  C   UNL     1     -12.743  14.040  65.791  1.00  0.00    -0.487 C  
ENDROOT
BRANCH   2   3
HETATM    3  C   UNL     1     -11.748  15.164  66.039  1.00  0.00     0.003 C  
HETATM    4  C   UNL     1     -10.911  15.087  67.365  1.00  0.00    -0.305 C  
HETATM    5  C   UNL     1     -11.179  16.567  67.805  1.00  0.00    -0.097 C  
HETATM    6  C   UNL     1     -10.229  17.301  66.803  1.00  0.00    -0.318 C  
HETATM    7  C   UNL     1      -9.042  18.148  67.252  1.00  0.00    -0.252 C  
HETATM    8  N   UNL     1      -9.272  18.830  68.524  1.00  0.00    -0.338 NA 
HETATM    9  C   UNL     1     -10.278  19.872  68.585  1.00  0.00    -0.378 C  
HETATM   10  C   UNL     1      -7.946  19.036  68.944  1.00  0.00    -0.287 A  
HETATM   11  C   UNL     1      -7.500  20.083  69.734  1.00  0.00     0.237 A  
HETATM   12  C   UNL     1      -6.134  20.209  69.956  1.00  0.00    -0.392 A  
HETATM   13  C   UNL     1      -5.236  19.278  69.411  1.00  0.00    -0.196 A  
HETATM   14  C   UNL     1      -5.683  18.190  68.646  1.00  0.00    -0.185 A  
HETATM   15  C   UNL     1      -7.039  18.069  68.416  1.00  0.00    -0.247 A  
HETATM   16  C   UNL     1      -7.798  17.091  67.569  1.00  0.00    -0.186 C  
HETATM   17  C   UNL     1      -7.415  16.522  66.207  1.00  0.00    -0.094 C  
HETATM   18  C   UNL     1      -8.670  15.628  65.883  1.00  0.00     0.127 C  
HETATM   19  N   UNL     1      -9.795  16.533  65.499  1.00  0.00    -0.542 NA 
HETATM   20  C   UNL     1      -9.179  14.881  67.183  1.00  0.00    -0.231 C  
HETATM   21  C   UNL     1      -8.234  15.657  68.266  1.00  0.00    -0.142 C  
HETATM   22  C   UNL     1     -10.819  15.644  64.940  1.00  0.00    -0.418 C  
HETATM   23  O   UNL     1     -11.490  16.387  63.953  1.00  0.00    -1.569 OA 
HETATM   24  O   UNL     1      -7.074  14.826  68.444  1.00  0.00    -0.103 OA 
HETATM   25  H   UNL     1      -7.325  14.002  68.845  1.00  0.00     0.000 HD 
HETATM   26  H   UNL     1     -10.908  16.687  63.265  1.00  0.00     0.000 HD 
ENDBRANCH   2   3
TORSDOF 1
ENDMDL
MODEL       16
REMARK 921   NORMALIZED FREE ENERGY PREDICTED BY IDOCK:   -6.46 KCAL/MOL
REMARK 922        TOTAL FREE ENERGY PREDICTED BY IDOCK:   -6.97 KCAL/MOL
REMARK 923 INTER-LIGAND FREE ENERGY PREDICTED BY IDOCK:   -6.79 KCAL/MOL
REMARK 924 INTRA-LIGAND FREE ENERGY PREDICTED BY IDOCK:   -0.18 KCAL/MOL
REMARK 927      BINDING AFFINITY PREDICTED BY RF-SCORE:    0.00 PKD
ROOT
HETATM    1  C   UNL     1      -9.991  10.449  65.594  1.00  0.00    -0.337 C  
HETATM    2  C   UNL     1     -10.506  10.646  67.017  1.00  0.00    -0.295 C  
ENDROOT
BRANCH   2   3
HETATM    3  C   UNL     1     -10.242  12.045  67.553  1.00  0.00    -0.211 C  
HETATM    4  C   UNL     1      -9.605  13.075  66.554  1.00  0.00    -0.260 C  
HETATM    5  C   UNL     1      -8.481  13.565  67.531  1.00  0.00    -0.192 C  
HETATM    6  C   UNL     1      -9.348  14.452  68.484  1.00  0.00    -0.204 C  
HETATM    7  C   UNL     1      -9.134  15.954  68.644  1.00  0.00    -0.206 C  
HETATM    8  N   UNL     1      -7.735  16.353  68.504  1.00  0.00    -0.184 NA 
HETATM    9  C   UNL     1      -6.782  15.920  69.508  1.00  0.00    -0.192 C  
HETATM   10  C   UNL     1      -7.891  17.703  68.144  1.00  0.00    -0.257 A  
HETATM   11  C   UNL     1      -6.999  18.724  68.426  1.00  0.00    -0.278 A  
HETATM   12  C   UNL     1      -7.364  20.027  68.107  1.00  0.00    -0.315 A  
HETATM   13  C   UNL     1      -8.597  20.291  67.491  1.00  0.00    -0.389 A  
HETATM   14  C   UNL     1      -9.488  19.257  67.164  1.00  0.00    -0.388 A  
HETATM   15  C   UNL     1      -9.132  17.963  67.489  1.00  0.00    -0.245 A  
HETATM   16  C   UNL     1      -9.902  16.682  67.362  1.00  0.00    -0.254 C  
HETATM   17  C   UNL     1     -11.387  16.442  67.609  1.00  0.00     0.032 C  
HETATM   18  C   UNL     1     -11.495  14.892  67.355  1.00  0.00    -0.343 C  
HETATM   19  N   UNL     1     -10.899  14.188  68.530  1.00  0.00    -0.244 NA 
HETATM   20  C   UNL     1     -10.593  14.460  66.127  1.00  0.00    -0.298 C  
HETATM   21  C   UNL     1      -9.810  15.878  65.919  1.00  0.00    -0.351 C  
HETATM   22  C   UNL     1     -11.289  12.783  68.365  1.00  0.00    -0.295 C  
HETATM   23  O   UNL     1     -11.435  12.260  69.661  1.00  0.00    -0.387 OA 
HETATM   24  O   UNL     1     -10.549  16.592  64.913  1.00  0.00    -0.694 OA 
HETATM   25  H   UNL     1     -10.496  16.131  64.085  1.00  0.00     0.000 HD 
HETATM   26  H   UNL     1     -12.090  12.722  70.170  1.00  0.00     0.000 HD 
ENDBRANCH   2   3
TORSDOF 1
ENDMDL
MODEL       17
REMARK 921   NORMALIZED FREE ENERGY PREDICTED BY IDOCK:   -6.41 KCAL/MOL
REMARK 922        TOTAL FREE ENERGY PREDICTED BY IDOCK:   -6.91 KCAL/MOL
REMARK 923 INTER-LIGAND FREE ENERGY PREDICTED BY IDOCK:   -6.77 KCAL/MOL
REMARK 924 INTRA-LIGAND FREE ENERGY PREDICTED BY IDOCK:   -0.14 KCAL/MOL
REMARK 927      BINDING AFFINITY PREDICTED BY RF-SCORE:    0.00 PKD
ROOT
HETATM    1  C   UNL     1      -9.949  19.227  68.726  1.00  0.00    -0.511 C  
HETATM    2  C   UNL     1     -10.781  18.427  67.727  1.00  0.00    -0.371 C  
ENDROOT
BRANCH   2   3
HETATM    3  C   UNL     1     -10.154  17.086  67.375  1.00  0.00    -0.291 C  
HETATM    4  C   UNL     1     -10.965  15.801  67.773  1.00  0.00    -0.314 C  
HETATM    5  C   UNL     1      -9.763  15.062  68.454  1.00  0.00    -0.216 C  
HETATM    6  C   UNL     1      -8.977  14.629  67.173  1.00  0.00    -0.225 C  
HETATM    7  C   UNL     1      -8.724  13.171  66.807  1.00  0.00    -0.085 C  
HETATM    8  N   UNL     1      -8.561  12.305  67.974  1.00  0.00    -0.168 NA 
HETATM    9  C   UNL     1      -7.399  12.490  68.821  1.00  0.00    -0.070 C  
HETATM   10  C   UNL     1      -8.898  11.060  67.415  1.00  0.00    -0.138 A  
HETATM   11  C   UNL     1      -8.405   9.831  67.820  1.00  0.00    -0.114 A  
HETATM   12  C   UNL     1      -8.745   8.705  67.080  1.00  0.00    -0.135 A  
HETATM   13  C   UNL     1      -9.591   8.815  65.965  1.00  0.00    -0.297 A  
HETATM   14  C   UNL     1     -10.130  10.051  65.574  1.00  0.00    -0.325 A  
HETATM   15  C   UNL     1      -9.785  11.172  66.302  1.00  0.00    -0.244 A  
HETATM   16  C   UNL     1     -10.111  12.618  66.074  1.00  0.00    -0.274 C  
HETATM   17  C   UNL     1     -10.181  13.375  64.753  1.00  0.00    -0.339 C  
HETATM   18  C   UNL     1     -10.506  14.833  65.250  1.00  0.00    -0.404 C  
HETATM   19  N   UNL     1      -9.259  15.411  65.836  1.00  0.00    -0.305 NA 
HETATM   20  C   UNL     1     -11.538  14.800  66.451  1.00  0.00    -0.301 C  
HETATM   21  C   UNL     1     -11.531  13.187  66.702  1.00  0.00    -0.348 C  
HETATM   22  C   UNL     1      -9.549  16.838  66.007  1.00  0.00    -0.234 C  
HETATM   23  O   UNL     1      -8.330  17.513  65.827  1.00  0.00    -0.538 OA 
HETATM   24  O   UNL     1     -12.642  12.666  65.952  1.00  0.00    -0.526 OA 
HETATM   25  H   UNL     1     -13.457  12.993  66.313  1.00  0.00     0.000 HD 
HETATM   26  H   UNL     1      -7.950  17.358  64.970  1.00  0.00     0.000 HD 
ENDBRANCH   2   3
TORSDOF 1
ENDMDL
MODEL       18
REMARK 921   NORMALIZED FREE ENERGY PREDICTED BY IDOCK:   -6.36 KCAL/MOL
REMARK 922        TOTAL FREE ENERGY PREDICTED BY IDOCK:   -6.86 KCAL/MOL
REMARK 923 INTER-LIGAND FREE ENERGY PREDICTED BY IDOCK:   -6.70 KCAL/MOL
REMARK 924 INTRA-LIGAND FREE ENERGY PREDICTED BY IDOCK:   -0.16 KCAL/MOL
REMARK 927      BINDING AFFINITY PREDICTED BY RF-SCORE:    0.00 PKD
ROOT
HETATM    1  C   UNL     1     -10.505   9.421  68.456  1.00  0.00    -0.239 C  
HETATM    2  C   UNL     1     -10.793   9.926  67.044  1.00  0.00    -0.186 C  
ENDROOT
BRANCH   2   3
HETATM    3  C   UNL     1     -10.337  11.361  66.825  1.00  0.00    -0.271 C  
HETATM    4  C   UNL     1     -11.054  12.468  67.677  1.00  0.00    -0.301 C  
HETATM    5  C   UNL     1     -11.348  13.426  66.472  1.00  0.00    -0.346 C  
HETATM    6  C   UNL     1      -9.909  13.996  66.251  1.00  0.00    -0.305 C  
HETATM    7  C   UNL     1      -9.568  15.475  66.404  1.00  0.00    -0.291 C  
HETATM    8  N   UNL     1     -10.667  16.360  66.022  1.00  0.00    -0.245 NA 
HETATM    9  C   UNL     1     -11.074  16.406  64.632  1.00  0.00    -0.189 C  
HETATM   10  C   UNL     1     -10.325  17.516  66.747  1.00  0.00    -0.314 A  
HETATM   11  C   UNL     1     -10.619  18.818  66.379  1.00  0.00    -0.429 A  
HETATM   12  C   UNL     1     -10.100  19.855  67.146  1.00  0.00    -0.573 A  
HETATM   13  C   UNL     1      -9.319  19.580  68.280  1.00  0.00    -0.420 A  
HETATM   14  C   UNL     1      -9.053  18.262  68.683  1.00  0.00    -0.301 A  
HETATM   15  C   UNL     1      -9.559  17.231  67.917  1.00  0.00    -0.269 A  
HETATM   16  C   UNL     1      -9.364  15.749  68.032  1.00  0.00    -0.197 C  
HETATM   17  C   UNL     1      -8.096  14.987  68.399  1.00  0.00    -0.141 C  
HETATM   18  C   UNL     1      -8.583  13.495  68.268  1.00  0.00    -0.168 C  
HETATM   19  N   UNL     1      -8.693  13.170  66.814  1.00  0.00    -0.142 NA 
HETATM   20  C   UNL     1     -10.056  13.335  68.829  1.00  0.00    -0.083 C  
HETATM   21  C   UNL     1     -10.387  14.921  69.033  1.00  0.00    -0.245 C  
HETATM   22  C   UNL     1      -8.864  11.714  66.766  1.00  0.00    -0.184 C  
HETATM   23  O   UNL     1      -8.254  11.285  65.575  1.00  0.00    -0.365 OA 
HETATM   24  O   UNL     1     -10.075  15.216  70.405  1.00  0.00    -0.496 OA 
HETATM   25  H   UNL     1     -10.663  14.740  70.980  1.00  0.00     0.000 HD 
HETATM   26  H   UNL     1      -7.330  11.506  65.537  1.00  0.00     0.000 HD 
ENDBRANCH   2   3
TORSDOF 1
ENDMDL
MODEL       19
REMARK 921   NORMALIZED FREE ENERGY PREDICTED BY IDOCK:   -6.35 KCAL/MOL
REMARK 922        TOTAL FREE ENERGY PREDICTED BY IDOCK:   -6.85 KCAL/MOL
REMARK 923 INTER-LIGAND FREE ENERGY PREDICTED BY IDOCK:   -6.72 KCAL/MOL
REMARK 924 INTRA-LIGAND FREE ENERGY PREDICTED BY IDOCK:   -0.14 KCAL/MOL
REMARK 927      BINDING AFFINITY PREDICTED BY RF-SCORE:    0.00 PKD
ROOT
HETATM    1  C   UNL     1     -11.276  15.877  64.642  1.00  0.00    -0.361 C  
HETATM    2  C   UNL     1     -10.231  14.780  64.833  1.00  0.00    -0.310 C  
ENDROOT
BRANCH   2   3
HETATM    3  C   UNL     1     -10.317  14.113  66.198  1.00  0.00    -0.304 C  
HETATM    4  C   UNL     1     -11.250  12.856  66.313  1.00  0.00    -0.337 C  
HETATM    5  C   UNL     1     -11.999  13.336  67.603  1.00  0.00    -0.366 C  
HETATM    6  C   UNL     1     -10.877  13.068  68.659  1.00  0.00    -0.259 C  
HETATM    7  C   UNL     1     -11.037  12.081  69.810  1.00  0.00     0.079 C  
HETATM    8  N   UNL     1     -12.409  11.998  70.308  1.00  0.00    -0.240 NA 
HETATM    9  C   UNL     1     -12.981  13.153  70.971  1.00  0.00    -0.133 C  
HETATM   10  C   UNL     1     -12.387  10.723  70.900  1.00  0.00    -0.396 A  
HETATM   11  C   UNL     1     -13.146  10.321  71.986  1.00  0.00    -0.529 A  
HETATM   12  C   UNL     1     -12.913   9.061  72.526  1.00  0.00    -0.429 A  
HETATM   13  C   UNL     1     -11.948   8.212  71.962  1.00  0.00    -0.390 A  
HETATM   14  C   UNL     1     -11.204   8.596  70.835  1.00  0.00    -0.311 A  
HETATM   15  C   UNL     1     -11.427   9.851  70.303  1.00  0.00    -0.349 A  
HETATM   16  C   UNL     1     -10.731  10.570  69.187  1.00  0.00    -0.266 C  
HETATM   17  C   UNL     1      -9.245  10.582  68.849  1.00  0.00    -0.188 C  
HETATM   18  C   UNL     1      -9.215  11.570  67.624  1.00  0.00    -0.171 C  
HETATM   19  N   UNL     1      -9.393  12.959  68.145  1.00  0.00    -0.211 NA 
HETATM   20  C   UNL     1     -10.463  11.332  66.679  1.00  0.00    -0.292 C  
HETATM   21  C   UNL     1     -11.280  10.304  67.650  1.00  0.00    -0.158 C  
HETATM   22  C   UNL     1      -9.068  13.831  67.011  1.00  0.00    -0.246 C  
HETATM   23  O   UNL     1      -8.506  14.997  67.559  1.00  0.00    -0.154 OA 
HETATM   24  O   UNL     1     -10.913   8.981  67.221  1.00  0.00    -0.399 OA 
HETATM   25  H   UNL     1     -11.228   8.828  66.339  1.00  0.00     0.000 HD 
HETATM   26  H   UNL     1      -7.724  14.820  68.069  1.00  0.00     0.000 HD 
ENDBRANCH   2   3
TORSDOF 1
ENDMDL
MODEL       20
REMARK 921   NORMALIZED FREE ENERGY PREDICTED BY IDOCK:   -6.35 KCAL/MOL
REMARK 922        TOTAL FREE ENERGY PREDICTED BY IDOCK:   -6.85 KCAL/MOL
REMARK 923 INTER-LIGAND FREE ENERGY PREDICTED BY IDOCK:   -6.71 KCAL/MOL
REMARK 924 INTRA-LIGAND FREE ENERGY PREDICTED BY IDOCK:   -0.14 KCAL/MOL
REMARK 927      BINDING AFFINITY PREDICTED BY RF-SCORE:    0.00 PKD
ROOT
HETATM    1  C   UNL     1      -9.434   7.933  67.544  1.00  0.00    -0.175 C  
HETATM    2  C   UNL     1     -10.649   8.842  67.370  1.00  0.00    -0.305 C  
ENDROOT
BRANCH   2   3
HETATM    3  C   UNL     1     -10.336  10.305  67.648  1.00  0.00    -0.264 C  
HETATM    4  C   UNL     1     -10.303  11.268  66.409  1.00  0.00    -0.291 C  
HETATM    5  C   UNL     1      -8.931  11.936  66.767  1.00  0.00    -0.196 C  
HETATM    6  C   UNL     1      -9.399  12.854  67.943  1.00  0.00    -0.208 C  
HETATM    7  C   UNL     1      -9.303  14.376  67.899  1.00  0.00    -0.203 C  
HETATM    8  N   UNL     1      -8.151  14.857  67.139  1.00  0.00    -0.210 NA 
HETATM    9  C   UNL     1      -6.820  14.600  67.654  1.00  0.00    -0.183 C  
HETATM   10  C   UNL     1      -8.592  16.147  66.798  1.00  0.00    -0.247 A  
HETATM   11  C   UNL     1      -7.783  17.253  66.599  1.00  0.00    -0.298 A  
HETATM   12  C   UNL     1      -8.389  18.486  66.389  1.00  0.00    -0.278 A  
HETATM   13  C   UNL     1      -9.787  18.596  66.355  1.00  0.00    -0.390 A  
HETATM   14  C   UNL     1     -10.614  17.473  66.514  1.00  0.00    -0.191 A  
HETATM   15  C   UNL     1     -10.014  16.248  66.733  1.00  0.00    -0.268 A  
HETATM   16  C   UNL     1     -10.620  14.910  67.034  1.00  0.00    -0.289 C  
HETATM   17  C   UNL     1     -11.821  14.591  67.918  1.00  0.00    -0.370 C  
HETATM   18  C   UNL     1     -11.857  13.020  67.834  1.00  0.00    -0.343 C  
HETATM   19  N   UNL     1     -10.743  12.486  68.676  1.00  0.00    -0.237 NA 
HETATM   20  C   UNL     1     -11.524  12.527  66.366  1.00  0.00    -0.418 C  
HETATM   21  C   UNL     1     -11.065  13.968  65.750  1.00  0.00    -0.305 C  
HETATM   22  C   UNL     1     -11.010  11.048  68.785  1.00  0.00    -0.221 C  
HETATM   23  O   UNL     1     -10.531  10.653  70.046  1.00  0.00    -0.436 OA 
HETATM   24  O   UNL     1     -12.235  14.519  65.122  1.00  0.00    -0.386 OA 
HETATM   25  H   UNL     1     -12.491  13.978  64.384  1.00  0.00     0.000 HD 
HETATM   26  H   UNL     1     -10.953  11.118  70.759  1.00  0.00     0.000 HD 
ENDBRANCH   2   3
TORSDOF 1
ENDMDL
MODEL       21
REMARK 921   NORMALIZED FREE ENERGY PREDICTED BY IDOCK:   -6.35 KCAL/MOL
REMARK 922        TOTAL FREE ENERGY PREDICTED BY IDOCK:   -6.85 KCAL/MOL
REMARK 923 INTER-LIGAND FREE ENERGY PREDICTED BY IDOCK:   -6.67 KCAL/MOL
REMARK 924 INTRA-LIGAND FREE ENERGY PREDICTED BY IDOCK:   -0.18 KCAL/MOL
REMARK 927      BINDING AFFINITY PREDICTED BY RF-SCORE:    0.00 PKD
ROOT
HETATM    1  C   UNL     1      -9.910  19.126  67.622  1.00  0.00    -0.412 C  
HETATM    2  C   UNL     1     -10.204  18.480  66.269  1.00  0.00    -0.446 C  
ENDROOT
BRANCH   2   3
HETATM    3  C   UNL     1     -10.133  16.961  66.312  1.00  0.00    -0.335 C  
HETATM    4  C   UNL     1     -10.085  16.296  67.733  1.00  0.00    -0.252 C  
HETATM    5  C   UNL     1      -8.872  15.352  67.423  1.00  0.00    -0.196 C  
HETATM    6  C   UNL     1      -9.602  14.291  66.536  1.00  0.00    -0.297 C  
HETATM    7  C   UNL     1      -9.713  12.820  66.922  1.00  0.00    -0.234 C  
HETATM    8  N   UNL     1      -8.556  12.333  67.671  1.00  0.00    -0.159 NA 
HETATM    9  C   UNL     1      -7.274  12.253  66.998  1.00  0.00    -0.037 C  
HETATM   10  C   UNL     1      -9.128  11.236  68.338  1.00  0.00    -0.170 A  
HETATM   11  C   UNL     1      -8.462  10.083  68.718  1.00  0.00    -0.126 A  
HETATM   12  C   UNL     1      -9.203   9.039  69.259  1.00  0.00    -0.145 A  
HETATM   13  C   UNL     1     -10.589   9.168  69.438  1.00  0.00    -0.232 A  
HETATM   14  C   UNL     1     -11.265  10.350  69.095  1.00  0.00    -0.301 A  
HETATM   15  C   UNL     1     -10.532  11.384  68.547  1.00  0.00    -0.223 A  
HETATM   16  C   UNL     1     -10.977  12.706  67.997  1.00  0.00    -0.266 C  
HETATM   17  C   UNL     1     -12.220  13.017  67.171  1.00  0.00    -0.200 C  
HETATM   18  C   UNL     1     -12.027  14.554  66.891  1.00  0.00    -0.346 C  
HETATM   19  N   UNL     1     -10.960  14.706  65.856  1.00  0.00    -0.324 NA 
HETATM   20  C   UNL     1     -11.455  15.291  68.171  1.00  0.00    -0.357 C  
HETATM   21  C   UNL     1     -11.129  13.962  69.062  1.00  0.00    -0.268 C  
HETATM   22  C   UNL     1     -11.036  16.110  65.440  1.00  0.00    -0.227 C  
HETATM   23  O   UNL     1     -10.662  16.140  64.085  1.00  0.00    -0.797 OA 
HETATM   24  O   UNL     1     -12.281  13.757  69.899  1.00  0.00    -0.322 OA 
HETATM   25  H   UNL     1     -12.368  14.479  70.511  1.00  0.00     0.000 HD 
HETATM   26  H   UNL     1     -11.227  15.607  63.539  1.00  0.00     0.000 HD 
ENDBRANCH   2   3
TORSDOF 1
ENDMDL
MODEL       22
REMARK 921   NORMALIZED FREE ENERGY PREDICTED BY IDOCK:   -6.27 KCAL/MOL
REMARK 922        TOTAL FREE ENERGY PREDICTED BY IDOCK:   -6.77 KCAL/MOL
REMARK 923 INTER-LIGAND FREE ENERGY PREDICTED BY IDOCK:   -6.60 KCAL/MOL
REMARK 924 INTRA-LIGAND FREE ENERGY PREDICTED BY IDOCK:   -0.17 KCAL/MOL
REMARK 927      BINDING AFFINITY PREDICTED BY RF-SCORE:    0.00 PKD
ROOT
HETATM    1  C   UNL     1     -12.443  13.943  65.640  1.00  0.00    -0.538 C  
HETATM    2  C   UNL     1     -11.108  14.166  66.347  1.00  0.00    -0.320 C  
ENDROOT
BRANCH   2   3
HETATM    3  C   UNL     1     -10.762  13.051  67.322  1.00  0.00    -0.261 C  
HETATM    4  C   UNL     1     -11.368  11.635  67.020  1.00  0.00    -0.373 C  
HETATM    5  C   UNL     1     -11.909  11.385  68.470  1.00  0.00    -0.364 C  
HETATM    6  C   UNL     1     -10.557  11.069  69.190  1.00  0.00    -0.219 C  
HETATM    7  C   UNL     1     -10.261   9.726  69.850  1.00  0.00    -0.254 C  
HETATM    8  N   UNL     1     -11.448   9.093  70.422  1.00  0.00    -0.235 NA 
HETATM    9  C   UNL     1     -12.093   9.722  71.558  1.00  0.00    -0.409 C  
HETATM   10  C   UNL     1     -11.037   7.749  70.436  1.00  0.00    -0.251 A  
HETATM   11  C   UNL     1     -11.448   6.786  71.343  1.00  0.00    -0.336 A  
HETATM   12  C   UNL     1     -10.850   5.532  71.293  1.00  0.00    -0.250 A  
HETATM   13  C   UNL     1      -9.873   5.248  70.327  1.00  0.00    -0.284 A  
HETATM   14  C   UNL     1      -9.482   6.205  69.377  1.00  0.00    -0.153 A  
HETATM   15  C   UNL     1     -10.067   7.454  69.432  1.00  0.00    -0.185 A  
HETATM   16  C   UNL     1      -9.789   8.693  68.634  1.00  0.00    -0.180 C  
HETATM   17  C   UNL     1      -8.444   9.235  68.165  1.00  0.00    -0.121 C  
HETATM   18  C   UNL     1      -8.880  10.570  67.453  1.00  0.00    -0.132 C  
HETATM   19  N   UNL     1      -9.226  11.566  68.512  1.00  0.00    -0.184 NA 
HETATM   20  C   UNL     1     -10.224  10.361  66.642  1.00  0.00    -0.292 C  
HETATM   21  C   UNL     1     -10.585   8.868  67.195  1.00  0.00    -0.231 C  
HETATM   22  C   UNL     1      -9.338  12.845  67.802  1.00  0.00    -0.203 C  
HETATM   23  O   UNL     1      -8.927  13.836  68.710  1.00  0.00    -0.352 OA 
HETATM   24  O   UNL     1     -10.051   7.948  66.226  1.00  0.00    -0.476 OA 
HETATM   25  H   UNL     1     -10.508   8.048  65.400  1.00  0.00     0.000 HD 
HETATM   26  H   UNL     1      -8.035  13.707  69.012  1.00  0.00     0.000 HD 
ENDBRANCH   2   3
TORSDOF 1
ENDMDL
MODEL       23
REMARK 921   NORMALIZED FREE ENERGY PREDICTED BY IDOCK:   -6.25 KCAL/MOL
REMARK 922        TOTAL FREE ENERGY PREDICTED BY IDOCK:   -6.75 KCAL/MOL
REMARK 923 INTER-LIGAND FREE ENERGY PREDICTED BY IDOCK:   -6.61 KCAL/MOL
REMARK 924 INTRA-LIGAND FREE ENERGY PREDICTED BY IDOCK:   -0.14 KCAL/MOL
REMARK 927      BINDING AFFINITY PREDICTED BY RF-SCORE:    0.00 PKD
ROOT
HETATM    1  C   UNL     1      -9.374   3.712  67.977  1.00  0.00    -0.237 C  
HETATM    2  C   UNL     1      -9.717   3.881  69.455  1.00  0.00    -0.191 C  
ENDROOT
BRANCH   2   3
HETATM    3  C   UNL     1      -9.802   5.340  69.879  1.00  0.00    -0.282 C  
HETATM    4  C   UNL     1     -11.133   6.098  69.535  1.00  0.00    -0.490 C  
HETATM    5  C   UNL     1     -10.438   7.354  68.905  1.00  0.00    -0.213 C  
HETATM    6  C   UNL     1      -9.939   8.047  70.215  1.00  0.00    -0.189 C  
HETATM    7  C   UNL     1     -10.409   9.429  70.656  1.00  0.00    -0.284 C  
HETATM    8  N   UNL     1     -10.694  10.323  69.534  1.00  0.00    -0.232 NA 
HETATM    9  C   UNL     1      -9.596  10.758  68.693  1.00  0.00    -0.187 C  
HETATM   10  C   UNL     1     -11.578  11.227  70.149  1.00  0.00    -0.305 A  
HETATM   11  C   UNL     1     -11.736  12.561  69.811  1.00  0.00    -0.355 A  
HETATM   12  C   UNL     1     -12.564  13.349  70.601  1.00  0.00    -0.325 A  
HETATM   13  C   UNL     1     -13.240  12.794  71.699  1.00  0.00    -0.410 A  
HETATM   14  C   UNL     1     -13.118  11.434  72.023  1.00  0.00    -0.423 A  
HETATM   15  C   UNL     1     -12.288  10.651  71.244  1.00  0.00    -0.488 A  
HETATM   16  C   UNL     1     -11.882   9.216  71.398  1.00  0.00    -0.415 C  
HETATM   17  C   UNL     1     -11.565   8.454  72.680  1.00  0.00    -0.367 C  
HETATM   18  C   UNL     1     -11.160   7.044  72.108  1.00  0.00    -0.245 C  
HETATM   19  N   UNL     1      -9.796   7.162  71.509  1.00  0.00    -0.172 NA 
HETATM   20  C   UNL     1     -12.097   6.639  70.897  1.00  0.00    -0.379 C  
HETATM   21  C   UNL     1     -12.865   8.069  70.725  1.00  0.00     0.277 C  
HETATM   22  C   UNL     1      -9.372   5.779  71.265  1.00  0.00    -0.146 C  
HETATM   23  O   UNL     1      -7.975   5.761  71.427  1.00  0.00    -0.109 OA 
HETATM   24  O   UNL     1     -14.080   7.959  71.487  1.00  0.00    -0.443 OA 
HETATM   25  H   UNL     1     -14.645   7.300  71.100  1.00  0.00     0.000 HD 
HETATM   26  H   UNL     1      -7.705   6.036  72.295  1.00  0.00     0.000 HD 
ENDBRANCH   2   3
TORSDOF 1
ENDMDL
MODEL       24
REMARK 921   NORMALIZED FREE ENERGY PREDICTED BY IDOCK:   -6.24 KCAL/MOL
REMARK 922        TOTAL FREE ENERGY PREDICTED BY IDOCK:   -6.74 KCAL/MOL
REMARK 923 INTER-LIGAND FREE ENERGY PREDICTED BY IDOCK:   -6.57 KCAL/MOL
REMARK 924 INTRA-LIGAND FREE ENERGY PREDICTED BY IDOCK:   -0.17 KCAL/MOL
REMARK 927      BINDING AFFINITY PREDICTED BY RF-SCORE:    0.00 PKD
ROOT
HETATM    1  C   UNL     1      -6.027  20.153  68.386  1.00  0.00    -0.296 C  
HETATM    2  C   UNL     1      -7.436  20.550  67.949  1.00  0.00    -0.227 C  
ENDROOT
BRANCH   2   3
HETATM    3  C   UNL     1      -8.342  19.350  67.714  1.00  0.00    -0.340 C  
HETATM    4  C   UNL     1      -7.686  18.091  67.044  1.00  0.00    -0.235 C  
HETATM    5  C   UNL     1      -8.802  17.891  65.961  1.00  0.00    -0.005 C  
HETATM    6  C   UNL     1      -9.925  17.291  66.869  1.00  0.00    -0.294 C  
HETATM    7  C   UNL     1     -10.496  15.891  66.670  1.00  0.00    -0.306 C  
HETATM    8  N   UNL     1     -10.524  15.476  65.268  1.00  0.00    -0.398 NA 
HETATM    9  C   UNL     1     -11.409  16.171  64.354  1.00  0.00    -0.201 C  
HETATM   10  C   UNL     1     -10.538  14.079  65.417  1.00  0.00    -0.341 A  
HETATM   11  C   UNL     1     -11.121  13.177  64.542  1.00  0.00    -0.380 A  
HETATM   12  C   UNL     1     -11.155  11.835  64.901  1.00  0.00    -0.345 A  
HETATM   13  C   UNL     1     -10.586  11.407  66.110  1.00  0.00    -0.316 A  
HETATM   14  C   UNL     1      -9.955  12.308  66.982  1.00  0.00    -0.220 A  
HETATM   15  C   UNL     1      -9.930  13.644  66.633  1.00  0.00    -0.283 A  
HETATM   16  C   UNL     1      -9.430  14.837  67.390  1.00  0.00    -0.207 C  
HETATM   17  C   UNL     1      -9.545  15.127  68.883  1.00  0.00    -0.223 C  
HETATM   18  C   UNL     1      -8.875  16.549  68.973  1.00  0.00    -0.223 C  
HETATM   19  N   UNL     1      -9.837  17.550  68.420  1.00  0.00    -0.307 NA 
HETATM   20  C   UNL     1      -7.612  16.637  68.021  1.00  0.00    -0.171 C  
HETATM   21  C   UNL     1      -7.828  15.220  67.238  1.00  0.00    -0.209 C  
HETATM   22  C   UNL     1      -9.281  18.854  68.796  1.00  0.00    -0.317 C  
HETATM   23  O   UNL     1     -10.380  19.709  68.990  1.00  0.00    -0.600 OA 
HETATM   24  O   UNL     1      -7.026  14.255  67.940  1.00  0.00    -0.128 OA 
HETATM   25  H   UNL     1      -6.106  14.475  67.852  1.00  0.00     0.000 HD 
HETATM   26  H   UNL     1     -10.969  19.398  69.667  1.00  0.00     0.000 HD 
ENDBRANCH   2   3
TORSDOF 1
ENDMDL
MODEL       25
REMARK 921   NORMALIZED FREE ENERGY PREDICTED BY IDOCK:   -6.22 KCAL/MOL
REMARK 922        TOTAL FREE ENERGY PREDICTED BY IDOCK:   -6.72 KCAL/MOL
REMARK 923 INTER-LIGAND FREE ENERGY PREDICTED BY IDOCK:   -6.58 KCAL/MOL
REMARK 924 INTRA-LIGAND FREE ENERGY PREDICTED BY IDOCK:   -0.14 KCAL/MOL
REMARK 927      BINDING AFFINITY PREDICTED BY RF-SCORE:    0.00 PKD
ROOT
HETATM    1  C   UNL     1      -9.945  18.032  68.445  1.00  0.00    -0.382 C  
HETATM    2  C   UNL     1     -11.066  17.067  68.066  1.00  0.00    -0.149 C  
ENDROOT
BRANCH   2   3
HETATM    3  C   UNL     1     -10.549  15.761  67.480  1.00  0.00    -0.309 C  
HETATM    4  C   UNL     1     -10.622  14.494  68.405  1.00  0.00    -0.244 C  
HETATM    5  C   UNL     1      -9.143  14.037  68.160  1.00  0.00    -0.192 C  
HETATM    6  C   UNL     1      -9.297  13.457  66.716  1.00  0.00    -0.256 C  
HETATM    7  C   UNL     1      -9.041  11.992  66.377  1.00  0.00    -0.193 C  
HETATM    8  N   UNL     1      -7.989  11.389  67.194  1.00  0.00    -0.148 NA 
HETATM    9  C   UNL     1      -6.627  11.859  67.036  1.00  0.00    -0.128 C  
HETATM   10  C   UNL     1      -8.336  10.031  67.092  1.00  0.00    -0.121 A  
HETATM   11  C   UNL     1      -7.455   8.964  67.148  1.00  0.00    -0.084 A  
HETATM   12  C   UNL     1      -7.946   7.686  66.904  1.00  0.00    -0.115 A  
HETATM   13  C   UNL     1      -9.308   7.488  66.634  1.00  0.00    -0.222 A  
HETATM   14  C   UNL     1     -10.216   8.558  66.617  1.00  0.00    -0.345 A  
HETATM   15  C   UNL     1      -9.728   9.829  66.849  1.00  0.00    -0.243 A  
HETATM   16  C   UNL     1     -10.418  11.159  66.796  1.00  0.00    -0.297 C  
HETATM   17  C   UNL     1     -11.477  11.638  65.810  1.00  0.00    -0.175 C  
HETATM   18  C   UNL     1     -11.703  13.119  66.295  1.00  0.00    -0.375 C  
HETATM   19  N   UNL     1     -10.528  13.933  65.857  1.00  0.00    -0.297 NA 
HETATM   20  C   UNL     1     -11.684  13.202  67.876  1.00  0.00    -0.398 C  
HETATM   21  C   UNL     1     -11.179  11.677  68.170  1.00  0.00    -0.263 C  
HETATM   22  C   UNL     1     -10.931  15.326  66.079  1.00  0.00    -0.317 C  
HETATM   23  O   UNL     1     -10.289  16.084  65.085  1.00  0.00    -0.523 OA 
HETATM   24  O   UNL     1     -12.371  10.904  68.390  1.00  0.00    -0.803 OA 
HETATM   25  H   UNL     1     -12.809  11.201  69.179  1.00  0.00     0.000 HD 
HETATM   26  H   UNL     1     -10.528  15.811  64.206  1.00  0.00     0.000 HD 
ENDBRANCH   2   3
TORSDOF 1
ENDMDL
MODEL       26
REMARK 921   NORMALIZED FREE ENERGY PREDICTED BY IDOCK:   -6.21 KCAL/MOL
REMARK 922        TOTAL FREE ENERGY PREDICTED BY IDOCK:   -6.70 KCAL/MOL
REMARK 923 INTER-LIGAND FREE ENERGY PREDICTED BY IDOCK:   -6.55 KCAL/MOL
REMARK 924 INTRA-LIGAND FREE ENERGY PREDICTED BY IDOCK:   -0.16 KCAL/MOL
REMARK 927      BINDING AFFINITY PREDICTED BY RF-SCORE:    0.00 PKD
ROOT
HETATM    1  C   UNL     1      -7.514  20.785  67.447  1.00  0.00    -0.374 C  
HETATM    2  C   UNL     1      -8.673  20.248  66.611  1.00  0.00    -0.318 C  
ENDROOT
BRANCH   2   3
HETATM    3  C   UNL     1      -9.161  18.886  67.082  1.00  0.00    -0.313 C  
HETATM    4  C   UNL     1      -8.528  17.629  66.386  1.00  0.00    -0.279 C  
HETATM    5  C   UNL     1      -9.890  16.910  66.093  1.00  0.00    -0.318 C  
HETATM    6  C   UNL     1     -10.223  16.411  67.537  1.00  0.00    -0.273 C  
HETATM    7  C   UNL     1     -10.353  14.935  67.897  1.00  0.00    -0.237 C  
HETATM    8  N   UNL     1     -10.887  14.122  66.806  1.00  0.00    -0.293 NA 
HETATM    9  C   UNL     1     -12.259  14.334  66.387  1.00  0.00    -0.401 C  
HETATM   10  C   UNL     1     -10.395  12.856  67.167  1.00  0.00    -0.238 A  
HETATM   11  C   UNL     1     -10.999  11.642  66.886  1.00  0.00    -0.342 A  
HETATM   12  C   UNL     1     -10.444  10.487  67.424  1.00  0.00    -0.291 A  
HETATM   13  C   UNL     1      -9.284  10.554  68.211  1.00  0.00    -0.152 A  
HETATM   14  C   UNL     1      -8.642  11.776  68.465  1.00  0.00    -0.123 A  
HETATM   15  C   UNL     1      -9.197  12.926  67.940  1.00  0.00    -0.208 A  
HETATM   16  C   UNL     1      -8.807  14.363  68.119  1.00  0.00    -0.180 C  
HETATM   17  C   UNL     1      -8.311  15.059  69.381  1.00  0.00    -0.141 C  
HETATM   18  C   UNL     1      -8.156  16.542  68.874  1.00  0.00    -0.240 C  
HETATM   19  N   UNL     1      -9.522  17.133  68.748  1.00  0.00    -0.273 NA 
HETATM   20  C   UNL     1      -7.566  16.574  67.404  1.00  0.00    -0.175 C  
HETATM   21  C   UNL     1      -7.662  14.974  67.094  1.00  0.00    -0.167 C  
HETATM   22  C   UNL     1      -9.295  18.570  68.559  1.00  0.00    -0.338 C  
HETATM   23  O   UNL     1     -10.388  19.223  69.154  1.00  0.00    -0.550 OA 
HETATM   24  O   UNL     1      -6.371  14.431  67.422  1.00  0.00    -0.323 OA 
HETATM   25  H   UNL     1      -5.714  14.782  66.833  1.00  0.00     0.000 HD 
HETATM   26  H   UNL     1     -10.472  19.025  70.079  1.00  0.00     0.000 HD 
ENDBRANCH   2   3
TORSDOF 1
ENDMDL
MODEL       27
REMARK 921   NORMALIZED FREE ENERGY PREDICTED BY IDOCK:   -6.21 KCAL/MOL
REMARK 922        TOTAL FREE ENERGY PREDICTED BY IDOCK:   -6.70 KCAL/MOL
REMARK 923 INTER-LIGAND FREE ENERGY PREDICTED BY IDOCK:   -6.56 KCAL/MOL
REMARK 924 INTRA-LIGAND FREE ENERGY PREDICTED BY IDOCK:   -0.14 KCAL/MOL
REMARK 927      BINDING AFFINITY PREDICTED BY RF-SCORE:    0.00 PKD
ROOT
HETATM    1  C   UNL     1     -12.101  14.496  64.629  1.00  0.00    -0.486 C  
HETATM    2  C   UNL     1     -10.648  14.333  65.069  1.00  0.00    -0.444 C  
ENDROOT
BRANCH   2   3
HETATM    3  C   UNL     1     -10.498  13.448  66.298  1.00  0.00    -0.289 C  
HETATM    4  C   UNL     1     -11.229  12.058  66.261  1.00  0.00    -0.394 C  
HETATM    5  C   UNL     1     -11.902  12.199  67.669  1.00  0.00    -0.316 C  
HETATM    6  C   UNL     1     -10.651  11.941  68.571  1.00  0.00    -0.222 C  
HETATM    7  C   UNL     1     -10.551  10.767  69.539  1.00  0.00    -0.196 C  
HETATM    8  N   UNL     1     -11.840  10.390  70.119  1.00  0.00    -0.287 NA 
HETATM    9  C   UNL     1     -12.498  11.318  71.017  1.00  0.00    -0.400 C  
HETATM   10  C   UNL     1     -11.578   9.055  70.472  1.00  0.00    -0.175 A  
HETATM   11  C   UNL     1     -12.157   8.368  71.525  1.00  0.00    -0.342 A  
HETATM   12  C   UNL     1     -11.695   7.089  71.815  1.00  0.00    -0.333 A  
HETATM   13  C   UNL     1     -10.684   6.505  71.038  1.00  0.00    -0.289 A  
HETATM   14  C   UNL     1     -10.121   7.178  69.942  1.00  0.00    -0.197 A  
HETATM   15  C   UNL     1     -10.571   8.452  69.659  1.00  0.00    -0.219 A  
HETATM   16  C   UNL     1     -10.102   9.444  68.637  1.00  0.00    -0.208 C  
HETATM   17  C   UNL     1      -8.674   9.743  68.193  1.00  0.00    -0.119 C  
HETATM   18  C   UNL     1      -8.909  10.909  67.163  1.00  0.00    -0.135 C  
HETATM   19  N   UNL     1      -9.226  12.150  67.934  1.00  0.00    -0.182 NA 
HETATM   20  C   UNL     1     -10.202  10.637  66.290  1.00  0.00    -0.304 C  
HETATM   21  C   UNL     1     -10.763   9.349  67.124  1.00  0.00    -0.163 C  
HETATM   22  C   UNL     1      -9.146  13.235  66.950  1.00  0.00    -0.232 C  
HETATM   23  O   UNL     1      -8.701  14.370  67.650  1.00  0.00    -0.170 OA 
HETATM   24  O   UNL     1     -10.259   8.188  66.442  1.00  0.00    -0.454 OA 
HETATM   25  H   UNL     1     -10.638   8.133  65.573  1.00  0.00     0.000 HD 
HETATM   26  H   UNL     1      -7.853  14.236  68.059  1.00  0.00     0.000 HD 
ENDBRANCH   2   3
TORSDOF 1
ENDMDL
MODEL       28
REMARK 921   NORMALIZED FREE ENERGY PREDICTED BY IDOCK:   -6.21 KCAL/MOL
REMARK 922        TOTAL FREE ENERGY PREDICTED BY IDOCK:   -6.70 KCAL/MOL
REMARK 923 INTER-LIGAND FREE ENERGY PREDICTED BY IDOCK:   -6.52 KCAL/MOL
REMARK 924 INTRA-LIGAND FREE ENERGY PREDICTED BY IDOCK:   -0.18 KCAL/MOL
REMARK 927      BINDING AFFINITY PREDICTED BY RF-SCORE:    0.00 PKD
ROOT
HETATM    1  C   UNL     1      -9.074  19.442  68.171  1.00  0.00    -0.385 C  
HETATM    2  C   UNL     1     -10.364  18.822  68.703  1.00  0.00    -0.261 C  
ENDROOT
BRANCH   2   3
HETATM    3  C   UNL     1     -10.628  17.433  68.141  1.00  0.00    -0.376 C  
HETATM    4  C   UNL     1      -9.511  16.818  67.225  1.00  0.00    -0.231 C  
HETATM    5  C   UNL     1     -10.479  16.386  66.069  1.00  0.00    -0.333 C  
HETATM    6  C   UNL     1     -11.136  15.139  66.748  1.00  0.00    -0.307 C  
HETATM    7  C   UNL     1     -11.008  13.726  66.190  1.00  0.00    -0.292 C  
HETATM    8  N   UNL     1     -10.935  13.689  64.731  1.00  0.00    -0.357 NA 
HETATM    9  C   UNL     1     -12.098  14.088  63.964  1.00  0.00    -0.376 C  
HETATM   10  C   UNL     1     -10.293  12.452  64.540  1.00  0.00    -0.325 A  
HETATM   11  C   UNL     1     -10.451  11.618  63.446  1.00  0.00    -0.482 A  
HETATM   12  C   UNL     1      -9.838  10.371  63.471  1.00  0.00    -0.268 A  
HETATM   13  C   UNL     1      -9.057   9.984  64.571  1.00  0.00    -0.285 A  
HETATM   14  C   UNL     1      -8.857  10.840  65.665  1.00  0.00    -0.202 A  
HETATM   15  C   UNL     1      -9.474  12.076  65.647  1.00  0.00    -0.150 A  
HETATM   16  C   UNL     1      -9.531  13.149  66.692  1.00  0.00    -0.260 C  
HETATM   17  C   UNL     1      -9.668  12.992  68.203  1.00  0.00    -0.228 C  
HETATM   18  C   UNL     1      -9.725  14.496  68.665  1.00  0.00    -0.221 C  
HETATM   19  N   UNL     1     -11.075  15.036  68.318  1.00  0.00    -0.274 NA 
HETATM   20  C   UNL     1      -8.711  15.380  67.828  1.00  0.00    -0.167 C  
HETATM   21  C   UNL     1      -8.301  14.253  66.720  1.00  0.00     0.060 C  
HETATM   22  C   UNL     1     -11.159  16.319  69.023  1.00  0.00    -0.331 C  
HETATM   23  O   UNL     1     -12.513  16.496  69.358  1.00  0.00    -0.153 OA 
HETATM   24  O   UNL     1      -7.099  13.635  67.212  1.00  0.00    -0.314 OA 
HETATM   25  H   UNL     1      -6.392  14.269  67.227  1.00  0.00     0.000 HD 
HETATM   26  H   UNL     1     -12.846  15.798  69.910  1.00  0.00     0.000 HD 
ENDBRANCH   2   3
TORSDOF 1
ENDMDL
MODEL       29
REMARK 921   NORMALIZED FREE ENERGY PREDICTED BY IDOCK:   -6.19 KCAL/MOL
REMARK 922        TOTAL FREE ENERGY PREDICTED BY IDOCK:   -6.68 KCAL/MOL
REMARK 923 INTER-LIGAND FREE ENERGY PREDICTED BY IDOCK:   -6.53 KCAL/MOL
REMARK 924 INTRA-LIGAND FREE ENERGY PREDICTED BY IDOCK:   -0.15 KCAL/MOL
REMARK 927      BINDING AFFINITY PREDICTED BY RF-SCORE:    0.00 PKD
ROOT
HETATM    1  C   UNL     1     -11.102  11.513  67.968  1.00  0.00    -0.313 C  
HETATM    2  C   UNL     1     -11.875  12.830  67.963  1.00  0.00    -0.386 C  
ENDROOT
BRANCH   2   3
HETATM    3  C   UNL     1     -11.042  14.002  67.463  1.00  0.00    -0.313 C  
HETATM    4  C   UNL     1     -10.433  14.952  68.554  1.00  0.00    -0.242 C  
HETATM    5  C   UNL     1     -10.905  16.286  67.881  1.00  0.00    -0.330 C  
HETATM    6  C   UNL     1      -9.874  16.352  66.707  1.00  0.00    -0.256 C  
HETATM    7  C   UNL     1      -8.861  17.482  66.553  1.00  0.00    -0.266 C  
HETATM    8  N   UNL     1      -9.360  18.770  67.033  1.00  0.00    -0.290 NA 
HETATM    9  C   UNL     1     -10.455  19.402  66.323  1.00  0.00    -0.493 C  
HETATM   10  C   UNL     1      -8.147  19.431  67.293  1.00  0.00    -0.269 A  
HETATM   11  C   UNL     1      -7.937  20.798  67.213  1.00  0.00    -0.270 A  
HETATM   12  C   UNL     1      -6.644  21.279  67.380  1.00  0.00    -0.402 A  
HETATM   13  C   UNL     1      -5.586  20.397  67.650  1.00  0.00    -0.220 A  
HETATM   14  C   UNL     1      -5.798  19.015  67.775  1.00  0.00    -0.195 A  
HETATM   15  C   UNL     1      -7.080  18.534  67.599  1.00  0.00    -0.215 A  
HETATM   16  C   UNL     1      -7.594  17.126  67.570  1.00  0.00    -0.187 C  
HETATM   17  C   UNL     1      -6.940  15.892  66.959  1.00  0.00    -0.173 C  
HETATM   18  C   UNL     1      -8.036  14.795  67.232  1.00  0.00    -0.207 C  
HETATM   19  N   UNL     1      -9.162  15.017  66.274  1.00  0.00    -0.299 NA 
HETATM   20  C   UNL     1      -8.683  14.991  68.665  1.00  0.00    -0.176 C  
HETATM   21  C   UNL     1      -8.006  16.435  69.015  1.00  0.00    -0.227 C  
HETATM   22  C   UNL     1      -9.992  13.813  66.384  1.00  0.00    -0.297 C  
HETATM   23  O   UNL     1     -10.556  13.606  65.114  1.00  0.00    -0.322 OA 
HETATM   24  O   UNL     1      -6.820  16.142  69.773  1.00  0.00    -0.188 OA 
HETATM   25  H   UNL     1      -7.056  15.745  70.603  1.00  0.00     0.000 HD 
HETATM   26  H   UNL     1      -9.899  13.487  64.438  1.00  0.00     0.000 HD 
ENDBRANCH   2   3
TORSDOF 1
ENDMDL
MODEL       30
REMARK 921   NORMALIZED FREE ENERGY PREDICTED BY IDOCK:   -6.18 KCAL/MOL
REMARK 922        TOTAL FREE ENERGY PREDICTED BY IDOCK:   -6.68 KCAL/MOL
REMARK 923 INTER-LIGAND FREE ENERGY PREDICTED BY IDOCK:   -6.57 KCAL/MOL
REMARK 924 INTRA-LIGAND FREE ENERGY PREDICTED BY IDOCK:   -0.10 KCAL/MOL
REMARK 927      BINDING AFFINITY PREDICTED BY RF-SCORE:    0.00 PKD
ROOT
HETATM    1  C   UNL     1     -10.460  18.487  65.957  1.00  0.00    -0.433 C  
HETATM    2  C   UNL     1     -10.407  17.031  65.500  1.00  0.00    -0.161 C  
ENDROOT
BRANCH   2   3
HETATM    3  C   UNL     1     -10.415  16.046  66.660  1.00  0.00    -0.304 C  
HETATM    4  C   UNL     1     -11.338  14.785  66.509  1.00  0.00    -0.344 C  
HETATM    5  C   UNL     1     -12.015  14.919  67.916  1.00  0.00    -0.206 C  
HETATM    6  C   UNL     1     -10.835  14.416  68.811  1.00  0.00    -0.251 C  
HETATM    7  C   UNL     1     -10.929  13.173  69.689  1.00  0.00     0.180 C  
HETATM    8  N   UNL     1     -12.271  12.947  70.223  1.00  0.00    -0.326 NA 
HETATM    9  C   UNL     1     -12.808  13.894  71.181  1.00  0.00    -0.351 C  
HETATM   10  C   UNL     1     -12.213  11.566  70.478  1.00  0.00    -0.377 A  
HETATM   11  C   UNL     1     -12.910  10.896  71.469  1.00  0.00    -0.560 A  
HETATM   12  C   UNL     1     -12.645   9.546  71.667  1.00  0.00    -0.476 A  
HETATM   13  C   UNL     1     -11.711   8.878  70.859  1.00  0.00    -0.312 A  
HETATM   14  C   UNL     1     -11.032   9.540  69.824  1.00  0.00    -0.245 A  
HETATM   15  C   UNL     1     -11.287  10.884  69.633  1.00  0.00    -0.362 A  
HETATM   16  C   UNL     1     -10.656  11.868  68.695  1.00  0.00    -0.259 C  
HETATM   17  C   UNL     1      -9.190  11.986  68.291  1.00  0.00    -0.192 C  
HETATM   18  C   UNL     1      -9.231  13.247  67.349  1.00  0.00    -0.216 C  
HETATM   19  N   UNL     1      -9.382  14.461  68.208  1.00  0.00    -0.200 NA 
HETATM   20  C   UNL     1     -10.529  13.230  66.443  1.00  0.00    -0.286 C  
HETATM   21  C   UNL     1     -11.289  11.982  67.171  1.00  0.00    -0.333 C  
HETATM   22  C   UNL     1      -9.123  15.592  67.309  1.00  0.00    -0.203 C  
HETATM   23  O   UNL     1      -8.534  16.595  68.099  1.00  0.00    -0.188 OA 
HETATM   24  O   UNL     1     -10.943  10.812  66.409  1.00  0.00    -0.166 OA 
HETATM   25  H   UNL     1     -11.307  10.877  65.534  1.00  0.00     0.000 HD 
HETATM   26  H   UNL     1      -7.724  16.309  68.506  1.00  0.00     0.000 HD 
ENDBRANCH   2   3
TORSDOF 1
ENDMDL
MODEL       31
REMARK 921   NORMALIZED FREE ENERGY PREDICTED BY IDOCK:   -6.09 KCAL/MOL
REMARK 922        TOTAL FREE ENERGY PREDICTED BY IDOCK:   -6.57 KCAL/MOL
REMARK 923 INTER-LIGAND FREE ENERGY PREDICTED BY IDOCK:   -6.40 KCAL/MOL
REMARK 924 INTRA-LIGAND FREE ENERGY PREDICTED BY IDOCK:   -0.17 KCAL/MOL
REMARK 927      BINDING AFFINITY PREDICTED BY RF-SCORE:    0.00 PKD
ROOT
HETATM    1  C   UNL     1      -9.186   6.067  70.118  1.00  0.00    -0.165 C  
HETATM    2  C   UNL     1      -7.943   6.512  69.351  1.00  0.00    -0.114 C  
ENDROOT
BRANCH   2   3
HETATM    3  C   UNL     1      -8.193   7.735  68.479  1.00  0.00    -0.128 C  
HETATM    4  C   UNL     1      -9.688   8.053  68.122  1.00  0.00    -0.179 C  
HETATM    5  C   UNL     1      -9.444   8.240  66.585  1.00  0.00    -0.271 C  
HETATM    6  C   UNL     1      -8.756   9.644  66.609  1.00  0.00    -0.134 C  
HETATM    7  C   UNL     1      -9.349  10.872  65.927  1.00  0.00    -0.200 C  
HETATM    8  N   UNL     1     -10.092  10.550  64.709  1.00  0.00    -0.338 NA 
HETATM    9  C   UNL     1      -9.365  10.034  63.566  1.00  0.00    -0.256 C  
HETATM   10  C   UNL     1     -10.936  11.671  64.624  1.00  0.00    -0.301 A  
HETATM   11  C   UNL     1     -11.435  12.221  63.455  1.00  0.00    -0.558 A  
HETATM   12  C   UNL     1     -12.157  13.406  63.537  1.00  0.00    -0.497 A  
HETATM   13  C   UNL     1     -12.395  14.010  64.782  1.00  0.00    -0.437 A  
HETATM   14  C   UNL     1     -11.929  13.436  65.975  1.00  0.00    -0.460 A  
HETATM   15  C   UNL     1     -11.202  12.264  65.894  1.00  0.00    -0.381 A  
HETATM   16  C   UNL     1     -10.500  11.481  66.963  1.00  0.00    -0.263 C  
HETATM   17  C   UNL     1      -9.710  12.006  68.156  1.00  0.00    -0.199 C  
HETATM   18  C   UNL     1      -9.208  10.663  68.808  1.00  0.00    -0.180 C  
HETATM   19  N   UNL     1      -8.103  10.122  67.960  1.00  0.00    -0.111 NA 
HETATM   20  C   UNL     1     -10.338   9.555  68.753  1.00  0.00    -0.228 C  
HETATM   21  C   UNL     1     -11.386  10.358  67.792  1.00  0.00    -0.128 C  
HETATM   22  C   UNL     1      -7.500   9.053  68.764  1.00  0.00    -0.076 C  
HETATM   23  O   UNL     1      -6.136   9.030  68.427  1.00  0.00    -0.045 OA 
HETATM   24  O   UNL     1     -12.307  11.017  68.677  1.00  0.00    -0.753 OA 
HETATM   25  H   UNL     1     -12.816  10.372  69.153  1.00  0.00     0.000 HD 
HETATM   26  H   UNL     1      -5.702   9.856  68.605  1.00  0.00     0.000 HD 
ENDBRANCH   2   3
TORSDOF 1
ENDMDL
MODEL       32
REMARK 921   NORMALIZED FREE ENERGY PREDICTED BY IDOCK:   -6.07 KCAL/MOL
REMARK 922        TOTAL FREE ENERGY PREDICTED BY IDOCK:   -6.55 KCAL/MOL
REMARK 923 INTER-LIGAND FREE ENERGY PREDICTED BY IDOCK:   -6.41 KCAL/MOL
REMARK 924 INTRA-LIGAND FREE ENERGY PREDICTED BY IDOCK:   -0.14 KCAL/MOL
REMARK 927      BINDING AFFINITY PREDICTED BY RF-SCORE:    0.00 PKD
ROOT
HETATM    1  C   UNL     1      -9.446  10.797  62.638  1.00  0.00    -0.331 C  
HETATM    2  C   UNL     1      -8.793  10.211  63.887  1.00  0.00    -0.248 C  
ENDROOT
BRANCH   2   3
HETATM    3  C   UNL     1      -9.019  11.063  65.127  1.00  0.00    -0.159 C  
HETATM    4  C   UNL     1     -10.502  11.215  65.619  1.00  0.00    -0.308 C  
HETATM    5  C   UNL     1     -10.458  12.774  65.770  1.00  0.00    -0.294 C  
HETATM    6  C   UNL     1      -9.614  12.874  67.083  1.00  0.00    -0.225 C  
HETATM    7  C   UNL     1     -10.151  13.491  68.371  1.00  0.00    -0.240 C  
HETATM    8  N   UNL     1     -11.090  14.587  68.135  1.00  0.00    -0.257 NA 
HETATM    9  C   UNL     1     -10.597  15.810  67.532  1.00  0.00    -0.309 C  
HETATM   10  C   UNL     1     -11.802  14.576  69.346  1.00  0.00    -0.325 A  
HETATM   11  C   UNL     1     -12.393  15.674  69.948  1.00  0.00    -0.260 A  
HETATM   12  C   UNL     1     -12.953  15.516  71.210  1.00  0.00    -0.565 A  
HETATM   13  C   UNL     1     -12.941  14.263  71.842  1.00  0.00    -0.429 A  
HETATM   14  C   UNL     1     -12.382  13.135  71.221  1.00  0.00    -0.221 A  
HETATM   15  C   UNL     1     -11.815  13.293  69.972  1.00  0.00    -0.365 A  
HETATM   16  C   UNL     1     -11.065  12.318  69.115  1.00  0.00    -0.261 C  
HETATM   17  C   UNL     1     -10.058  11.257  69.547  1.00  0.00     0.195 C  
HETATM   18  C   UNL     1      -9.630  10.655  68.157  1.00  0.00    -0.157 C  
HETATM   19  N   UNL     1      -8.726  11.638  67.486  1.00  0.00    -0.151 NA 
HETATM   20  C   UNL     1     -10.877  10.529  67.189  1.00  0.00    -0.319 C  
HETATM   21  C   UNL     1     -11.950  11.350  68.107  1.00  0.00    -0.130 C  
HETATM   22  C   UNL     1      -8.144  10.905  66.356  1.00  0.00    -0.164 C  
HETATM   23  O   UNL     1      -6.853  11.428  66.170  1.00  0.00    -0.358 OA 
HETATM   24  O   UNL     1     -12.654  10.358  68.874  1.00  0.00    -0.529 OA 
HETATM   25  H   UNL     1     -13.162   9.803  68.295  1.00  0.00     0.000 HD 
HETATM   26  H   UNL     1      -6.305  11.330  66.940  1.00  0.00     0.000 HD 
ENDBRANCH   2   3
TORSDOF 1
ENDMDL
MODEL       33
REMARK 921   NORMALIZED FREE ENERGY PREDICTED BY IDOCK:   -6.05 KCAL/MOL
REMARK 922        TOTAL FREE ENERGY PREDICTED BY IDOCK:   -6.53 KCAL/MOL
REMARK 923 INTER-LIGAND FREE ENERGY PREDICTED BY IDOCK:   -6.43 KCAL/MOL
REMARK 924 INTRA-LIGAND FREE ENERGY PREDICTED BY IDOCK:   -0.10 KCAL/MOL
REMARK 927      BINDING AFFINITY PREDICTED BY RF-SCORE:    0.00 PKD
ROOT
HETATM    1  C   UNL     1     -12.015  15.829  73.007  1.00  0.00    -0.596 C  
HETATM    2  C   UNL     1     -11.717  16.548  71.693  1.00  0.00    -0.205 C  
ENDROOT
BRANCH   2   3
HETATM    3  C   UNL     1     -11.902  15.654  70.476  1.00  0.00    -0.402 C  
HETATM    4  C   UNL     1     -10.606  15.276  69.674  1.00  0.00    -0.285 C  
HETATM    5  C   UNL     1     -11.186  15.634  68.263  1.00  0.00    -0.353 C  
HETATM    6  C   UNL     1     -12.127  14.402  68.059  1.00  0.00    -0.231 C  
HETATM    7  C   UNL     1     -11.946  13.396  66.927  1.00  0.00    -0.385 C  
HETATM    8  N   UNL     1     -11.413  13.996  65.705  1.00  0.00    -0.312 NA 
HETATM    9  C   UNL     1     -12.233  14.947  64.981  1.00  0.00    -0.169 C  
HETATM   10  C   UNL     1     -10.849  12.864  65.091  1.00  0.00    -0.296 A  
HETATM   11  C   UNL     1     -10.718  12.664  63.727  1.00  0.00    -0.454 A  
HETATM   12  C   UNL     1     -10.252  11.433  63.281  1.00  0.00    -0.430 A  
HETATM   13  C   UNL     1      -9.899  10.431  64.198  1.00  0.00    -0.379 A  
HETATM   14  C   UNL     1      -9.988  10.641  65.583  1.00  0.00    -0.327 A  
HETATM   15  C   UNL     1     -10.461  11.860  66.028  1.00  0.00    -0.282 A  
HETATM   16  C   UNL     1     -10.761  12.337  67.417  1.00  0.00    -0.261 C  
HETATM   17  C   UNL     1     -11.386  11.561  68.571  1.00  0.00    -0.337 C  
HETATM   18  C   UNL     1     -11.462  12.672  69.684  1.00  0.00    -0.182 C  
HETATM   19  N   UNL     1     -12.580  13.600  69.336  1.00  0.00     0.029 NA 
HETATM   20  C   UNL     1     -10.164  13.578  69.663  1.00  0.00     0.758 C  
HETATM   21  C   UNL     1      -9.516  13.002  68.279  1.00  0.00    -0.208 C  
HETATM   22  C   UNL     1     -12.778  14.418  70.537  1.00  0.00    -0.340 C  
HETATM   23  O   UNL     1     -14.148  14.729  70.580  1.00  0.00    -0.484 OA 
HETATM   24  O   UNL     1      -8.591  11.975  68.675  1.00  0.00    -0.295 OA 
HETATM   25  H   UNL     1      -7.876  12.357  69.170  1.00  0.00     0.000 HD 
HETATM   26  H   UNL     1     -14.697  13.955  70.618  1.00  0.00     0.000 HD 
ENDBRANCH   2   3
TORSDOF 1
ENDMDL
MODEL       34
REMARK 921   NORMALIZED FREE ENERGY PREDICTED BY IDOCK:   -6.04 KCAL/MOL
REMARK 922        TOTAL FREE ENERGY PREDICTED BY IDOCK:   -6.52 KCAL/MOL
REMARK 923 INTER-LIGAND FREE ENERGY PREDICTED BY IDOCK:   -6.37 KCAL/MOL
REMARK 924 INTRA-LIGAND FREE ENERGY PREDICTED BY IDOCK:   -0.15 KCAL/MOL
REMARK 927      BINDING AFFINITY PREDICTED BY RF-SCORE:    0.00 PKD
ROOT
HETATM    1  C   UNL     1      -8.055   8.036  63.921  1.00  0.00    -0.097 C  
HETATM    2  C   UNL     1      -8.548   9.388  63.410  1.00  0.00    -0.218 C  
ENDROOT
BRANCH   2   3
HETATM    3  C   UNL     1      -8.707  10.417  64.519  1.00  0.00    -0.205 C  
HETATM    4  C   UNL     1     -10.168  10.689  65.026  1.00  0.00    -0.380 C  
HETATM    5  C   UNL     1     -10.072  12.252  64.948  1.00  0.00    -0.274 C  
HETATM    6  C   UNL     1      -9.183  12.511  66.208  1.00  0.00    -0.132 C  
HETATM    7  C   UNL     1      -9.657  13.325  67.407  1.00  0.00    -0.223 C  
HETATM    8  N   UNL     1     -10.571  14.407  67.041  1.00  0.00    -0.272 NA 
HETATM    9  C   UNL     1     -10.062  15.512  66.254  1.00  0.00    -0.295 C  
HETATM   10  C   UNL     1     -11.242  14.595  68.262  1.00  0.00    -0.285 A  
HETATM   11  C   UNL     1     -11.779  15.789  68.714  1.00  0.00    -0.387 A  
HETATM   12  C   UNL     1     -12.302  15.833  70.002  1.00  0.00    -0.248 A  
HETATM   13  C   UNL     1     -12.305  14.685  70.808  1.00  0.00    -0.398 A  
HETATM   14  C   UNL     1     -11.801  13.460  70.342  1.00  0.00    -0.283 A  
HETATM   15  C   UNL     1     -11.272  13.417  69.067  1.00  0.00    -0.323 A  
HETATM   16  C   UNL     1     -10.580  12.303  68.339  1.00  0.00    -0.250 C  
HETATM   17  C   UNL     1      -9.592  11.282  68.891  1.00  0.00    -0.119 C  
HETATM   18  C   UNL     1      -9.228  10.471  67.592  1.00  0.00    -0.145 C  
HETATM   19  N   UNL     1      -8.319  11.316  66.759  1.00  0.00    -0.151 NA 
HETATM   20  C   UNL     1     -10.511  10.250  66.690  1.00  0.00    -0.260 C  
HETATM   21  C   UNL     1     -11.527  11.232  67.508  1.00  0.00    -0.246 C  
HETATM   22  C   UNL     1      -7.797  10.408  65.732  1.00  0.00    -0.150 C  
HETATM   23  O   UNL     1      -6.498  10.854  65.435  1.00  0.00    -0.349 OA 
HETATM   24  O   UNL     1     -12.234  10.386  68.431  1.00  0.00    -0.686 OA 
HETATM   25  H   UNL     1     -12.778   9.770  67.954  1.00  0.00     0.000 HD 
HETATM   26  H   UNL     1      -5.928  10.849  66.195  1.00  0.00     0.000 HD 
ENDBRANCH   2   3
TORSDOF 1
ENDMDL
MODEL       35
REMARK 921   NORMALIZED FREE ENERGY PREDICTED BY IDOCK:   -6.03 KCAL/MOL
REMARK 922        TOTAL FREE ENERGY PREDICTED BY IDOCK:   -6.51 KCAL/MOL
REMARK 923 INTER-LIGAND FREE ENERGY PREDICTED BY IDOCK:   -6.38 KCAL/MOL
REMARK 924 INTRA-LIGAND FREE ENERGY PREDICTED BY IDOCK:   -0.13 KCAL/MOL
REMARK 927      BINDING AFFINITY PREDICTED BY RF-SCORE:    0.00 PKD
ROOT
HETATM    1  C   UNL     1      -9.269   4.847  69.368  1.00  0.00    -0.160 C  
HETATM    2  C   UNL     1      -8.594   5.844  68.428  1.00  0.00    -0.113 C  
ENDROOT
BRANCH   2   3
HETATM    3  C   UNL     1      -9.394   7.127  68.254  1.00  0.00    -0.130 C  
HETATM    4  C   UNL     1      -8.616   8.476  68.449  1.00  0.00    -0.139 C  
HETATM    5  C   UNL     1      -9.668   9.125  69.413  1.00  0.00    -0.170 C  
HETATM    6  C   UNL     1     -10.778   9.479  68.370  1.00  0.00    -0.186 C  
HETATM    7  C   UNL     1     -11.230  10.908  68.090  1.00  0.00    -0.301 C  
HETATM    8  N   UNL     1     -11.167  11.772  69.268  1.00  0.00    -0.258 NA 
HETATM    9  C   UNL     1     -12.065  11.505  70.375  1.00  0.00    -0.382 C  
HETATM   10  C   UNL     1     -11.080  13.033  68.653  1.00  0.00    -0.269 A  
HETATM   11  C   UNL     1     -11.555  14.223  69.178  1.00  0.00    -0.346 A  
HETATM   12  C   UNL     1     -11.500  15.364  68.385  1.00  0.00    -0.365 A  
HETATM   13  C   UNL     1     -10.950  15.308  67.095  1.00  0.00    -0.331 A  
HETATM   14  C   UNL     1     -10.428  14.115  66.573  1.00  0.00    -0.280 A  
HETATM   15  C   UNL     1     -10.491  12.978  67.355  1.00  0.00    -0.235 A  
HETATM   16  C   UNL     1     -10.117  11.561  67.040  1.00  0.00    -0.237 C  
HETATM   17  C   UNL     1     -10.315  10.796  65.737  1.00  0.00    -0.295 C  
HETATM   18  C   UNL     1      -9.762   9.374  66.126  1.00  0.00    -0.265 C  
HETATM   19  N   UNL     1     -10.775   8.706  66.998  1.00  0.00    -0.216 NA 
HETATM   20  C   UNL     1      -8.471   9.504  67.035  1.00  0.00    -0.128 C  
HETATM   21  C   UNL     1      -8.544  11.114  67.293  1.00  0.00    -0.140 C  
HETATM   22  C   UNL     1     -10.337   7.308  67.080  1.00  0.00    -0.297 C  
HETATM   23  O   UNL     1     -11.506   6.537  67.202  1.00  0.00    -0.768 OA 
HETATM   24  O   UNL     1      -7.700  11.713  66.295  1.00  0.00    -0.371 OA 
HETATM   25  H   UNL     1      -6.797  11.456  66.440  1.00  0.00     0.000 HD 
HETATM   26  H   UNL     1     -12.097   6.651  66.467  1.00  0.00     0.000 HD 
ENDBRANCH   2   3
TORSDOF 1
ENDMDL
MODEL       36
REMARK 921   NORMALIZED FREE ENERGY PREDICTED BY IDOCK:   -6.01 KCAL/MOL
REMARK 922        TOTAL FREE ENERGY PREDICTED BY IDOCK:   -6.49 KCAL/MOL
REMARK 923 INTER-LIGAND FREE ENERGY PREDICTED BY IDOCK:   -6.35 KCAL/MOL
REMARK 924 INTRA-LIGAND FREE ENERGY PREDICTED BY IDOCK:   -0.14 KCAL/MOL
REMARK 927      BINDING AFFINITY PREDICTED BY RF-SCORE:    0.00 PKD
ROOT
HETATM    1  C   UNL     1      -5.761   8.896  63.454  1.00  0.00    -0.076 C  
HETATM    2  C   UNL     1      -6.461  10.190  63.864  1.00  0.00    -0.120 C  
ENDROOT
BRANCH   2   3
HETATM    3  C   UNL     1      -7.662   9.952  64.768  1.00  0.00    -0.138 C  
HETATM    4  C   UNL     1      -7.558  10.495  66.237  1.00  0.00    -0.133 C  
HETATM    5  C   UNL     1      -8.030   9.169  66.927  1.00  0.00    -0.105 C  
HETATM    6  C   UNL     1      -9.558   9.250  66.604  1.00  0.00    -0.204 C  
HETATM    7  C   UNL     1     -10.632   9.339  67.683  1.00  0.00    -0.261 C  
HETATM    8  N   UNL     1     -10.279   8.620  68.906  1.00  0.00    -0.204 NA 
HETATM    9  C   UNL     1     -10.180   7.174  68.860  1.00  0.00    -0.186 C  
HETATM   10  C   UNL     1     -11.089   9.292  69.838  1.00  0.00    -0.181 A  
HETATM   11  C   UNL     1     -11.625   8.742  70.990  1.00  0.00    -0.337 A  
HETATM   12  C   UNL     1     -12.508   9.509  71.741  1.00  0.00    -0.484 A  
HETATM   13  C   UNL     1     -12.824  10.818  71.348  1.00  0.00    -0.557 A  
HETATM   14  C   UNL     1     -12.253  11.398  70.205  1.00  0.00    -0.433 A  
HETATM   15  C   UNL     1     -11.383  10.634  69.452  1.00  0.00    -0.348 A  
HETATM   16  C   UNL     1     -10.705  10.934  68.149  1.00  0.00    -0.256 C  
HETATM   17  C   UNL     1     -11.267  11.668  66.937  1.00  0.00    -0.376 C  
HETATM   18  C   UNL     1     -10.062  11.567  65.929  1.00  0.00    -0.231 C  
HETATM   19  N   UNL     1     -10.011  10.167  65.408  1.00  0.00    -0.307 NA 
HETATM   20  C   UNL     1      -8.682  11.766  66.680  1.00  0.00    -0.186 C  
HETATM   21  C   UNL     1      -9.258  11.731  68.208  1.00  0.00    -0.188 C  
HETATM   22  C   UNL     1      -9.073  10.218  64.281  1.00  0.00    -0.243 C  
HETATM   23  O   UNL     1      -9.515   9.257  63.356  1.00  0.00    -0.422 OA 
HETATM   24  O   UNL     1      -9.470  13.104  68.581  1.00  0.00    -0.373 OA 
HETATM   25  H   UNL     1      -8.639  13.562  68.615  1.00  0.00     0.000 HD 
HETATM   26  H   UNL     1     -10.399   9.423  63.052  1.00  0.00     0.000 HD 
ENDBRANCH   2   3
TORSDOF 1
ENDMDL
MODEL       37
REMARK 921   NORMALIZED FREE ENERGY PREDICTED BY IDOCK:   -5.99 KCAL/MOL
REMARK 922        TOTAL FREE ENERGY PREDICTED BY IDOCK:   -6.47 KCAL/MOL
REMARK 923 INTER-LIGAND FREE ENERGY PREDICTED BY IDOCK:   -6.34 KCAL/MOL
REMARK 924 INTRA-LIGAND FREE ENERGY PREDICTED BY IDOCK:   -0.13 KCAL/MOL
REMARK 927      BINDING AFFINITY PREDICTED BY RF-SCORE:    0.00 PKD
ROOT
HETATM    1  C   UNL     1     -12.337  14.864  72.162  1.00  0.00    -0.430 C  
HETATM    2  C   UNL     1     -12.589  15.055  70.668  1.00  0.00    -0.429 C  
ENDROOT
BRANCH   2   3
HETATM    3  C   UNL     1     -11.634  14.249  69.800  1.00  0.00    -0.350 C  
HETATM    4  C   UNL     1     -12.283  13.275  68.753  1.00  0.00    -0.124 C  
HETATM    5  C   UNL     1     -11.409  12.031  69.135  1.00  0.00    -0.338 C  
HETATM    6  C   UNL     1     -10.062  12.459  68.465  1.00  0.00    -0.185 C  
HETATM    7  C   UNL     1      -9.404  11.665  67.341  1.00  0.00    -0.168 C  
HETATM    8  N   UNL     1      -9.633  10.225  67.444  1.00  0.00    -0.156 NA 
HETATM    9  C   UNL     1      -9.040   9.503  68.554  1.00  0.00    -0.131 C  
HETATM   10  C   UNL     1      -9.442   9.841  66.106  1.00  0.00    -0.205 A  
HETATM   11  C   UNL     1      -8.968   8.613  65.676  1.00  0.00    -0.231 A  
HETATM   12  C   UNL     1      -8.719   8.437  64.320  1.00  0.00     0.150 A  
HETATM   13  C   UNL     1      -8.969   9.477  63.410  1.00  0.00    -0.205 A  
HETATM   14  C   UNL     1      -9.490  10.710  63.832  1.00  0.00    -0.325 A  
HETATM   15  C   UNL     1      -9.728  10.889  65.181  1.00  0.00    -0.312 A  
HETATM   16  C   UNL     1     -10.176  12.105  65.935  1.00  0.00    -0.272 C  
HETATM   17  C   UNL     1      -9.777  13.559  65.711  1.00  0.00    -0.156 C  
HETATM   18  C   UNL     1     -10.556  14.276  66.875  1.00  0.00    -0.273 C  
HETATM   19  N   UNL     1      -9.843  13.987  68.156  1.00  0.00    -0.228 NA 
HETATM   20  C   UNL     1     -11.995  13.642  67.063  1.00  0.00    -0.448 C  
HETATM   21  C   UNL     1     -11.805  12.366  66.062  1.00  0.00    -0.395 C  
HETATM   22  C   UNL     1     -10.439  14.903  69.134  1.00  0.00    -0.244 C  
HETATM   23  O   UNL     1      -9.420  15.221  70.048  1.00  0.00    -0.451 OA 
HETATM   24  O   UNL     1     -12.334  12.780  64.790  1.00  0.00    -0.433 OA 
HETATM   25  H   UNL     1     -13.269  12.929  64.863  1.00  0.00     0.000 HD 
HETATM   26  H   UNL     1      -8.671  15.631  69.631  1.00  0.00     0.000 HD 
ENDBRANCH   2   3
TORSDOF 1
ENDMDL
MODEL       38
REMARK 921   NORMALIZED FREE ENERGY PREDICTED BY IDOCK:   -5.99 KCAL/MOL
REMARK 922        TOTAL FREE ENERGY PREDICTED BY IDOCK:   -6.47 KCAL/MOL
REMARK 923 INTER-LIGAND FREE ENERGY PREDICTED BY IDOCK:   -6.33 KCAL/MOL
REMARK 924 INTRA-LIGAND FREE ENERGY PREDICTED BY IDOCK:   -0.14 KCAL/MOL
REMARK 927      BINDING AFFINITY PREDICTED BY RF-SCORE:    0.00 PKD
ROOT
HETATM    1  C   UNL     1      -7.130   7.097  68.697  1.00  0.00    -0.085 C  
HETATM    2  C   UNL     1      -7.675   7.979  67.576  1.00  0.00    -0.106 C  
ENDROOT
BRANCH   2   3
HETATM    3  C   UNL     1      -8.909   8.767  67.991  1.00  0.00    -0.141 C  
HETATM    4  C   UNL     1      -8.670  10.030  68.893  1.00  0.00    -0.146 C  
HETATM    5  C   UNL     1      -9.762   9.670  69.958  1.00  0.00    -0.280 C  
HETATM    6  C   UNL     1     -11.042  10.033  69.136  1.00  0.00    -0.190 C  
HETATM    7  C   UNL     1     -12.023  11.120  69.561  1.00  0.00    -0.355 C  
HETATM    8  N   UNL     1     -12.143  11.250  71.012  1.00  0.00    -0.290 NA 
HETATM    9  C   UNL     1     -12.736  10.160  71.762  1.00  0.00    -0.434 C  
HETATM   10  C   UNL     1     -12.606  12.573  71.111  1.00  0.00    -0.253 A  
HETATM   11  C   UNL     1     -13.422  13.073  72.112  1.00  0.00    -0.638 A  
HETATM   12  C   UNL     1     -13.891  14.377  71.995  1.00  0.00    -0.567 A  
HETATM   13  C   UNL     1     -13.520  15.170  70.898  1.00  0.00    -0.432 A  
HETATM   14  C   UNL     1     -12.660  14.685  69.901  1.00  0.00    -0.223 A  
HETATM   15  C   UNL     1     -12.201  13.387  70.010  1.00  0.00    -0.367 A  
HETATM   16  C   UNL     1     -11.368  12.568  69.070  1.00  0.00    -0.342 C  
HETATM   17  C   UNL     1     -11.425  12.525  67.547  1.00  0.00    -0.397 C  
HETATM   18  C   UNL     1     -10.340  11.429  67.229  1.00  0.00    -0.198 C  
HETATM   19  N   UNL     1     -10.919  10.094  67.567  1.00  0.00    -0.294 NA 
HETATM   20  C   UNL     1      -9.090  11.581  68.189  1.00  0.00    -0.181 C  
HETATM   21  C   UNL     1      -9.725  12.694  69.202  1.00  0.00     0.520 C  
HETATM   22  C   UNL     1      -9.987   9.122  66.985  1.00  0.00    -0.230 C  
HETATM   23  O   UNL     1     -10.761   8.010  66.610  1.00  0.00    -0.377 OA 
HETATM   24  O   UNL     1      -9.290  13.972  68.706  1.00  0.00    -0.331 OA 
HETATM   25  H   UNL     1      -8.346  14.044  68.782  1.00  0.00     0.000 HD 
HETATM   26  H   UNL     1     -11.437   8.232  65.980  1.00  0.00     0.000 HD 
ENDBRANCH   2   3
TORSDOF 1
ENDMDL
MODEL       39
REMARK 921   NORMALIZED FREE ENERGY PREDICTED BY IDOCK:   -5.97 KCAL/MOL
REMARK 922        TOTAL FREE ENERGY PREDICTED BY IDOCK:   -6.45 KCAL/MOL
REMARK 923 INTER-LIGAND FREE ENERGY PREDICTED BY IDOCK:   -6.29 KCAL/MOL
REMARK 924 INTRA-LIGAND FREE ENERGY PREDICTED BY IDOCK:   -0.16 KCAL/MOL
REMARK 927      BINDING AFFINITY PREDICTED BY RF-SCORE:    0.00 PKD
ROOT
HETATM    1  C   UNL     1     -10.006   1.984  71.874  1.00  0.00    -0.222 C  
HETATM    2  C   UNL     1      -8.839   2.726  71.226  1.00  0.00    -0.131 C  
ENDROOT
BRANCH   2   3
HETATM    3  C   UNL     1      -8.981   4.239  71.311  1.00  0.00    -0.168 C  
HETATM    4  C   UNL     1     -10.269   4.865  70.668  1.00  0.00    -0.282 C  
HETATM    5  C   UNL     1      -9.516   5.976  69.859  1.00  0.00    -0.175 C  
HETATM    6  C   UNL     1      -9.171   6.949  71.033  1.00  0.00    -0.156 C  
HETATM    7  C   UNL     1      -9.696   8.379  71.108  1.00  0.00    -0.186 C  
HETATM    8  N   UNL     1      -9.859   9.001  69.795  1.00  0.00    -0.174 NA 
HETATM    9  C   UNL     1      -8.676   9.278  69.003  1.00  0.00    -0.135 C  
HETATM   10  C   UNL     1     -10.812   9.989  70.099  1.00  0.00    -0.311 A  
HETATM   11  C   UNL     1     -10.940  11.213  69.463  1.00  0.00    -0.276 A  
HETATM   12  C   UNL     1     -11.856  12.128  69.969  1.00  0.00    -0.383 A  
HETATM   13  C   UNL     1     -12.648  11.802  71.081  1.00  0.00    -0.412 A  
HETATM   14  C   UNL     1     -12.554  10.548  71.704  1.00  0.00    -0.498 A  
HETATM   15  C   UNL     1     -11.637   9.642  71.210  1.00  0.00    -0.466 A  
HETATM   16  C   UNL     1     -11.242   8.287  71.715  1.00  0.00    -0.346 C  
HETATM   17  C   UNL     1     -11.066   7.829  73.158  1.00  0.00    -0.336 C  
HETATM   18  C   UNL     1     -10.591   6.342  72.955  1.00  0.00    -0.233 C  
HETATM   19  N   UNL     1      -9.169   6.369  72.496  1.00  0.00    -0.140 NA 
HETATM   20  C   UNL     1     -11.384   5.656  71.767  1.00  0.00    -0.181 C  
HETATM   21  C   UNL     1     -12.136   6.992  71.206  1.00  0.00    -0.361 C  
HETATM   22  C   UNL     1      -8.711   4.980  72.606  1.00  0.00    -0.119 C  
HETATM   23  O   UNL     1      -7.342   5.040  72.918  1.00  0.00    -0.086 OA 
HETATM   24  O   UNL     1     -13.428   7.011  71.837  1.00  0.00    -0.510 OA 
HETATM   25  H   UNL     1     -13.942   6.268  71.544  1.00  0.00     0.000 HD 
HETATM   26  H   UNL     1      -7.173   5.504  73.730  1.00  0.00     0.000 HD 
ENDBRANCH   2   3
TORSDOF 1
ENDMDL
MODEL       40
REMARK 921   NORMALIZED FREE ENERGY PREDICTED BY IDOCK:   -5.97 KCAL/MOL
REMARK 922        TOTAL FREE ENERGY PREDICTED BY IDOCK:   -6.44 KCAL/MOL
REMARK 923 INTER-LIGAND FREE ENERGY PREDICTED BY IDOCK:   -6.27 KCAL/MOL
REMARK 924 INTRA-LIGAND FREE ENERGY PREDICTED BY IDOCK:   -0.17 KCAL/MOL
REMARK 927      BINDING AFFINITY PREDICTED BY RF-SCORE:    0.00 PKD
ROOT
HETATM    1  C   UNL     1     -10.853  16.816  69.693  1.00  0.00    -0.205 C  
HETATM    2  C   UNL     1     -10.846  16.858  68.167  1.00  0.00    -0.351 C  
ENDROOT
BRANCH   2   3
HETATM    3  C   UNL     1     -10.384  15.549  67.543  1.00  0.00    -0.271 C  
HETATM    4  C   UNL     1     -10.454  14.270  68.450  1.00  0.00    -0.249 C  
HETATM    5  C   UNL     1      -8.997  13.780  68.143  1.00  0.00    -0.190 C  
HETATM    6  C   UNL     1      -9.220  13.227  66.697  1.00  0.00    -0.215 C  
HETATM    7  C   UNL     1      -9.013  11.762  66.327  1.00  0.00    -0.176 C  
HETATM    8  N   UNL     1      -7.947  11.120  67.095  1.00  0.00    -0.133 NA 
HETATM    9  C   UNL     1      -6.581  11.559  66.892  1.00  0.00    -0.138 C  
HETATM   10  C   UNL     1      -8.332   9.773  66.984  1.00  0.00    -0.117 A  
HETATM   11  C   UNL     1      -7.476   8.684  66.991  1.00  0.00    -0.084 A  
HETATM   12  C   UNL     1      -8.008   7.423  66.747  1.00  0.00    -0.115 A  
HETATM   13  C   UNL     1      -9.384   7.262  66.525  1.00  0.00    -0.216 A  
HETATM   14  C   UNL     1     -10.264   8.355  66.559  1.00  0.00    -0.277 A  
HETATM   15  C   UNL     1      -9.736   9.610  66.791  1.00  0.00    -0.252 A  
HETATM   16  C   UNL     1     -10.394  10.957  66.785  1.00  0.00    -0.289 C  
HETATM   17  C   UNL     1     -11.477  11.478  65.847  1.00  0.00    -0.086 C  
HETATM   18  C   UNL     1     -11.647  12.956  66.361  1.00  0.00    -0.371 C  
HETATM   19  N   UNL     1     -10.469  13.747  65.892  1.00  0.00    -0.290 NA 
HETATM   20  C   UNL     1     -11.567  13.013  67.942  1.00  0.00    -0.385 C  
HETATM   21  C   UNL     1     -11.091  11.472  68.194  1.00  0.00    -0.246 C  
HETATM   22  C   UNL     1     -10.828  15.146  66.150  1.00  0.00    -0.330 C  
HETATM   23  O   UNL     1     -10.205  15.904  65.144  1.00  0.00    -0.472 OA 
HETATM   24  O   UNL     1     -12.293  10.724  68.447  1.00  0.00    -0.813 OA 
HETATM   25  H   UNL     1     -12.693  11.019  69.256  1.00  0.00     0.000 HD 
HETATM   26  H   UNL     1     -10.484  15.651  64.271  1.00  0.00     0.000 HD 
ENDBRANCH   2   3
TORSDOF 1
ENDMDL
MODEL       41
REMARK 921   NORMALIZED FREE ENERGY PREDICTED BY IDOCK:   -5.95 KCAL/MOL
REMARK 922        TOTAL FREE ENERGY PREDICTED BY IDOCK:   -6.43 KCAL/MOL
REMARK 923 INTER-LIGAND FREE ENERGY PREDICTED BY IDOCK:   -6.28 KCAL/MOL
REMARK 924 INTRA-LIGAND FREE ENERGY PREDICTED BY IDOCK:   -0.14 KCAL/MOL
REMARK 927      BINDING AFFINITY PREDICTED BY RF-SCORE:    0.00 PKD
ROOT
HETATM    1  C   UNL     1      -8.765  10.760  62.374  1.00  0.00    -0.331 C  
HETATM    2  C   UNL     1      -7.736  10.242  63.377  1.00  0.00    -0.126 C  
ENDROOT
BRANCH   2   3
HETATM    3  C   UNL     1      -8.156  10.465  64.823  1.00  0.00    -0.124 C  
HETATM    4  C   UNL     1      -9.542   9.868  65.256  1.00  0.00    -0.361 C  
HETATM    5  C   UNL     1     -10.067  11.175  65.944  1.00  0.00    -0.296 C  
HETATM    6  C   UNL     1      -9.213  11.128  67.253  1.00  0.00    -0.160 C  
HETATM    7  C   UNL     1      -9.828  11.015  68.643  1.00  0.00    -0.193 C  
HETATM    8  N   UNL     1     -11.123  11.685  68.754  1.00  0.00    -0.212 NA 
HETATM    9  C   UNL     1     -11.173  13.129  68.644  1.00  0.00    -0.276 C  
HETATM   10  C   UNL     1     -11.675  10.991  69.846  1.00  0.00    -0.346 A  
HETATM   11  C   UNL     1     -12.578  11.507  70.760  1.00  0.00    -0.390 A  
HETATM   12  C   UNL     1     -12.930  10.727  71.855  1.00  0.00    -0.524 A  
HETATM   13  C   UNL     1     -12.399   9.437  72.009  1.00  0.00    -0.418 A  
HETATM   14  C   UNL     1     -11.517   8.890  71.065  1.00  0.00    -0.351 A  
HETATM   15  C   UNL     1     -11.157   9.668  69.982  1.00  0.00    -0.293 A  
HETATM   16  C   UNL     1     -10.174   9.406  68.880  1.00  0.00    -0.215 C  
HETATM   17  C   UNL     1      -8.814   8.724  68.968  1.00  0.00    -0.137 C  
HETATM   18  C   UNL     1      -8.312   8.845  67.481  1.00  0.00    -0.109 C  
HETATM   19  N   UNL     1      -7.899  10.261  67.245  1.00  0.00    -0.103 NA 
HETATM   20  C   UNL     1      -9.501   8.598  66.465  1.00  0.00    -0.278 C  
HETATM   21  C   UNL     1     -10.720   8.586  67.552  1.00  0.00    -0.141 C  
HETATM   22  C   UNL     1      -7.184  10.237  65.964  1.00  0.00    -0.128 C  
HETATM   23  O   UNL     1      -6.201  11.238  66.043  1.00  0.00    -0.331 OA 
HETATM   24  O   UNL     1     -10.937   7.204  67.885  1.00  0.00    -0.441 OA 
HETATM   25  H   UNL     1     -11.250   6.733  67.122  1.00  0.00     0.000 HD 
HETATM   26  H   UNL     1      -5.592  11.095  66.758  1.00  0.00     0.000 HD 
ENDBRANCH   2   3
TORSDOF 1
ENDMDL
MODEL       42
REMARK 921   NORMALIZED FREE ENERGY PREDICTED BY IDOCK:   -5.94 KCAL/MOL
REMARK 922        TOTAL FREE ENERGY PREDICTED BY IDOCK:   -6.41 KCAL/MOL
REMARK 923 INTER-LIGAND FREE ENERGY PREDICTED BY IDOCK:   -6.26 KCAL/MOL
REMARK 924 INTRA-LIGAND FREE ENERGY PREDICTED BY IDOCK:   -0.15 KCAL/MOL
REMARK 927      BINDING AFFINITY PREDICTED BY RF-SCORE:    0.00 PKD
ROOT
HETATM    1  C   UNL     1     -10.416   4.726  74.081  1.00  0.00    -0.335 C  
HETATM    2  C   UNL     1     -10.451   6.251  74.159  1.00  0.00    -0.250 C  
ENDROOT
BRANCH   2   3
HETATM    3  C   UNL     1     -10.824   6.902  72.835  1.00  0.00    -0.318 C  
HETATM    4  C   UNL     1      -9.647   7.507  71.990  1.00  0.00    -0.189 C  
HETATM    5  C   UNL     1     -10.339   8.888  71.726  1.00  0.00    -0.426 C  
HETATM    6  C   UNL     1     -11.384   8.443  70.651  1.00  0.00    -0.244 C  
HETATM    7  C   UNL     1     -11.394   8.987  69.226  1.00  0.00     0.310 C  
HETATM    8  N   UNL     1     -10.944  10.375  69.138  1.00  0.00    -0.227 NA 
HETATM    9  C   UNL     1     -11.761  11.412  69.739  1.00  0.00    -0.344 C  
HETATM   10  C   UNL     1     -10.531  10.424  67.796  1.00  0.00    -0.226 A  
HETATM   11  C   UNL     1     -10.554  11.543  66.981  1.00  0.00    -0.277 A  
HETATM   12  C   UNL     1     -10.227  11.392  65.639  1.00  0.00    -0.298 A  
HETATM   13  C   UNL     1      -9.857  10.136  65.134  1.00  0.00    -0.394 A  
HETATM   14  C   UNL     1      -9.790   9.004  65.962  1.00  0.00    -0.312 A  
HETATM   15  C   UNL     1     -10.125   9.151  67.294  1.00  0.00    -0.295 A  
HETATM   16  C   UNL     1     -10.246   8.128  68.383  1.00  0.00    -0.240 C  
HETATM   17  C   UNL     1     -10.806   6.713  68.295  1.00  0.00    -0.322 C  
HETATM   18  C   UNL     1     -10.687   6.240  69.792  1.00  0.00    -0.297 C  
HETATM   19  N   UNL     1     -11.763   6.917  70.578  1.00  0.00    -0.354 NA 
HETATM   20  C   UNL     1      -9.334   6.753  70.437  1.00  0.00    -0.163 C  
HETATM   21  C   UNL     1      -8.875   7.745  69.224  1.00  0.00    -0.139 C  
HETATM   22  C   UNL     1     -11.778   6.224  71.871  1.00  0.00    -0.316 C  
HETATM   23  O   UNL     1     -13.110   6.254  72.319  1.00  0.00    -0.489 OA 
HETATM   24  O   UNL     1      -7.992   6.970  68.394  1.00  0.00    -0.119 OA 
HETATM   25  H   UNL     1      -7.204   6.750  68.877  1.00  0.00     0.000 HD 
HETATM   26  H   UNL     1     -13.708   5.830  71.714  1.00  0.00     0.000 HD 
ENDBRANCH   2   3
TORSDOF 1
ENDMDL
MODEL       43
REMARK 921   NORMALIZED FREE ENERGY PREDICTED BY IDOCK:   -5.87 KCAL/MOL
REMARK 922        TOTAL FREE ENERGY PREDICTED BY IDOCK:   -6.34 KCAL/MOL
REMARK 923 INTER-LIGAND FREE ENERGY PREDICTED BY IDOCK:   -6.21 KCAL/MOL
REMARK 924 INTRA-LIGAND FREE ENERGY PREDICTED BY IDOCK:   -0.13 KCAL/MOL
REMARK 927      BINDING AFFINITY PREDICTED BY RF-SCORE:    0.00 PKD
ROOT
HETATM    1  C   UNL     1      -8.894   5.148  68.529  1.00  0.00    -0.109 C  
HETATM    2  C   UNL     1      -8.379   6.468  67.960  1.00  0.00    -0.116 C  
ENDROOT
BRANCH   2   3
HETATM    3  C   UNL     1      -9.367   7.612  68.134  1.00  0.00    -0.146 C  
HETATM    4  C   UNL     1      -8.804   8.946  68.741  1.00  0.00    -0.137 C  
HETATM    5  C   UNL     1      -9.936   9.121  69.810  1.00  0.00    -0.204 C  
HETATM    6  C   UNL     1     -11.094   9.595  68.873  1.00  0.00    -0.059 C  
HETATM    7  C   UNL     1     -11.762  10.961  69.001  1.00  0.00    -0.320 C  
HETATM    8  N   UNL     1     -11.825  11.442  70.380  1.00  0.00    -0.348 NA 
HETATM    9  C   UNL     1     -12.663  10.734  71.327  1.00  0.00    -0.441 C  
HETATM   10  C   UNL     1     -11.936  12.826  70.161  1.00  0.00    -0.296 A  
HETATM   11  C   UNL     1     -12.584  13.727  70.989  1.00  0.00    -0.446 A  
HETATM   12  C   UNL     1     -12.710  15.044  70.563  1.00  0.00    -0.406 A  
HETATM   13  C   UNL     1     -12.167  15.450  69.334  1.00  0.00    -0.250 A  
HETATM   14  C   UNL     1     -11.471  14.553  68.509  1.00  0.00    -0.327 A  
HETATM   15  C   UNL     1     -11.354  13.241  68.925  1.00  0.00    -0.333 A  
HETATM   16  C   UNL     1     -10.769  12.049  68.229  1.00  0.00    -0.252 C  
HETATM   17  C   UNL     1     -10.857  11.677  66.753  1.00  0.00    -0.322 C  
HETATM   18  C   UNL     1     -10.089  10.303  66.736  1.00  0.00    -0.216 C  
HETATM   19  N   UNL     1     -10.982   9.266  67.337  1.00  0.00    -0.088 NA 
HETATM   20  C   UNL     1      -8.827  10.351  67.692  1.00  0.00    -0.124 C  
HETATM   21  C   UNL     1      -9.145  11.787  68.402  1.00  0.00    -0.176 C  
HETATM   22  C   UNL     1     -10.334   7.987  67.028  1.00  0.00    -0.344 C  
HETATM   23  O   UNL     1     -11.370   7.048  66.876  1.00  0.00    -0.599 OA 
HETATM   24  O   UNL     1      -8.409  12.769  67.653  1.00  0.00    -0.151 OA 
HETATM   25  H   UNL     1      -7.476  12.619  67.752  1.00  0.00     0.000 HD 
HETATM   26  H   UNL     1     -11.976   7.283  66.183  1.00  0.00     0.000 HD 
ENDBRANCH   2   3
TORSDOF 1
ENDMDL
MODEL       44
REMARK 921   NORMALIZED FREE ENERGY PREDICTED BY IDOCK:   -5.83 KCAL/MOL
REMARK 922        TOTAL FREE ENERGY PREDICTED BY IDOCK:   -6.30 KCAL/MOL
REMARK 923 INTER-LIGAND FREE ENERGY PREDICTED BY IDOCK:   -6.19 KCAL/MOL
REMARK 924 INTRA-LIGAND FREE ENERGY PREDICTED BY IDOCK:   -0.11 KCAL/MOL
REMARK 927      BINDING AFFINITY PREDICTED BY RF-SCORE:    0.00 PKD
ROOT
HETATM    1  C   UNL     1     -11.596  15.311  71.981  1.00  0.00    -0.529 C  
HETATM    2  C   UNL     1     -12.068  15.699  70.581  1.00  0.00    -0.443 C  
ENDROOT
BRANCH   2   3
HETATM    3  C   UNL     1     -11.894  14.577  69.567  1.00  0.00    -0.374 C  
HETATM    4  C   UNL     1     -10.822  14.803  68.442  1.00  0.00    -0.248 C  
HETATM    5  C   UNL     1     -11.756  14.390  67.253  1.00  0.00    -0.429 C  
HETATM    6  C   UNL     1     -11.759  12.841  67.463  1.00  0.00    -0.364 C  
HETATM    7  C   UNL     1     -11.219  11.860  66.428  1.00  0.00    -0.331 C  
HETATM    8  N   UNL     1     -11.412  12.313  65.052  1.00  0.00    -0.329 NA 
HETATM    9  C   UNL     1     -12.763  12.409  64.533  1.00  0.00    -0.314 C  
HETATM   10  C   UNL     1     -10.403  11.584  64.400  1.00  0.00    -0.312 A  
HETATM   11  C   UNL     1     -10.440  11.146  63.087  1.00  0.00    -0.243 A  
HETATM   12  C   UNL     1      -9.412  10.328  62.633  1.00  0.00    -0.309 A  
HETATM   13  C   UNL     1      -8.351   9.980  63.483  1.00  0.00    -0.171 A  
HETATM   14  C   UNL     1      -8.284  10.454  64.802  1.00  0.00    -0.141 A  
HETATM   15  C   UNL     1      -9.310  11.259  65.258  1.00  0.00    -0.225 A  
HETATM   16  C   UNL     1      -9.567  11.825  66.622  1.00  0.00    -0.219 C  
HETATM   17  C   UNL     1      -9.349  11.164  67.979  1.00  0.00    -0.166 C  
HETATM   18  C   UNL     1      -9.877  12.281  68.955  1.00  0.00     0.105 C  
HETATM   19  N   UNL     1     -11.370  12.289  68.886  1.00  0.00    -0.266 NA 
HETATM   20  C   UNL     1      -9.443  13.719  68.450  1.00  0.00    -0.198 C  
HETATM   21  C   UNL     1      -8.858  13.272  66.993  1.00  0.00    -0.212 C  
HETATM   22  C   UNL     1     -11.794  13.130  70.010  1.00  0.00    -0.290 C  
HETATM   23  O   UNL     1     -13.027  12.613  70.445  1.00  0.00     0.156 OA 
HETATM   24  O   UNL     1      -7.443  13.091  67.175  1.00  0.00    -0.339 OA 
HETATM   25  H   UNL     1      -7.035  13.922  67.387  1.00  0.00     0.000 HD 
HETATM   26  H   UNL     1     -12.964  11.706  70.722  1.00  0.00     0.000 HD 
ENDBRANCH   2   3
TORSDOF 1
ENDMDL
MODEL       45
REMARK 921   NORMALIZED FREE ENERGY PREDICTED BY IDOCK:   -5.76 KCAL/MOL
REMARK 922        TOTAL FREE ENERGY PREDICTED BY IDOCK:   -6.23 KCAL/MOL
REMARK 923 INTER-LIGAND FREE ENERGY PREDICTED BY IDOCK:   -6.05 KCAL/MOL
REMARK 924 INTRA-LIGAND FREE ENERGY PREDICTED BY IDOCK:   -0.18 KCAL/MOL
REMARK 927      BINDING AFFINITY PREDICTED BY RF-SCORE:    0.00 PKD
ROOT
HETATM    1  C   UNL     1     -12.063  13.196  63.377  1.00  0.00    -0.558 C  
HETATM    2  C   UNL     1     -12.048  14.267  64.465  1.00  0.00    -0.499 C  
ENDROOT
BRANCH   2   3
HETATM    3  C   UNL     1     -11.553  13.742  65.805  1.00  0.00    -0.342 C  
HETATM    4  C   UNL     1     -11.382  12.187  65.934  1.00  0.00    -0.407 C  
HETATM    5  C   UNL     1     -12.154  12.058  67.293  1.00  0.00     0.112 C  
HETATM    6  C   UNL     1     -11.065  12.637  68.254  1.00  0.00    -0.261 C  
HETATM    7  C   UNL     1     -10.425  11.821  69.373  1.00  0.00     0.160 C  
HETATM    8  N   UNL     1     -11.337  10.843  69.963  1.00  0.00    -0.305 NA 
HETATM    9  C   UNL     1     -12.484  11.321  70.711  1.00  0.00    -0.376 C  
HETATM   10  C   UNL     1     -10.415   9.927  70.499  1.00  0.00    -0.264 A  
HETATM   11  C   UNL     1     -10.615   9.138  71.619  1.00  0.00    -0.427 A  
HETATM   12  C   UNL     1      -9.552   8.375  72.089  1.00  0.00    -0.367 A  
HETATM   13  C   UNL     1      -8.317   8.390  71.424  1.00  0.00    -0.182 A  
HETATM   14  C   UNL     1      -8.118   9.155  70.264  1.00  0.00    -0.156 A  
HETATM   15  C   UNL     1      -9.170   9.921  69.801  1.00  0.00    -0.252 A  
HETATM   16  C   UNL     1      -9.233  10.901  68.669  1.00  0.00    -0.187 C  
HETATM   17  C   UNL     1      -8.175  11.907  68.227  1.00  0.00    -0.157 C  
HETATM   18  C   UNL     1      -8.916  12.634  67.044  1.00  0.00    -0.216 C  
HETATM   19  N   UNL     1      -9.941  13.549  67.633  1.00  0.00    -0.225 NA 
HETATM   20  C   UNL     1      -9.749  11.600  66.181  1.00  0.00    -0.253 C  
HETATM   21  C   UNL     1      -9.579  10.307  67.164  1.00  0.00    -0.168 C  
HETATM   22  C   UNL     1     -10.381  14.391  66.515  1.00  0.00    -0.281 C  
HETATM   23  O   UNL     1     -10.710  15.640  67.069  1.00  0.00    -0.313 OA 
HETATM   24  O   UNL     1      -8.452   9.571  66.658  1.00  0.00    -0.130 OA 
HETATM   25  H   UNL     1      -8.651   9.230  65.794  1.00  0.00     0.000 HD 
HETATM   26  H   UNL     1      -9.976  16.047  67.515  1.00  0.00     0.000 HD 
ENDBRANCH   2   3
TORSDOF 1
ENDMDL
MODEL       46
REMARK 921   NORMALIZED FREE ENERGY PREDICTED BY IDOCK:   -5.75 KCAL/MOL
REMARK 922        TOTAL FREE ENERGY PREDICTED BY IDOCK:   -6.22 KCAL/MOL
REMARK 923 INTER-LIGAND FREE ENERGY PREDICTED BY IDOCK:   -6.07 KCAL/MOL
REMARK 924 INTRA-LIGAND FREE ENERGY PREDICTED BY IDOCK:   -0.15 KCAL/MOL
REMARK 927      BINDING AFFINITY PREDICTED BY RF-SCORE:    0.00 PKD
ROOT
HETATM    1  C   UNL     1      -6.259  21.003  66.942  1.00  0.00    -0.361 C  
HETATM    2  C   UNL     1      -7.551  20.931  67.753  1.00  0.00    -0.115 C  
ENDROOT
BRANCH   2   3
HETATM    3  C   UNL     1      -7.873  19.522  68.228  1.00  0.00    -0.362 C  
HETATM    4  C   UNL     1      -8.940  18.723  67.399  1.00  0.00    -0.288 C  
HETATM    5  C   UNL     1      -9.787  18.266  68.636  1.00  0.00    -0.400 C  
HETATM    6  C   UNL     1      -8.837  17.156  69.193  1.00  0.00    -0.002 C  
HETATM    7  C   UNL     1      -9.239  15.688  69.289  1.00  0.00    -0.269 C  
HETATM    8  N   UNL     1     -10.663  15.500  69.563  1.00  0.00    -0.250 NA 
HETATM    9  C   UNL     1     -11.188  15.922  70.846  1.00  0.00    -0.351 C  
HETATM   10  C   UNL     1     -10.848  14.199  69.063  1.00  0.00    -0.251 A  
HETATM   11  C   UNL     1     -11.772  13.278  69.526  1.00  0.00    -0.384 A  
HETATM   12  C   UNL     1     -11.741  11.990  69.004  1.00  0.00    -0.382 A  
HETATM   13  C   UNL     1     -10.809  11.646  68.013  1.00  0.00    -0.259 A  
HETATM   14  C   UNL     1      -9.897  12.586  67.508  1.00  0.00    -0.198 A  
HETATM   15  C   UNL     1      -9.920  13.863  68.032  1.00  0.00    -0.241 A  
HETATM   16  C   UNL     1      -9.021  15.035  67.775  1.00  0.00    -0.179 C  
HETATM   17  C   UNL     1      -7.511  15.042  67.563  1.00  0.00    -0.226 C  
HETATM   18  C   UNL     1      -7.227  16.583  67.415  1.00  0.00    -0.149 C  
HETATM   19  N   UNL     1      -7.321  17.203  68.771  1.00  0.00    -0.232 NA 
HETATM   20  C   UNL     1      -8.369  17.286  66.572  1.00  0.00    -0.312 C  
HETATM   21  C   UNL     1      -9.402  16.024  66.505  1.00  0.00    -0.268 C  
HETATM   22  C   UNL     1      -6.770  18.553  68.607  1.00  0.00    -0.259 C  
HETATM   23  O   UNL     1      -6.160  18.881  69.830  1.00  0.00    -0.257 OA 
HETATM   24  O   UNL     1      -9.126  15.353  65.263  1.00  0.00    -0.072 OA 
HETATM   25  H   UNL     1      -9.346  15.921  64.534  1.00  0.00     0.000 HD 
HETATM   26  H   UNL     1      -5.469  18.274  70.068  1.00  0.00     0.000 HD 
ENDBRANCH   2   3
TORSDOF 1
ENDMDL
MODEL       47
REMARK 921   NORMALIZED FREE ENERGY PREDICTED BY IDOCK:   -5.75 KCAL/MOL
REMARK 922        TOTAL FREE ENERGY PREDICTED BY IDOCK:   -6.21 KCAL/MOL
REMARK 923 INTER-LIGAND FREE ENERGY PREDICTED BY IDOCK:   -6.05 KCAL/MOL
REMARK 924 INTRA-LIGAND FREE ENERGY PREDICTED BY IDOCK:   -0.16 KCAL/MOL
REMARK 927      BINDING AFFINITY PREDICTED BY RF-SCORE:    0.00 PKD
ROOT
HETATM    1  C   UNL     1      -9.636  17.634  66.513  1.00  0.00    -0.301 C  
HETATM    2  C   UNL     1     -10.281  16.603  65.590  1.00  0.00    -0.285 C  
ENDROOT
BRANCH   2   3
HETATM    3  C   UNL     1     -10.070  15.172  66.063  1.00  0.00    -0.323 C  
HETATM    4  C   UNL     1     -10.111  14.927  67.613  1.00  0.00    -0.227 C  
HETATM    5  C   UNL     1      -8.787  14.090  67.673  1.00  0.00    -0.190 C  
HETATM    6  C   UNL     1      -9.313  12.748  67.068  1.00  0.00    -0.229 C  
HETATM    7  C   UNL     1      -9.325  11.434  67.842  1.00  0.00    -0.164 C  
HETATM    8  N   UNL     1      -8.212  11.312  68.783  1.00  0.00    -0.144 NA 
HETATM    9  C   UNL     1      -6.864  11.209  68.259  1.00  0.00    -0.068 C  
HETATM   10  C   UNL     1      -8.744  10.376  69.686  1.00  0.00    -0.035 A  
HETATM   11  C   UNL     1      -8.016   9.458  70.424  1.00  0.00    -0.190 A  
HETATM   12  C   UNL     1      -8.707   8.518  71.179  1.00  0.00    -0.215 A  
HETATM   13  C   UNL     1     -10.111   8.522  71.209  1.00  0.00    -0.286 A  
HETATM   14  C   UNL     1     -10.856   9.475  70.497  1.00  0.00    -0.352 A  
HETATM   15  C   UNL     1     -10.170  10.404  69.738  1.00  0.00    -0.228 A  
HETATM   16  C   UNL     1     -10.679  11.463  68.807  1.00  0.00    -0.240 C  
HETATM   17  C   UNL     1     -11.851  11.385  67.835  1.00  0.00    -0.239 C  
HETATM   18  C   UNL     1     -11.777  12.801  67.150  1.00  0.00    -0.380 C  
HETATM   19  N   UNL     1     -10.625  12.795  66.198  1.00  0.00    -0.263 NA 
HETATM   20  C   UNL     1     -11.417  13.921  68.210  1.00  0.00    -0.346 C  
HETATM   21  C   UNL     1     -11.063  12.933  69.461  1.00  0.00     0.018 C  
HETATM   22  C   UNL     1     -10.790  14.014  65.399  1.00  0.00    -0.328 C  
HETATM   23  O   UNL     1     -10.278  13.721  64.123  1.00  0.00    -0.705 OA 
HETATM   24  O   UNL     1     -12.272  12.824  70.232  1.00  0.00    -0.334 OA 
HETATM   25  H   UNL     1     -12.492  13.668  70.608  1.00  0.00     0.000 HD 
HETATM   26  H   UNL     1     -10.729  12.995  63.707  1.00  0.00     0.000 HD 
ENDBRANCH   2   3
TORSDOF 1
ENDMDL
MODEL       48
REMARK 921   NORMALIZED FREE ENERGY PREDICTED BY IDOCK:   -5.64 KCAL/MOL
REMARK 922        TOTAL FREE ENERGY PREDICTED BY IDOCK:   -6.10 KCAL/MOL
REMARK 923 INTER-LIGAND FREE ENERGY PREDICTED BY IDOCK:   -5.97 KCAL/MOL
REMARK 924 INTRA-LIGAND FREE ENERGY PREDICTED BY IDOCK:   -0.12 KCAL/MOL
REMARK 927      BINDING AFFINITY PREDICTED BY RF-SCORE:    0.00 PKD
ROOT
HETATM    1  C   UNL     1      -9.483   7.747  73.499  1.00  0.00    -0.346 C  
HETATM    2  C   UNL     1      -8.711   7.524  72.201  1.00  0.00    -0.140 C  
ENDROOT
BRANCH   2   3
HETATM    3  C   UNL     1      -9.419   8.103  70.985  1.00  0.00    -0.185 C  
HETATM    4  C   UNL     1      -8.554   8.988  70.018  1.00  0.00    -0.157 C  
HETATM    5  C   UNL     1      -9.575  10.175  69.939  1.00  0.00    -0.172 C  
HETATM    6  C   UNL     1     -10.642   9.525  68.999  1.00  0.00    -0.219 C  
HETATM    7  C   UNL     1     -10.992  10.087  67.625  1.00  0.00    -0.234 C  
HETATM    8  N   UNL     1     -10.890  11.544  67.557  1.00  0.00    -0.222 NA 
HETATM    9  C   UNL     1     -11.820  12.344  68.329  1.00  0.00    -0.309 C  
HETATM   10  C   UNL     1     -10.708  11.721  66.175  1.00  0.00    -0.277 A  
HETATM   11  C   UNL     1     -11.109  12.825  65.441  1.00  0.00    -0.317 A  
HETATM   12  C   UNL     1     -10.964  12.788  64.059  1.00  0.00    -0.454 A  
HETATM   13  C   UNL     1     -10.400  11.666  63.432  1.00  0.00    -0.482 A  
HETATM   14  C   UNL     1      -9.951  10.561  64.172  1.00  0.00    -0.385 A  
HETATM   15  C   UNL     1     -10.104  10.592  65.545  1.00  0.00    -0.349 A  
HETATM   16  C   UNL     1      -9.821   9.542  66.577  1.00  0.00    -0.305 C  
HETATM   17  C   UNL     1     -10.051   8.038  66.485  1.00  0.00    -0.270 C  
HETATM   18  C   UNL     1      -9.600   7.569  67.919  1.00  0.00    -0.143 C  
HETATM   19  N   UNL     1     -10.670   7.955  68.889  1.00  0.00    -0.134 NA 
HETATM   20  C   UNL     1      -8.318   8.368  68.395  1.00  0.00    -0.131 C  
HETATM   21  C   UNL     1      -8.287   9.470  67.190  1.00  0.00    -0.131 C  
HETATM   22  C   UNL     1     -10.329   7.245  70.127  1.00  0.00    -0.212 C  
HETATM   23  O   UNL     1     -11.549   6.952  70.761  1.00  0.00    -0.310 OA 
HETATM   24  O   UNL     1      -7.388   8.944  66.198  1.00  0.00    -0.088 OA 
HETATM   25  H   UNL     1      -6.507   8.903  66.550  1.00  0.00     0.000 HD 
HETATM   26  H   UNL     1     -12.119   6.415  70.223  1.00  0.00     0.000 HD 
ENDBRANCH   2   3
TORSDOF 1
ENDMDL
MODEL       49
REMARK 921   NORMALIZED FREE ENERGY PREDICTED BY IDOCK:   -5.61 KCAL/MOL
REMARK 922        TOTAL FREE ENERGY PREDICTED BY IDOCK:   -6.07 KCAL/MOL
REMARK 923 INTER-LIGAND FREE ENERGY PREDICTED BY IDOCK:   -5.93 KCAL/MOL
REMARK 924 INTRA-LIGAND FREE ENERGY PREDICTED BY IDOCK:   -0.13 KCAL/MOL
REMARK 927      BINDING AFFINITY PREDICTED BY RF-SCORE:    0.00 PKD
ROOT
HETATM    1  C   UNL     1     -12.165  15.526  64.129  1.00  0.00    -0.019 C  
HETATM    2  C   UNL     1     -10.855  15.749  64.883  1.00  0.00    -0.433 C  
ENDROOT
BRANCH   2   3
HETATM    3  C   UNL     1     -10.293  14.469  65.482  1.00  0.00    -0.379 C  
HETATM    4  C   UNL     1     -10.422  14.301  67.038  1.00  0.00    -0.271 C  
HETATM    5  C   UNL     1      -8.927  13.893  67.275  1.00  0.00    -0.225 C  
HETATM    6  C   UNL     1      -8.980  12.427  66.734  1.00  0.00    -0.205 C  
HETATM    7  C   UNL     1      -8.694  11.208  67.605  1.00  0.00    -0.129 C  
HETATM    8  N   UNL     1      -7.697  11.466  68.643  1.00  0.00    -0.131 NA 
HETATM    9  C   UNL     1      -6.329  11.736  68.244  1.00  0.00    -0.050 C  
HETATM   10  C   UNL     1      -8.028  10.461  69.568  1.00  0.00    -0.144 A  
HETATM   11  C   UNL     1      -7.147   9.836  70.434  1.00  0.00    -0.146 A  
HETATM   12  C   UNL     1      -7.614   8.773  71.199  1.00  0.00    -0.134 A  
HETATM   13  C   UNL     1      -8.954   8.366  71.110  1.00  0.00    -0.207 A  
HETATM   14  C   UNL     1      -9.864   9.022  70.266  1.00  0.00    -0.227 A  
HETATM   15  C   UNL     1      -9.400  10.072  69.497  1.00  0.00    -0.247 A  
HETATM   16  C   UNL     1     -10.091  10.887  68.446  1.00  0.00    -0.196 C  
HETATM   17  C   UNL     1     -11.084  10.420  67.387  1.00  0.00    -0.297 C  
HETATM   18  C   UNL     1     -11.350  11.759  66.603  1.00  0.00    -0.316 C  
HETATM   19  N   UNL     1     -10.152  12.043  65.755  1.00  0.00    -0.233 NA 
HETATM   20  C   UNL     1     -11.438  12.987  67.599  1.00  0.00    -0.369 C  
HETATM   21  C   UNL     1     -10.947  12.210  68.949  1.00  0.00    -0.224 C  
HETATM   22  C   UNL     1     -10.576  13.119  64.852  1.00  0.00    -0.349 C  
HETATM   23  O   UNL     1      -9.873  12.926  63.651  1.00  0.00    -0.710 OA 
HETATM   24  O   UNL     1     -12.147  11.790  69.621  1.00  0.00    -0.294 OA 
HETATM   25  H   UNL     1     -12.638  12.550  69.910  1.00  0.00     0.000 HD 
HETATM   26  H   UNL     1     -10.050  12.079  63.256  1.00  0.00     0.000 HD 
ENDBRANCH   2   3
TORSDOF 1
ENDMDL
MODEL       50
REMARK 921   NORMALIZED FREE ENERGY PREDICTED BY IDOCK:   -5.58 KCAL/MOL
REMARK 922        TOTAL FREE ENERGY PREDICTED BY IDOCK:   -6.04 KCAL/MOL
REMARK 923 INTER-LIGAND FREE ENERGY PREDICTED BY IDOCK:   -5.90 KCAL/MOL
REMARK 924 INTRA-LIGAND FREE ENERGY PREDICTED BY IDOCK:   -0.14 KCAL/MOL
REMARK 927      BINDING AFFINITY PREDICTED BY RF-SCORE:    0.00 PKD
ROOT
HETATM    1  C   UNL     1      -9.497  16.893  66.500  1.00  0.00    -0.296 C  
HETATM    2  C   UNL     1     -10.750  16.224  67.058  1.00  0.00    -0.233 C  
ENDROOT
BRANCH   2   3
HETATM    3  C   UNL     1     -10.831  14.743  66.718  1.00  0.00    -0.316 C  
HETATM    4  C   UNL     1      -9.664  13.833  67.243  1.00  0.00    -0.242 C  
HETATM    5  C   UNL     1      -9.398  13.116  65.875  1.00  0.00     0.062 C  
HETATM    6  C   UNL     1     -10.635  12.161  65.849  1.00  0.00    -0.258 C  
HETATM    7  C   UNL     1     -10.512  10.640  65.843  1.00  0.00    -0.174 C  
HETATM    8  N   UNL     1      -9.327  10.164  65.131  1.00  0.00    -0.213 NA 
HETATM    9  C   UNL     1      -9.248  10.364  63.697  1.00  0.00    -0.279 C  
HETATM   10  C   UNL     1      -9.165   8.901  65.727  1.00  0.00    -0.221 A  
HETATM   11  C   UNL     1      -8.615   7.784  65.120  1.00  0.00    -0.023 A  
HETATM   12  C   UNL     1      -8.641   6.577  65.808  1.00  0.00    -0.149 A  
HETATM   13  C   UNL     1      -9.190   6.504  67.097  1.00  0.00    -0.134 A  
HETATM   14  C   UNL     1      -9.711   7.640  67.736  1.00  0.00    -0.180 A  
HETATM   15  C   UNL     1      -9.695   8.839  67.050  1.00  0.00    -0.258 A  
HETATM   16  C   UNL     1     -10.260  10.177  67.420  1.00  0.00    -0.267 C  
HETATM   17  C   UNL     1     -11.572  10.488  68.131  1.00  0.00    -0.145 C  
HETATM   18  C   UNL     1     -11.556  12.062  68.134  1.00  0.00    -0.340 C  
HETATM   19  N   UNL     1     -11.872  12.531  66.751  1.00  0.00    -0.522 NA 
HETATM   20  C   UNL     1     -10.098  12.609  68.421  1.00  0.00    -0.222 C  
HETATM   21  C   UNL     1      -9.305  11.185  68.320  1.00  0.00    -0.176 C  
HETATM   22  C   UNL     1     -12.124  13.969  66.889  1.00  0.00    -0.430 C  
HETATM   23  O   UNL     1     -13.081  14.297  65.913  1.00  0.00    -0.473 OA 
HETATM   24  O   UNL     1      -9.207  10.691  69.667  1.00  0.00    -0.408 OA 
HETATM   25  H   UNL     1      -8.658  11.270  70.184  1.00  0.00     0.000 HD 
HETATM   26  H   UNL     1     -13.891  13.812  66.020  1.00  0.00     0.000 HD 
ENDBRANCH   2   3
TORSDOF 1
ENDMDL
MODEL       51
REMARK 921   NORMALIZED FREE ENERGY PREDICTED BY IDOCK:   -5.53 KCAL/MOL
REMARK 922        TOTAL FREE ENERGY PREDICTED BY IDOCK:   -5.99 KCAL/MOL
REMARK 923 INTER-LIGAND FREE ENERGY PREDICTED BY IDOCK:   -5.82 KCAL/MOL
REMARK 924 INTRA-LIGAND FREE ENERGY PREDICTED BY IDOCK:   -0.16 KCAL/MOL
REMARK 927      BINDING AFFINITY PREDICTED BY RF-SCORE:    0.00 PKD
ROOT
HETATM    1  C   UNL     1     -11.217  13.155  65.668  1.00  0.00    -0.306 C  
HETATM    2  C   UNL     1     -11.140  13.474  67.159  1.00  0.00    -0.308 C  
ENDROOT
BRANCH   2   3
HETATM    3  C   UNL     1     -10.621  12.307  67.987  1.00  0.00    -0.235 C  
HETATM    4  C   UNL     1     -11.335  10.924  67.782  1.00  0.00    -0.366 C  
HETATM    5  C   UNL     1     -11.536  10.625  69.308  1.00  0.00    -0.346 C  
HETATM    6  C   UNL     1     -10.068  10.238  69.682  1.00  0.00    -0.224 C  
HETATM    7  C   UNL     1      -9.680   8.860  70.206  1.00  0.00    -0.185 C  
HETATM    8  N   UNL     1     -10.726   8.237  71.015  1.00  0.00    -0.214 NA 
HETATM    9  C   UNL     1     -11.067   8.833  72.292  1.00  0.00    -0.270 C  
HETATM   10  C   UNL     1     -10.375   6.882  70.884  1.00  0.00    -0.198 A  
HETATM   11  C   UNL     1     -10.603   5.892  71.826  1.00  0.00    -0.286 A  
HETATM   12  C   UNL     1     -10.081   4.625  71.593  1.00  0.00    -0.258 A  
HETATM   13  C   UNL     1      -9.365   4.356  70.417  1.00  0.00    -0.219 A  
HETATM   14  C   UNL     1      -9.166   5.342  69.438  1.00  0.00    -0.150 A  
HETATM   15  C   UNL     1      -9.675   6.604  69.672  1.00  0.00    -0.162 A  
HETATM   16  C   UNL     1      -9.541   7.869  68.878  1.00  0.00    -0.155 C  
HETATM   17  C   UNL     1      -8.320   8.391  68.129  1.00  0.00    -0.128 C  
HETATM   18  C   UNL     1      -8.857   9.769  67.587  1.00  0.00    -0.125 C  
HETATM   19  N   UNL     1      -8.911  10.727  68.733  1.00  0.00    -0.165 NA 
HETATM   20  C   UNL     1     -10.359   9.635  67.102  1.00  0.00    -0.319 C  
HETATM   21  C   UNL     1     -10.640   8.130  67.670  1.00  0.00    -0.188 C  
HETATM   22  C   UNL     1      -9.134  12.039  68.116  1.00  0.00    -0.191 C  
HETATM   23  O   UNL     1      -8.487  12.976  68.939  1.00  0.00    -0.360 OA 
HETATM   24  O   UNL     1     -10.379   7.239  66.571  1.00  0.00    -0.466 OA 
HETATM   25  H   UNL     1     -11.010   7.389  65.877  1.00  0.00     0.000 HD 
HETATM   26  H   UNL     1      -7.555  12.808  69.020  1.00  0.00     0.000 HD 
ENDBRANCH   2   3
TORSDOF 1
ENDMDL
MODEL       52
REMARK 921   NORMALIZED FREE ENERGY PREDICTED BY IDOCK:   -5.52 KCAL/MOL
REMARK 922        TOTAL FREE ENERGY PREDICTED BY IDOCK:   -5.97 KCAL/MOL
REMARK 923 INTER-LIGAND FREE ENERGY PREDICTED BY IDOCK:   -5.89 KCAL/MOL
REMARK 924 INTRA-LIGAND FREE ENERGY PREDICTED BY IDOCK:   -0.08 KCAL/MOL
REMARK 927      BINDING AFFINITY PREDICTED BY RF-SCORE:    0.00 PKD
ROOT
HETATM    1  C   UNL     1     -12.523  13.267  65.874  1.00  0.00    -0.433 C  
HETATM    2  C   UNL     1     -12.137  14.534  65.112  1.00  0.00    -0.363 C  
ENDROOT
BRANCH   2   3
HETATM    3  C   UNL     1     -10.855  15.168  65.633  1.00  0.00    -0.367 C  
HETATM    4  C   UNL     1     -10.984  16.598  66.270  1.00  0.00     0.123 C  
HETATM    5  C   UNL     1      -9.797  17.233  65.467  1.00  0.00     0.225 C  
HETATM    6  C   UNL     1      -8.600  16.585  66.236  1.00  0.00    -0.332 C  
HETATM    7  C   UNL     1      -7.564  17.402  67.002  1.00  0.00    -0.205 C  
HETATM    8  N   UNL     1      -7.298  18.705  66.396  1.00  0.00    -0.234 NA 
HETATM    9  C   UNL     1      -6.651  18.752  65.100  1.00  0.00    -0.138 C  
HETATM   10  C   UNL     1      -6.807  19.408  67.510  1.00  0.00    -0.204 A  
HETATM   11  C   UNL     1      -5.888  20.443  67.474  1.00  0.00    -0.231 A  
HETATM   12  C   UNL     1      -5.413  20.948  68.679  1.00  0.00    -0.375 A  
HETATM   13  C   UNL     1      -5.878  20.434  69.899  1.00  0.00    -0.389 A  
HETATM   14  C   UNL     1      -6.841  19.414  69.945  1.00  0.00    -0.094 A  
HETATM   15  C   UNL     1      -7.307  18.904  68.749  1.00  0.00    -0.356 A  
HETATM   16  C   UNL     1      -8.242  17.764  68.477  1.00  0.00    -0.296 C  
HETATM   17  C   UNL     1      -8.337  16.425  69.200  1.00  0.00    -0.182 C  
HETATM   18  C   UNL     1      -9.466  15.706  68.371  1.00  0.00    -0.196 C  
HETATM   19  N   UNL     1      -8.877  15.276  67.066  1.00  0.00    -0.220 NA 
HETATM   20  C   UNL     1     -10.612  16.726  67.979  1.00  0.00    -0.347 C  
HETATM   21  C   UNL     1      -9.862  18.094  68.461  1.00  0.00    -0.382 C  
HETATM   22  C   UNL     1      -9.878  14.377  66.480  1.00  0.00    -0.287 C  
HETATM   23  O   UNL     1      -9.162  13.426  65.731  1.00  0.00    -0.460 OA 
HETATM   24  O   UNL     1     -10.323  18.346  69.800  1.00  0.00    -0.152 OA 
HETATM   25  H   UNL     1     -11.254  18.536  69.791  1.00  0.00     0.000 HD 
HETATM   26  H   UNL     1      -8.549  12.931  66.262  1.00  0.00     0.000 HD 
ENDBRANCH   2   3
TORSDOF 1
ENDMDL
MODEL       53
REMARK 921   NORMALIZED FREE ENERGY PREDICTED BY IDOCK:   -5.43 KCAL/MOL
REMARK 922        TOTAL FREE ENERGY PREDICTED BY IDOCK:   -5.88 KCAL/MOL
REMARK 923 INTER-LIGAND FREE ENERGY PREDICTED BY IDOCK:   -5.71 KCAL/MOL
REMARK 924 INTRA-LIGAND FREE ENERGY PREDICTED BY IDOCK:   -0.17 KCAL/MOL
REMARK 927      BINDING AFFINITY PREDICTED BY RF-SCORE:    0.00 PKD
ROOT
HETATM    1  C   UNL     1     -11.041   6.242  69.318  1.00  0.00    -0.461 C  
HETATM    2  C   UNL     1      -9.580   6.588  69.041  1.00  0.00    -0.135 C  
ENDROOT
BRANCH   2   3
HETATM    3  C   UNL     1      -9.419   7.870  68.237  1.00  0.00    -0.149 C  
HETATM    4  C   UNL     1     -10.532   8.962  68.419  1.00  0.00    -0.230 C  
HETATM    5  C   UNL     1     -10.762   9.206  66.887  1.00  0.00    -0.149 C  
HETATM    6  C   UNL     1      -9.474  10.033  66.570  1.00  0.00    -0.175 C  
HETATM    7  C   UNL     1      -9.513  11.472  66.066  1.00  0.00    -0.229 C  
HETATM    8  N   UNL     1     -10.671  11.752  65.219  1.00  0.00    -0.279 NA 
HETATM    9  C   UNL     1     -10.766  11.099  63.928  1.00  0.00    -0.337 C  
HETATM   10  C   UNL     1     -10.762  13.147  65.367  1.00  0.00    -0.294 A  
HETATM   11  C   UNL     1     -11.251  14.031  64.421  1.00  0.00    -0.318 A  
HETATM   12  C   UNL     1     -11.156  15.394  64.677  1.00  0.00    -0.361 A  
HETATM   13  C   UNL     1     -10.600  15.855  65.881  1.00  0.00    -0.348 A  
HETATM   14  C   UNL     1     -10.141  14.964  66.863  1.00  0.00    -0.242 A  
HETATM   15  C   UNL     1     -10.225  13.610  66.606  1.00  0.00    -0.276 A  
HETATM   16  C   UNL     1      -9.735  12.438  67.401  1.00  0.00    -0.193 C  
HETATM   17  C   UNL     1      -8.439  12.307  68.195  1.00  0.00    -0.176 C  
HETATM   18  C   UNL     1      -8.542  10.824  68.712  1.00  0.00    -0.156 C  
HETATM   19  N   UNL     1      -8.257   9.913  67.562  1.00  0.00    -0.114 NA 
HETATM   20  C   UNL     1     -10.028  10.479  69.139  1.00  0.00    -0.236 C  
HETATM   21  C   UNL     1     -10.741  11.832  68.566  1.00  0.00    -0.220 C  
HETATM   22  C   UNL     1      -8.084   8.587  68.166  1.00  0.00    -0.119 C  
HETATM   23  O   UNL     1      -7.150   7.908  67.365  1.00  0.00    -0.079 OA 
HETATM   24  O   UNL     1     -10.808  12.743  69.676  1.00  0.00    -0.440 OA 
HETATM   25  H   UNL     1     -11.386  12.395  70.345  1.00  0.00     0.000 HD 
HETATM   26  H   UNL     1      -6.314   8.357  67.320  1.00  0.00     0.000 HD 
ENDBRANCH   2   3
TORSDOF 1
ENDMDL
MODEL       54
REMARK 921   NORMALIZED FREE ENERGY PREDICTED BY IDOCK:   -5.43 KCAL/MOL
REMARK 922        TOTAL FREE ENERGY PREDICTED BY IDOCK:   -5.87 KCAL/MOL
REMARK 923 INTER-LIGAND FREE ENERGY PREDICTED BY IDOCK:   -5.71 KCAL/MOL
REMARK 924 INTRA-LIGAND FREE ENERGY PREDICTED BY IDOCK:   -0.17 KCAL/MOL
REMARK 927      BINDING AFFINITY PREDICTED BY RF-SCORE:    0.00 PKD
ROOT
HETATM    1  C   UNL     1      -5.336  20.840  70.341  1.00  0.00    -0.294 C  
HETATM    2  C   UNL     1      -5.342  20.803  68.814  1.00  0.00    -0.361 C  
ENDROOT
BRANCH   2   3
HETATM    3  C   UNL     1      -6.052  19.579  68.255  1.00  0.00    -0.250 C  
HETATM    4  C   UNL     1      -7.197  18.963  69.135  1.00  0.00    -0.283 C  
HETATM    5  C   UNL     1      -6.689  17.483  69.038  1.00  0.00    -0.247 C  
HETATM    6  C   UNL     1      -7.129  17.163  67.572  1.00  0.00    -0.154 C  
HETATM    7  C   UNL     1      -8.139  16.074  67.226  1.00  0.00    -0.177 C  
HETATM    8  N   UNL     1      -8.085  14.931  68.136  1.00  0.00    -0.131 NA 
HETATM    9  C   UNL     1      -6.900  14.095  68.136  1.00  0.00    -0.129 C  
HETATM   10  C   UNL     1      -9.378  14.408  67.963  1.00  0.00    -0.200 A  
HETATM   11  C   UNL     1      -9.735  13.076  68.087  1.00  0.00    -0.228 A  
HETATM   12  C   UNL     1     -11.035  12.706  67.760  1.00  0.00    -0.266 A  
HETATM   13  C   UNL     1     -11.965  13.670  67.341  1.00  0.00    -0.413 A  
HETATM   14  C   UNL     1     -11.622  15.029  67.253  1.00  0.00    -0.285 A  
HETATM   15  C   UNL     1     -10.328  15.396  67.568  1.00  0.00    -0.264 A  
HETATM   16  C   UNL     1      -9.647  16.728  67.475  1.00  0.00    -0.240 C  
HETATM   17  C   UNL     1      -9.792  17.793  66.393  1.00  0.00    -0.328 C  
HETATM   18  C   UNL     1      -8.763  18.877  66.887  1.00  0.00    -0.300 C  
HETATM   19  N   UNL     1      -7.386  18.373  66.599  1.00  0.00    -0.215 NA 
HETATM   20  C   UNL     1      -8.816  19.025  68.463  1.00  0.00    -0.398 C  
HETATM   21  C   UNL     1      -9.783  17.746  68.772  1.00  0.00    -0.314 C  
HETATM   22  C   UNL     1      -6.510  19.531  66.810  1.00  0.00    -0.188 C  
HETATM   23  O   UNL     1      -5.441  19.385  65.910  1.00  0.00    -0.154 OA 
HETATM   24  O   UNL     1     -11.120  18.271  68.843  1.00  0.00     0.114 OA 
HETATM   25  H   UNL     1     -11.198  18.855  69.588  1.00  0.00     0.000 HD 
HETATM   26  H   UNL     1      -5.728  19.355  65.005  1.00  0.00     0.000 HD 
ENDBRANCH   2   3
TORSDOF 1
ENDMDL
MODEL       55
REMARK 921   NORMALIZED FREE ENERGY PREDICTED BY IDOCK:   -5.41 KCAL/MOL
REMARK 922        TOTAL FREE ENERGY PREDICTED BY IDOCK:   -5.85 KCAL/MOL
REMARK 923 INTER-LIGAND FREE ENERGY PREDICTED BY IDOCK:   -5.71 KCAL/MOL
REMARK 924 INTRA-LIGAND FREE ENERGY PREDICTED BY IDOCK:   -0.14 KCAL/MOL
REMARK 927      BINDING AFFINITY PREDICTED BY RF-SCORE:    0.00 PKD
ROOT
HETATM    1  C   UNL     1     -10.059   4.870  70.927  1.00  0.00    -0.292 C  
HETATM    2  C   UNL     1      -9.316   6.125  71.380  1.00  0.00    -0.163 C  
ENDROOT
BRANCH   2   3
HETATM    3  C   UNL     1      -9.047   7.097  70.241  1.00  0.00    -0.156 C  
HETATM    4  C   UNL     1     -10.282   7.523  69.370  1.00  0.00    -0.204 C  
HETATM    5  C   UNL     1      -9.594   7.260  67.986  1.00  0.00    -0.148 C  
HETATM    6  C   UNL     1      -8.651   8.506  67.935  1.00  0.00    -0.134 C  
HETATM    7  C   UNL     1      -8.754   9.583  66.860  1.00  0.00    -0.128 C  
HETATM    8  N   UNL     1      -9.189   9.063  65.565  1.00  0.00    -0.216 NA 
HETATM    9  C   UNL     1      -8.309   8.163  64.845  1.00  0.00    -0.123 C  
HETATM   10  C   UNL     1      -9.713  10.231  64.985  1.00  0.00    -0.305 A  
HETATM   11  C   UNL     1      -9.743  10.520  63.631  1.00  0.00    -0.375 A  
HETATM   12  C   UNL     1     -10.184  11.776  63.232  1.00  0.00    -0.452 A  
HETATM   13  C   UNL     1     -10.614  12.714  64.183  1.00  0.00    -0.434 A  
HETATM   14  C   UNL     1     -10.627  12.414  65.555  1.00  0.00    -0.307 A  
HETATM   15  C   UNL     1     -10.179  11.170  65.954  1.00  0.00    -0.303 A  
HETATM   16  C   UNL     1      -9.981  10.604  67.327  1.00  0.00    -0.224 C  
HETATM   17  C   UNL     1      -9.451  11.304  68.573  1.00  0.00    -0.191 C  
HETATM   18  C   UNL     1      -9.450  10.124  69.615  1.00  0.00    -0.200 C  
HETATM   19  N   UNL     1      -8.302   9.223  69.292  1.00  0.00    -0.119 NA 
HETATM   20  C   UNL     1     -10.736   9.216  69.436  1.00  0.00    -0.210 C  
HETATM   21  C   UNL     1     -11.282   9.879  68.048  1.00  0.00    -0.061 C  
HETATM   22  C   UNL     1      -8.188   8.329  70.449  1.00  0.00    -0.114 C  
HETATM   23  O   UNL     1      -6.823   8.020  70.575  1.00  0.00    -0.037 OA 
HETATM   24  O   UNL     1     -12.243  10.876  68.438  1.00  0.00    -0.813 OA 
HETATM   25  H   UNL     1     -12.990  10.460  68.851  1.00  0.00     0.000 HD 
HETATM   26  H   UNL     1      -6.284   8.792  70.705  1.00  0.00     0.000 HD 
ENDBRANCH   2   3
TORSDOF 1
ENDMDL
MODEL       56
REMARK 921   NORMALIZED FREE ENERGY PREDICTED BY IDOCK:   -5.40 KCAL/MOL
REMARK 922        TOTAL FREE ENERGY PREDICTED BY IDOCK:   -5.85 KCAL/MOL
REMARK 923 INTER-LIGAND FREE ENERGY PREDICTED BY IDOCK:   -5.69 KCAL/MOL
REMARK 924 INTRA-LIGAND FREE ENERGY PREDICTED BY IDOCK:   -0.16 KCAL/MOL
REMARK 927      BINDING AFFINITY PREDICTED BY RF-SCORE:    0.00 PKD
ROOT
HETATM    1  C   UNL     1     -10.360  17.529  67.144  1.00  0.00    -0.330 C  
HETATM    2  C   UNL     1     -11.146  16.752  68.198  1.00  0.00    -0.254 C  
ENDROOT
BRANCH   2   3
HETATM    3  C   UNL     1     -10.687  15.308  68.332  1.00  0.00    -0.250 C  
HETATM    4  C   UNL     1     -11.237  14.291  67.269  1.00  0.00    -0.330 C  
HETATM    5  C   UNL     1     -11.679  13.204  68.308  1.00  0.00    -0.384 C  
HETATM    6  C   UNL     1     -10.274  12.631  68.684  1.00  0.00    -0.154 C  
HETATM    7  C   UNL     1      -9.871  11.182  68.429  1.00  0.00    -0.185 C  
HETATM    8  N   UNL     1     -10.990  10.247  68.545  1.00  0.00    -0.242 NA 
HETATM    9  C   UNL     1     -11.599  10.047  69.845  1.00  0.00    -0.175 C  
HETATM   10  C   UNL     1     -10.511   9.182  67.763  1.00  0.00    -0.247 A  
HETATM   11  C   UNL     1     -10.819   7.843  67.943  1.00  0.00    -0.063 A  
HETATM   12  C   UNL     1     -10.162   6.902  67.159  1.00  0.00    -0.308 A  
HETATM   13  C   UNL     1      -9.229   7.308  66.192  1.00  0.00    -0.136 A  
HETATM   14  C   UNL     1      -8.943   8.664  65.974  1.00  0.00    -0.227 A  
HETATM   15  C   UNL     1      -9.587   9.601  66.759  1.00  0.00    -0.225 A  
HETATM   16  C   UNL     1      -9.419  11.089  66.832  1.00  0.00    -0.197 C  
HETATM   17  C   UNL     1      -8.133  11.902  66.744  1.00  0.00    -0.108 C  
HETATM   18  C   UNL     1      -8.677  13.364  66.954  1.00  0.00    -0.142 C  
HETATM   19  N   UNL     1      -9.011  13.529  68.402  1.00  0.00    -0.175 NA 
HETATM   20  C   UNL     1     -10.053  13.566  66.197  1.00  0.00    -0.307 C  
HETATM   21  C   UNL     1     -10.305  12.007  65.780  1.00  0.00    -0.254 C  
HETATM   22  C   UNL     1      -9.229  14.969  68.576  1.00  0.00    -0.192 C  
HETATM   23  O   UNL     1      -8.816  15.274  69.884  1.00  0.00    -0.399 OA 
HETATM   24  O   UNL     1      -9.782  11.867  64.448  1.00  0.00    -0.399 OA 
HETATM   25  H   UNL     1     -10.291  12.394  63.844  1.00  0.00     0.000 HD 
HETATM   26  H   UNL     1      -7.903  15.061  70.038  1.00  0.00     0.000 HD 
ENDBRANCH   2   3
TORSDOF 1
ENDMDL
MODEL       57
REMARK 921   NORMALIZED FREE ENERGY PREDICTED BY IDOCK:   -5.39 KCAL/MOL
REMARK 922        TOTAL FREE ENERGY PREDICTED BY IDOCK:   -5.83 KCAL/MOL
REMARK 923 INTER-LIGAND FREE ENERGY PREDICTED BY IDOCK:   -5.65 KCAL/MOL
REMARK 924 INTRA-LIGAND FREE ENERGY PREDICTED BY IDOCK:   -0.18 KCAL/MOL
REMARK 927      BINDING AFFINITY PREDICTED BY RF-SCORE:    0.00 PKD
ROOT
HETATM    1  C   UNL     1     -10.985   2.340  73.904  1.00  0.00    -0.272 C  
HETATM    2  C   UNL     1      -9.559   2.886  73.948  1.00  0.00    -0.120 C  
ENDROOT
BRANCH   2   3
HETATM    3  C   UNL     1      -9.381   4.142  73.108  1.00  0.00    -0.130 C  
HETATM    4  C   UNL     1     -10.690   4.836  72.589  1.00  0.00    -0.263 C  
HETATM    5  C   UNL     1     -10.215   4.972  71.101  1.00  0.00    -0.281 C  
HETATM    6  C   UNL     1      -9.204   6.153  71.268  1.00  0.00    -0.150 C  
HETATM    7  C   UNL     1      -9.378   7.500  70.574  1.00  0.00    -0.160 C  
HETATM    8  N   UNL     1     -10.017   7.393  69.264  1.00  0.00    -0.169 NA 
HETATM    9  C   UNL     1      -9.306   6.721  68.194  1.00  0.00    -0.122 C  
HETATM   10  C   UNL     1     -10.534   8.693  69.127  1.00  0.00    -0.211 A  
HETATM   11  C   UNL     1     -10.726   9.366  67.933  1.00  0.00    -0.269 A  
HETATM   12  C   UNL     1     -11.131  10.695  67.980  1.00  0.00    -0.361 A  
HETATM   13  C   UNL     1     -11.363  11.325  69.212  1.00  0.00    -0.354 A  
HETATM   14  C   UNL     1     -11.212  10.637  70.427  1.00  0.00    -0.334 A  
HETATM   15  C   UNL     1     -10.800   9.320  70.382  1.00  0.00    -0.302 A  
HETATM   16  C   UNL     1     -10.458   8.371  71.491  1.00  0.00    -0.305 C  
HETATM   17  C   UNL     1      -9.718   8.662  72.792  1.00  0.00    -0.114 C  
HETATM   18  C   UNL     1      -9.658   7.229  73.440  1.00  0.00    -0.226 C  
HETATM   19  N   UNL     1      -8.627   6.433  72.706  1.00  0.00    -0.125 NA 
HETATM   20  C   UNL     1     -11.014   6.447  73.203  1.00  0.00    -0.249 C  
HETATM   21  C   UNL     1     -11.696   7.502  72.159  1.00  0.00    -0.303 C  
HETATM   22  C   UNL     1      -8.420   5.236  73.529  1.00  0.00    -0.112 C  
HETATM   23  O   UNL     1      -7.074   4.868  73.356  1.00  0.00    -0.073 OA 
HETATM   24  O   UNL     1     -12.525   8.365  72.957  1.00  0.00    -0.648 OA 
HETATM   25  H   UNL     1     -13.236   7.866  73.340  1.00  0.00     0.000 HD 
HETATM   26  H   UNL     1      -6.472   5.554  73.620  1.00  0.00     0.000 HD 
ENDBRANCH   2   3
TORSDOF 1
ENDMDL
MODEL       58
REMARK 921   NORMALIZED FREE ENERGY PREDICTED BY IDOCK:   -5.38 KCAL/MOL
REMARK 922        TOTAL FREE ENERGY PREDICTED BY IDOCK:   -5.82 KCAL/MOL
REMARK 923 INTER-LIGAND FREE ENERGY PREDICTED BY IDOCK:   -5.66 KCAL/MOL
REMARK 924 INTRA-LIGAND FREE ENERGY PREDICTED BY IDOCK:   -0.16 KCAL/MOL
REMARK 927      BINDING AFFINITY PREDICTED BY RF-SCORE:    0.00 PKD
ROOT
HETATM    1  C   UNL     1     -12.939  15.751  71.424  1.00  0.00    -0.478 C  
HETATM    2  C   UNL     1     -11.687  16.436  70.881  1.00  0.00    -0.120 C  
ENDROOT
BRANCH   2   3
HETATM    3  C   UNL     1     -11.063  15.686  69.712  1.00  0.00    -0.315 C  
HETATM    4  C   UNL     1     -10.931  14.129  69.863  1.00  0.00    -0.000 C  
HETATM    5  C   UNL     1      -9.429  14.057  69.422  1.00  0.00     0.514 C  
HETATM    6  C   UNL     1      -9.609  14.272  67.884  1.00  0.00    -0.221 C  
HETATM    7  C   UNL     1      -9.210  13.227  66.846  1.00  0.00    -0.241 C  
HETATM    8  N   UNL     1      -8.046  12.438  67.244  1.00  0.00    -0.177 NA 
HETATM    9  C   UNL     1      -6.759  13.098  67.350  1.00  0.00    -0.096 C  
HETATM   10  C   UNL     1      -8.241  11.286  66.462  1.00  0.00    -0.165 A  
HETATM   11  C   UNL     1      -7.242  10.463  65.969  1.00  0.00    -0.134 A  
HETATM   12  C   UNL     1      -7.599   9.433  65.107  1.00  0.00    -0.108 A  
HETATM   13  C   UNL     1      -8.945   9.221  64.771  1.00  0.00    -0.217 A  
HETATM   14  C   UNL     1      -9.968  10.024  65.300  1.00  0.00    -0.368 A  
HETATM   15  C   UNL     1      -9.614  11.055  66.148  1.00  0.00    -0.240 A  
HETATM   16  C   UNL     1     -10.453  12.125  66.779  1.00  0.00    -0.245 C  
HETATM   17  C   UNL     1     -11.622  12.892  66.173  1.00  0.00    -0.423 C  
HETATM   18  C   UNL     1     -11.983  13.881  67.344  1.00  0.00    -0.401 C  
HETATM   19  N   UNL     1     -10.939  14.950  67.384  1.00  0.00    -0.305 NA 
HETATM   20  C   UNL     1     -11.871  13.155  68.747  1.00  0.00    -0.361 C  
HETATM   21  C   UNL     1     -11.178  11.772  68.224  1.00  0.00    -0.255 C  
HETATM   22  C   UNL     1     -11.484  15.973  68.284  1.00  0.00    -0.291 C  
HETATM   23  O   UNL     1     -10.999  17.207  67.817  1.00  0.00    -0.315 OA 
HETATM   24  O   UNL     1     -12.257  10.844  68.016  1.00  0.00    -0.695 OA 
HETATM   25  H   UNL     1     -12.673  10.642  68.845  1.00  0.00     0.000 HD 
HETATM   26  H   UNL     1     -11.261  17.386  66.921  1.00  0.00     0.000 HD 
ENDBRANCH   2   3
TORSDOF 1
ENDMDL
MODEL       59
REMARK 921   NORMALIZED FREE ENERGY PREDICTED BY IDOCK:   -5.35 KCAL/MOL
REMARK 922        TOTAL FREE ENERGY PREDICTED BY IDOCK:   -5.79 KCAL/MOL
REMARK 923 INTER-LIGAND FREE ENERGY PREDICTED BY IDOCK:   -5.62 KCAL/MOL
REMARK 924 INTRA-LIGAND FREE ENERGY PREDICTED BY IDOCK:   -0.17 KCAL/MOL
REMARK 927      BINDING AFFINITY PREDICTED BY RF-SCORE:    0.00 PKD
ROOT
HETATM    1  C   UNL     1     -10.468  11.318  63.693  1.00  0.00    -0.464 C  
HETATM    2  C   UNL     1     -10.166  12.236  64.875  1.00  0.00    -0.307 C  
ENDROOT
BRANCH   2   3
HETATM    3  C   UNL     1     -10.005  11.480  66.186  1.00  0.00    -0.257 C  
HETATM    4  C   UNL     1     -10.880  10.188  66.367  1.00  0.00     0.006 C  
HETATM    5  C   UNL     1     -11.410  10.559  67.795  1.00  0.00    -0.267 C  
HETATM    6  C   UNL     1     -10.120  10.258  68.626  1.00  0.00    -0.174 C  
HETATM    7  C   UNL     1     -10.062   9.193  69.716  1.00  0.00    -0.199 C  
HETATM    8  N   UNL     1     -11.328   9.034  70.430  1.00  0.00    -0.242 NA 
HETATM    9  C   UNL     1     -11.804  10.124  71.258  1.00  0.00    -0.360 C  
HETATM   10  C   UNL     1     -11.181   7.724  70.918  1.00  0.00    -0.271 A  
HETATM   11  C   UNL     1     -11.737   7.228  72.086  1.00  0.00    -0.323 A  
HETATM   12  C   UNL     1     -11.390   5.944  72.490  1.00  0.00    -0.352 A  
HETATM   13  C   UNL     1     -10.518   5.165  71.714  1.00  0.00    -0.268 A  
HETATM   14  C   UNL     1      -9.983   5.644  70.508  1.00  0.00    -0.265 A  
HETATM   15  C   UNL     1     -10.318   6.924  70.110  1.00  0.00    -0.218 A  
HETATM   16  C   UNL     1      -9.836   7.737  68.946  1.00  0.00    -0.166 C  
HETATM   17  C   UNL     1      -8.429   7.818  68.366  1.00  0.00    -0.125 C  
HETATM   18  C   UNL     1      -8.627   8.884  67.225  1.00  0.00    -0.118 C  
HETATM   19  N   UNL     1      -8.742  10.230  67.865  1.00  0.00    -0.122 NA 
HETATM   20  C   UNL     1     -10.012   8.669  66.488  1.00  0.00    -0.353 C  
HETATM   21  C   UNL     1     -10.632   7.554  67.508  1.00  0.00    -0.261 C  
HETATM   22  C   UNL     1      -8.632  11.185  66.756  1.00  0.00    -0.157 C  
HETATM   23  O   UNL     1      -8.009  12.329  67.283  1.00  0.00    -0.163 OA 
HETATM   24  O   UNL     1     -10.316   6.275  66.933  1.00  0.00    -0.196 OA 
HETATM   25  H   UNL     1     -10.773   6.170  66.107  1.00  0.00     0.000 HD 
HETATM   26  H   UNL     1      -7.148  12.145  67.641  1.00  0.00     0.000 HD 
ENDBRANCH   2   3
TORSDOF 1
ENDMDL
MODEL       60
REMARK 921   NORMALIZED FREE ENERGY PREDICTED BY IDOCK:   -5.33 KCAL/MOL
REMARK 922        TOTAL FREE ENERGY PREDICTED BY IDOCK:   -5.77 KCAL/MOL
REMARK 923 INTER-LIGAND FREE ENERGY PREDICTED BY IDOCK:   -5.60 KCAL/MOL
REMARK 924 INTRA-LIGAND FREE ENERGY PREDICTED BY IDOCK:   -0.16 KCAL/MOL
REMARK 927      BINDING AFFINITY PREDICTED BY RF-SCORE:    0.00 PKD
ROOT
HETATM    1  C   UNL     1      -9.976   6.706  67.390  1.00  0.00    -0.185 C  
HETATM    2  C   UNL     1      -9.192   7.327  68.545  1.00  0.00    -0.138 C  
ENDROOT
BRANCH   2   3
HETATM    3  C   UNL     1      -9.291   8.845  68.578  1.00  0.00    -0.141 C  
HETATM    4  C   UNL     1      -9.178   9.590  67.201  1.00  0.00    -0.158 C  
HETATM    5  C   UNL     1      -8.118  10.641  67.679  1.00  0.00    -0.107 C  
HETATM    6  C   UNL     1      -9.049  11.565  68.531  1.00  0.00    -0.157 C  
HETATM    7  C   UNL     1      -9.288  13.035  68.201  1.00  0.00    -0.217 C  
HETATM    8  N   UNL     1      -8.125  13.685  67.601  1.00  0.00    -0.163 NA 
HETATM    9  C   UNL     1      -6.934  13.867  68.408  1.00  0.00    -0.102 C  
HETATM   10  C   UNL     1      -8.748  14.749  66.927  1.00  0.00    -0.236 A  
HETATM   11  C   UNL     1      -8.184  15.988  66.671  1.00  0.00    -0.324 A  
HETATM   12  C   UNL     1      -8.982  16.974  66.102  1.00  0.00    -0.243 A  
HETATM   13  C   UNL     1     -10.319  16.705  65.772  1.00  0.00    -0.338 A  
HETATM   14  C   UNL     1     -10.887  15.439  65.989  1.00  0.00    -0.315 A  
HETATM   15  C   UNL     1     -10.099  14.462  66.564  1.00  0.00    -0.281 A  
HETATM   16  C   UNL     1     -10.443  13.071  67.004  1.00  0.00    -0.249 C  
HETATM   17  C   UNL     1     -11.718  12.580  67.680  1.00  0.00    -0.423 C  
HETATM   18  C   UNL     1     -11.381  11.060  67.910  1.00  0.00    -0.311 C  
HETATM   19  N   UNL     1     -10.412  10.967  69.044  1.00  0.00    -0.212 NA 
HETATM   20  C   UNL     1     -10.603  10.463  66.667  1.00  0.00    -0.245 C  
HETATM   21  C   UNL     1     -10.344  11.867  65.875  1.00  0.00    -0.242 C  
HETATM   22  C   UNL     1     -10.368   9.542  69.387  1.00  0.00    -0.214 C  
HETATM   23  O   UNL     1     -10.130   9.477  70.771  1.00  0.00    -0.279 OA 
HETATM   24  O   UNL     1     -11.422  11.992  64.931  1.00  0.00    -0.324 OA 
HETATM   25  H   UNL     1     -11.364  11.301  64.282  1.00  0.00     0.000 HD 
HETATM   26  H   UNL     1     -10.804   9.914  71.278  1.00  0.00     0.000 HD 
ENDBRANCH   2   3
TORSDOF 1
ENDMDL
MODEL       61
REMARK 921   NORMALIZED FREE ENERGY PREDICTED BY IDOCK:   -5.29 KCAL/MOL
REMARK 922        TOTAL FREE ENERGY PREDICTED BY IDOCK:   -5.73 KCAL/MOL
REMARK 923 INTER-LIGAND FREE ENERGY PREDICTED BY IDOCK:   -5.62 KCAL/MOL
REMARK 924 INTRA-LIGAND FREE ENERGY PREDICTED BY IDOCK:   -0.11 KCAL/MOL
REMARK 927      BINDING AFFINITY PREDICTED BY RF-SCORE:    0.00 PKD
ROOT
HETATM    1  C   UNL     1     -11.871  15.646  68.966  1.00  0.00    -0.379 C  
HETATM    2  C   UNL     1     -11.542  14.963  67.640  1.00  0.00    -0.357 C  
ENDROOT
BRANCH   2   3
HETATM    3  C   UNL     1     -10.880  13.605  67.824  1.00  0.00    -0.266 C  
HETATM    4  C   UNL     1     -11.419  12.430  66.933  1.00  0.00    -0.423 C  
HETATM    5  C   UNL     1     -11.576  11.404  68.107  1.00  0.00    -0.364 C  
HETATM    6  C   UNL     1     -10.071  11.046  68.329  1.00  0.00    -0.177 C  
HETATM    7  C   UNL     1      -9.513   9.639  68.138  1.00  0.00    -0.132 C  
HETATM    8  N   UNL     1     -10.472   8.590  68.481  1.00  0.00    -0.196 NA 
HETATM    9  C   UNL     1     -10.879   8.444  69.865  1.00  0.00    -0.207 C  
HETATM   10  C   UNL     1      -9.958   7.520  67.728  1.00  0.00    -0.171 A  
HETATM   11  C   UNL     1     -10.058   6.178  68.055  1.00  0.00    -0.178 A  
HETATM   12  C   UNL     1      -9.386   5.253  67.266  1.00  0.00    -0.123 A  
HETATM   13  C   UNL     1      -8.646   5.673  66.150  1.00  0.00    -0.132 A  
HETATM   14  C   UNL     1      -8.574   7.027  65.787  1.00  0.00    -0.138 A  
HETATM   15  C   UNL     1      -9.233   7.949  66.576  1.00  0.00    -0.238 A  
HETATM   16  C   UNL     1      -9.258   9.447  66.506  1.00  0.00    -0.202 C  
HETATM   17  C   UNL     1      -8.114  10.399  66.176  1.00  0.00    -0.139 C  
HETATM   18  C   UNL     1      -8.818  11.797  66.342  1.00  0.00    -0.170 C  
HETATM   19  N   UNL     1      -8.986  12.059  67.804  1.00  0.00    -0.169 NA 
HETATM   20  C   UNL     1     -10.294  11.755  65.769  1.00  0.00    -0.293 C  
HETATM   21  C   UNL     1     -10.386  10.144  65.516  1.00  0.00    -0.126 C  
HETATM   22  C   UNL     1      -9.371  13.472  67.891  1.00  0.00    -0.215 C  
HETATM   23  O   UNL     1      -8.841  13.951  69.102  1.00  0.00    -0.363 OA 
HETATM   24  O   UNL     1     -10.022   9.940  64.140  1.00  0.00    -0.457 OA 
HETATM   25  H   UNL     1     -10.669  10.340  63.572  1.00  0.00     0.000 HD 
HETATM   26  H   UNL     1      -7.895  13.867  69.144  1.00  0.00     0.000 HD 
ENDBRANCH   2   3
TORSDOF 1
ENDMDL
MODEL       62
REMARK 921   NORMALIZED FREE ENERGY PREDICTED BY IDOCK:   -5.28 KCAL/MOL
REMARK 922        TOTAL FREE ENERGY PREDICTED BY IDOCK:   -5.72 KCAL/MOL
REMARK 923 INTER-LIGAND FREE ENERGY PREDICTED BY IDOCK:   -5.57 KCAL/MOL
REMARK 924 INTRA-LIGAND FREE ENERGY PREDICTED BY IDOCK:   -0.15 KCAL/MOL
REMARK 927      BINDING AFFINITY PREDICTED BY RF-SCORE:    0.00 PKD
ROOT
HETATM    1  C   UNL     1      -5.898   7.161  70.068  1.00  0.00    -0.024 C  
HETATM    2  C   UNL     1      -6.533   8.458  70.567  1.00  0.00    -0.036 C  
ENDROOT
BRANCH   2   3
HETATM    3  C   UNL     1      -7.696   8.918  69.700  1.00  0.00    -0.078 C  
HETATM    4  C   UNL     1      -7.402  10.076  68.682  1.00  0.00    -0.081 C  
HETATM    5  C   UNL     1      -8.645  10.947  69.075  1.00  0.00    -0.110 C  
HETATM    6  C   UNL     1      -9.767  10.110  68.378  1.00  0.00    -0.147 C  
HETATM    7  C   UNL     1     -10.644  10.663  67.259  1.00  0.00    -0.263 C  
HETATM    8  N   UNL     1     -10.911  12.094  67.393  1.00  0.00    -0.236 NA 
HETATM    9  C   UNL     1     -11.718  12.551  68.508  1.00  0.00    -0.324 C  
HETATM   10  C   UNL     1     -11.210  12.423  66.060  1.00  0.00    -0.335 A  
HETATM   11  C   UNL     1     -12.064  13.431  65.647  1.00  0.00    -0.476 A  
HETATM   12  C   UNL     1     -12.347  13.544  64.290  1.00  0.00    -0.392 A  
HETATM   13  C   UNL     1     -11.757  12.670  63.365  1.00  0.00    -0.571 A  
HETATM   14  C   UNL     1     -10.857  11.672  63.771  1.00  0.00    -0.493 A  
HETATM   15  C   UNL     1     -10.582  11.552  65.119  1.00  0.00    -0.350 A  
HETATM   16  C   UNL     1      -9.759  10.539  65.856  1.00  0.00    -0.270 C  
HETATM   17  C   UNL     1      -9.647   9.040  65.599  1.00  0.00    -0.237 C  
HETATM   18  C   UNL     1      -8.681   8.599  66.760  1.00  0.00    -0.124 C  
HETATM   19  N   UNL     1      -9.459   8.604  68.036  1.00  0.00    -0.139 NA 
HETATM   20  C   UNL     1      -7.539   9.673  66.981  1.00  0.00    -0.095 C  
HETATM   21  C   UNL     1      -8.138  10.835  66.002  1.00  0.00    -0.158 C  
HETATM   22  C   UNL     1      -8.598   7.917  69.005  1.00  0.00    -0.135 C  
HETATM   23  O   UNL     1      -9.459   7.256  69.898  1.00  0.00    -0.158 OA 
HETATM   24  O   UNL     1      -7.491  10.651  64.730  1.00  0.00    -0.343 OA 
HETATM   25  H   UNL     1      -6.561  10.821  64.814  1.00  0.00     0.000 HD 
HETATM   26  H   UNL     1     -10.025   6.629  69.463  1.00  0.00     0.000 HD 
ENDBRANCH   2   3
TORSDOF 1
ENDMDL
MODEL       63
REMARK 921   NORMALIZED FREE ENERGY PREDICTED BY IDOCK:   -5.18 KCAL/MOL
REMARK 922        TOTAL FREE ENERGY PREDICTED BY IDOCK:   -5.62 KCAL/MOL
REMARK 923 INTER-LIGAND FREE ENERGY PREDICTED BY IDOCK:   -5.47 KCAL/MOL
REMARK 924 INTRA-LIGAND FREE ENERGY PREDICTED BY IDOCK:   -0.14 KCAL/MOL
REMARK 927      BINDING AFFINITY PREDICTED BY RF-SCORE:    0.00 PKD
ROOT
HETATM    1  C   UNL     1     -10.373   9.166  68.117  1.00  0.00    -0.263 C  
HETATM    2  C   UNL     1     -10.660   9.810  66.762  1.00  0.00    -0.208 C  
ENDROOT
BRANCH   2   3
HETATM    3  C   UNL     1     -10.868  11.314  66.855  1.00  0.00    -0.333 C  
HETATM    4  C   UNL     1      -9.748  12.139  67.582  1.00  0.00    -0.188 C  
HETATM    5  C   UNL     1     -10.723  12.948  68.504  1.00  0.00    -0.275 C  
HETATM    6  C   UNL     1     -11.297  13.946  67.445  1.00  0.00    -0.326 C  
HETATM    7  C   UNL     1     -11.113  15.457  67.542  1.00  0.00    -0.315 C  
HETATM    8  N   UNL     1     -11.078  15.944  68.920  1.00  0.00    -0.294 NA 
HETATM    9  C   UNL     1     -12.282  15.851  69.722  1.00  0.00    -0.136 C  
HETATM   10  C   UNL     1     -10.380  17.151  68.745  1.00  0.00    -0.353 A  
HETATM   11  C   UNL     1     -10.526  18.291  69.518  1.00  0.00     0.570 A  
HETATM   12  C   UNL     1      -9.849  19.443  69.134  1.00  0.00    -0.425 A  
HETATM   13  C   UNL     1      -9.019  19.436  68.002  1.00  0.00    -0.371 A  
HETATM   14  C   UNL     1      -8.832  18.274  67.238  1.00  0.00    -0.255 A  
HETATM   15  C   UNL     1      -9.512  17.131  67.612  1.00  0.00    -0.241 A  
HETATM   16  C   UNL     1      -9.595  15.789  66.949  1.00  0.00    -0.243 C  
HETATM   17  C   UNL     1      -9.681  15.473  65.460  1.00  0.00    -0.307 C  
HETATM   18  C   UNL     1      -9.802  13.903  65.485  1.00  0.00    -0.185 C  
HETATM   19  N   UNL     1     -11.186  13.553  65.925  1.00  0.00    -0.299 NA 
HETATM   20  C   UNL     1      -8.858  13.285  66.596  1.00  0.00    -0.072 C  
HETATM   21  C   UNL     1      -8.422  14.683  67.318  1.00  0.00    -0.215 C  
HETATM   22  C   UNL     1     -11.317  12.118  65.649  1.00  0.00    -0.347 C  
HETATM   23  O   UNL     1     -12.668  11.900  65.328  1.00  0.00    -0.104 OA 
HETATM   24  O   UNL     1      -7.177  15.069  66.710  1.00  0.00    -0.287 OA 
HETATM   25  H   UNL     1      -6.503  14.434  66.922  1.00  0.00     0.000 HD 
HETATM   26  H   UNL     1     -12.949  12.403  64.573  1.00  0.00     0.000 HD 
ENDBRANCH   2   3
TORSDOF 1
ENDMDL
MODEL       64
REMARK 921   NORMALIZED FREE ENERGY PREDICTED BY IDOCK:   -5.18 KCAL/MOL
REMARK 922        TOTAL FREE ENERGY PREDICTED BY IDOCK:   -5.61 KCAL/MOL
REMARK 923 INTER-LIGAND FREE ENERGY PREDICTED BY IDOCK:   -5.44 KCAL/MOL
REMARK 924 INTRA-LIGAND FREE ENERGY PREDICTED BY IDOCK:   -0.17 KCAL/MOL
REMARK 927      BINDING AFFINITY PREDICTED BY RF-SCORE:    0.00 PKD
ROOT
HETATM    1  C   UNL     1      -5.266  12.889  71.317  1.00  0.00    -0.172 C  
HETATM    2  C   UNL     1      -5.755  12.219  70.035  1.00  0.00    -0.141 C  
ENDROOT
BRANCH   2   3
HETATM    3  C   UNL     1      -6.337  13.209  69.036  1.00  0.00    -0.099 C  
HETATM    4  C   UNL     1      -6.981  14.512  69.628  1.00  0.00    -0.122 C  
HETATM    5  C   UNL     1      -8.310  14.418  68.801  1.00  0.00    -0.126 C  
HETATM    6  C   UNL     1      -7.768  14.867  67.405  1.00  0.00    -0.204 C  
HETATM    7  C   UNL     1      -8.261  16.118  66.685  1.00  0.00    -0.286 C  
HETATM    8  N   UNL     1      -9.669  16.412  66.943  1.00  0.00    -0.244 NA 
HETATM    9  C   UNL     1     -10.675  15.497  66.439  1.00  0.00    -0.303 C  
HETATM   10  C   UNL     1      -9.696  17.789  66.667  1.00  0.00    -0.313 A  
HETATM   11  C   UNL     1     -10.784  18.497  66.184  1.00  0.00    -0.243 A  
HETATM   12  C   UNL     1     -10.607  19.834  65.846  1.00  0.00    -0.557 A  
HETATM   13  C   UNL     1      -9.358  20.451  66.017  1.00  0.00    -0.134 A  
HETATM   14  C   UNL     1      -8.261  19.752  66.545  1.00  0.00    -0.363 A  
HETATM   15  C   UNL     1      -8.433  18.422  66.872  1.00  0.00    -0.272 A  
HETATM   16  C   UNL     1      -7.443  17.403  67.351  1.00  0.00    -0.201 C  
HETATM   17  C   UNL     1      -5.995  17.212  66.914  1.00  0.00    -0.224 C  
HETATM   18  C   UNL     1      -5.582  15.950  67.761  1.00  0.00    -0.143 C  
HETATM   19  N   UNL     1      -6.220  14.749  67.142  1.00  0.00    -0.132 NA 
HETATM   20  C   UNL     1      -6.195  16.026  69.219  1.00  0.00    -0.151 C  
HETATM   21  C   UNL     1      -7.170  17.314  68.980  1.00  0.00    -0.227 C  
HETATM   22  C   UNL     1      -5.572  13.603  67.788  1.00  0.00    -0.071 C  
HETATM   23  O   UNL     1      -5.539  12.576  66.829  1.00  0.00    -0.453 OA 
HETATM   24  O   UNL     1      -6.421  18.461  69.415  1.00  0.00    -0.264 OA 
HETATM   25  H   UNL     1      -6.264  18.410  70.350  1.00  0.00     0.000 HD 
HETATM   26  H   UNL     1      -5.059  12.824  66.046  1.00  0.00     0.000 HD 
ENDBRANCH   2   3
TORSDOF 1
ENDMDL
MODEL       65
REMARK 921   NORMALIZED FREE ENERGY PREDICTED BY IDOCK:   -5.16 KCAL/MOL
REMARK 922        TOTAL FREE ENERGY PREDICTED BY IDOCK:   -5.59 KCAL/MOL
REMARK 923 INTER-LIGAND FREE ENERGY PREDICTED BY IDOCK:   -5.46 KCAL/MOL
REMARK 924 INTRA-LIGAND FREE ENERGY PREDICTED BY IDOCK:   -0.13 KCAL/MOL
REMARK 927      BINDING AFFINITY PREDICTED BY RF-SCORE:    0.00 PKD
ROOT
HETATM    1  C   UNL     1     -10.931   5.824  67.444  1.00  0.00    -0.164 C  
HETATM    2  C   UNL     1      -9.935   6.782  68.094  1.00  0.00    -0.161 C  
ENDROOT
BRANCH   2   3
HETATM    3  C   UNL     1      -9.851   8.122  67.378  1.00  0.00    -0.242 C  
HETATM    4  C   UNL     1     -10.019   9.407  68.263  1.00  0.00    -0.197 C  
HETATM    5  C   UNL     1     -11.074  10.100  67.333  1.00  0.00    -0.219 C  
HETATM    6  C   UNL     1     -10.124  10.561  66.179  1.00  0.00    -0.246 C  
HETATM    7  C   UNL     1      -9.912  12.026  65.812  1.00  0.00    -0.241 C  
HETATM    8  N   UNL     1     -11.102  12.848  66.021  1.00  0.00    -0.276 NA 
HETATM    9  C   UNL     1     -12.266  12.614  65.189  1.00  0.00    -0.481 C  
HETATM   10  C   UNL     1     -10.513  14.118  66.155  1.00  0.00    -0.296 A  
HETATM   11  C   UNL     1     -11.099  15.323  65.805  1.00  0.00    -0.301 A  
HETATM   12  C   UNL     1     -10.332  16.479  65.886  1.00  0.00    -0.365 A  
HETATM   13  C   UNL     1      -9.004  16.422  66.336  1.00  0.00    -0.340 A  
HETATM   14  C   UNL     1      -8.416  15.211  66.732  1.00  0.00    -0.272 A  
HETATM   15  C   UNL     1      -9.173  14.059  66.643  1.00  0.00    -0.262 A  
HETATM   16  C   UNL     1      -8.799  12.629  66.891  1.00  0.00    -0.201 C  
HETATM   17  C   UNL     1      -7.496  11.918  66.545  1.00  0.00     0.158 C  
HETATM   18  C   UNL     1      -7.810  10.450  67.021  1.00  0.00    -0.112 C  
HETATM   19  N   UNL     1      -8.738   9.830  66.028  1.00  0.00    -0.138 NA 
HETATM   20  C   UNL     1      -8.623  10.462  68.380  1.00  0.00    -0.128 C  
HETATM   21  C   UNL     1      -8.924  12.066  68.441  1.00  0.00    -0.153 C  
HETATM   22  C   UNL     1      -8.755   8.403  66.369  1.00  0.00    -0.139 C  
HETATM   23  O   UNL     1      -8.944   7.712  65.160  1.00  0.00    -0.377 OA 
HETATM   24  O   UNL     1      -7.881  12.632  69.253  1.00  0.00    -0.304 OA 
HETATM   25  H   UNL     1      -7.953  12.309  70.143  1.00  0.00     0.000 HD 
HETATM   26  H   UNL     1      -8.258   7.888  64.527  1.00  0.00     0.000 HD 
ENDBRANCH   2   3
TORSDOF 1
ENDMDL
MODEL       66
REMARK 921   NORMALIZED FREE ENERGY PREDICTED BY IDOCK:   -5.10 KCAL/MOL
REMARK 922        TOTAL FREE ENERGY PREDICTED BY IDOCK:   -5.52 KCAL/MOL
REMARK 923 INTER-LIGAND FREE ENERGY PREDICTED BY IDOCK:   -5.36 KCAL/MOL
REMARK 924 INTRA-LIGAND FREE ENERGY PREDICTED BY IDOCK:   -0.16 KCAL/MOL
REMARK 927      BINDING AFFINITY PREDICTED BY RF-SCORE:    0.00 PKD
ROOT
HETATM    1  C   UNL     1      -7.626   5.093  68.628  1.00  0.00    -0.078 C  
HETATM    2  C   UNL     1      -7.045   5.408  67.252  1.00  0.00    -0.070 C  
ENDROOT
BRANCH   2   3
HETATM    3  C   UNL     1      -7.409   6.802  66.761  1.00  0.00    -0.081 C  
HETATM    4  C   UNL     1      -8.938   7.150  66.694  1.00  0.00    -0.164 C  
HETATM    5  C   UNL     1      -8.902   7.727  65.237  1.00  0.00     0.073 C  
HETATM    6  C   UNL     1      -8.217   9.102  65.530  1.00  0.00    -0.123 C  
HETATM    7  C   UNL     1      -8.896  10.442  65.267  1.00  0.00    -0.186 C  
HETATM    8  N   UNL     1      -9.795  10.414  64.115  1.00  0.00    -0.328 NA 
HETATM    9  C   UNL     1      -9.228  10.229  62.793  1.00  0.00    -0.297 C  
HETATM   10  C   UNL     1     -10.643  11.490  64.428  1.00  0.00    -0.334 A  
HETATM   11  C   UNL     1     -11.293  12.302  63.514  1.00  0.00    -0.549 A  
HETATM   12  C   UNL     1     -11.998  13.402  63.989  1.00  0.00    -0.520 A  
HETATM   13  C   UNL     1     -12.066  13.663  65.366  1.00  0.00    -0.429 A  
HETATM   14  C   UNL     1     -11.445  12.821  66.302  1.00  0.00    -0.405 A  
HETATM   15  C   UNL     1     -10.736  11.733  65.832  1.00  0.00    -0.328 A  
HETATM   16  C   UNL     1      -9.897  10.730  66.564  1.00  0.00    -0.246 C  
HETATM   17  C   UNL     1      -8.954  10.962  67.739  1.00  0.00    -0.139 C  
HETATM   18  C   UNL     1      -8.370   9.516  67.956  1.00  0.00    -0.118 C  
HETATM   19  N   UNL     1      -7.389   9.245  66.861  1.00  0.00    -0.090 NA 
HETATM   20  C   UNL     1      -9.497   8.420  67.766  1.00  0.00    -0.171 C  
HETATM   21  C   UNL     1     -10.664   9.404  67.186  1.00  0.00    -0.163 C  
HETATM   22  C   UNL     1      -6.684   8.028  67.281  1.00  0.00    -0.065 C  
HETATM   23  O   UNL     1      -5.377   8.137  66.775  1.00  0.00    -0.030 OA 
HETATM   24  O   UNL     1     -11.458   9.786  68.323  1.00  0.00    -0.519 OA 
HETATM   25  H   UNL     1     -11.899   9.025  68.680  1.00  0.00     0.000 HD 
HETATM   26  H   UNL     1      -4.922   8.905  67.100  1.00  0.00     0.000 HD 
ENDBRANCH   2   3
TORSDOF 1
ENDMDL
MODEL       67
REMARK 921   NORMALIZED FREE ENERGY PREDICTED BY IDOCK:   -5.04 KCAL/MOL
REMARK 922        TOTAL FREE ENERGY PREDICTED BY IDOCK:   -5.47 KCAL/MOL
REMARK 923 INTER-LIGAND FREE ENERGY PREDICTED BY IDOCK:   -5.29 KCAL/MOL
REMARK 924 INTRA-LIGAND FREE ENERGY PREDICTED BY IDOCK:   -0.18 KCAL/MOL
REMARK 927      BINDING AFFINITY PREDICTED BY RF-SCORE:    0.00 PKD
ROOT
HETATM    1  C   UNL     1     -12.196  15.516  70.699  1.00  0.00    -0.445 C  
HETATM    2  C   UNL     1     -11.844  16.138  69.349  1.00  0.00    -0.154 C  
ENDROOT
BRANCH   2   3
HETATM    3  C   UNL     1     -11.036  15.205  68.461  1.00  0.00    -0.263 C  
HETATM    4  C   UNL     1     -10.828  13.738  68.981  1.00  0.00    -0.247 C  
HETATM    5  C   UNL     1      -9.281  13.702  68.732  1.00  0.00     0.046 C  
HETATM    6  C   UNL     1      -9.282  13.551  67.176  1.00  0.00    -0.236 C  
HETATM    7  C   UNL     1      -8.694  12.341  66.458  1.00  0.00    -0.084 C  
HETATM    8  N   UNL     1      -7.542  11.766  67.150  1.00  0.00    -0.149 NA 
HETATM    9  C   UNL     1      -6.321  12.544  67.237  1.00  0.00    -0.123 C  
HETATM   10  C   UNL     1      -7.568  10.456  66.641  1.00  0.00    -0.114 A  
HETATM   11  C   UNL     1      -6.467   9.635  66.462  1.00  0.00    -0.070 A  
HETATM   12  C   UNL     1      -6.651   8.411  65.830  1.00  0.00    -0.053 A  
HETATM   13  C   UNL     1      -7.929   8.011  65.409  1.00  0.00    -0.121 A  
HETATM   14  C   UNL     1      -9.056   8.819  65.625  1.00  0.00    -0.247 A  
HETATM   15  C   UNL     1      -8.874  10.040  66.244  1.00  0.00    -0.160 A  
HETATM   16  C   UNL     1      -9.849  11.146  66.516  1.00  0.00    -0.242 C  
HETATM   17  C   UNL     1     -10.979  11.653  65.627  1.00  0.00    -0.322 C  
HETATM   18  C   UNL     1     -11.542  12.842  66.491  1.00  0.00    -0.371 C  
HETATM   19  N   UNL     1     -10.579  13.981  66.394  1.00  0.00    -0.278 NA 
HETATM   20  C   UNL     1     -11.561  12.461  68.028  1.00  0.00    -0.403 C  
HETATM   21  C   UNL     1     -10.725  11.063  67.917  1.00  0.00    -0.219 C  
HETATM   22  C   UNL     1     -11.292  15.127  66.968  1.00  0.00    -0.277 C  
HETATM   23  O   UNL     1     -10.829  16.263  66.282  1.00  0.00    -0.231 OA 
HETATM   24  O   UNL     1     -11.711  10.021  67.816  1.00  0.00    -0.525 OA 
HETATM   25  H   UNL     1     -12.213   9.972  68.621  1.00  0.00     0.000 HD 
HETATM   26  H   UNL     1     -10.990  16.215  65.346  1.00  0.00     0.000 HD 
ENDBRANCH   2   3
TORSDOF 1
ENDMDL
MODEL       68
REMARK 921   NORMALIZED FREE ENERGY PREDICTED BY IDOCK:   -5.02 KCAL/MOL
REMARK 922        TOTAL FREE ENERGY PREDICTED BY IDOCK:   -5.45 KCAL/MOL
REMARK 923 INTER-LIGAND FREE ENERGY PREDICTED BY IDOCK:   -5.61 KCAL/MOL
REMARK 924 INTRA-LIGAND FREE ENERGY PREDICTED BY IDOCK:    0.17 KCAL/MOL
REMARK 927      BINDING AFFINITY PREDICTED BY RF-SCORE:    0.00 PKD
ROOT
HETATM    1  C   UNL     1      -6.329   5.216  64.885  1.00  0.00    -0.034 C  
HETATM    2  C   UNL     1      -6.140   6.241  66.002  1.00  0.00    -0.033 C  
ENDROOT
BRANCH   2   3
HETATM    3  C   UNL     1      -7.451   6.644  66.661  1.00  0.00    -0.079 C  
HETATM    4  C   UNL     1      -7.351   7.578  67.919  1.00  0.00    -0.099 C  
HETATM    5  C   UNL     1      -8.308   6.725  68.822  1.00  0.00    -0.121 C  
HETATM    6  C   UNL     1      -9.676   7.115  68.173  1.00  0.00    -0.139 C  
HETATM    7  C   UNL     1     -10.783   7.837  68.936  1.00  0.00    -0.085 C  
HETATM    8  N   UNL     1     -10.831   7.478  70.353  1.00  0.00    -0.240 NA 
HETATM    9  C   UNL     1     -11.204   6.125  70.717  1.00  0.00    -0.306 C  
HETATM   10  C   UNL     1     -11.482   8.608  70.878  1.00  0.00    -0.275 A  
HETATM   11  C   UNL     1     -12.300   8.624  71.995  1.00  0.00    -0.435 A  
HETATM   12  C   UNL     1     -12.967   9.802  72.309  1.00  0.00    -0.420 A  
HETATM   13  C   UNL     1     -12.790  10.952  71.524  1.00  0.00    -0.560 A  
HETATM   14  C   UNL     1     -11.930  10.955  70.415  1.00  0.00    -0.453 A  
HETATM   15  C   UNL     1     -11.274   9.783  70.095  1.00  0.00    -0.324 A  
HETATM   16  C   UNL     1     -10.386   9.452  68.933  1.00  0.00    -0.230 C  
HETATM   17  C   UNL     1     -10.530   9.885  67.479  1.00  0.00    -0.310 C  
HETATM   18  C   UNL     1      -9.313   9.139  66.813  1.00  0.00    -0.165 C  
HETATM   19  N   UNL     1      -9.661   7.690  66.708  1.00  0.00    -0.195 NA 
HETATM   20  C   UNL     1      -8.043   9.181  67.759  1.00  0.00    -0.105 C  
HETATM   21  C   UNL     1      -8.775   9.796  69.083  1.00  0.00    -0.155 C  
HETATM   22  C   UNL     1      -8.630   7.118  65.834  1.00  0.00    -0.148 C  
HETATM   23  O   UNL     1      -9.249   6.072  65.127  1.00  0.00    -0.364 OA 
HETATM   24  O   UNL     1      -8.571  11.218  69.021  1.00  0.00    -0.335 OA 
HETATM   25  H   UNL     1      -7.646  11.416  69.107  1.00  0.00     0.000 HD 
HETATM   26  H   UNL     1      -9.988   6.369  64.609  1.00  0.00     0.000 HD 
ENDBRANCH   2   3
TORSDOF 1
ENDMDL
MODEL       69
REMARK 921   NORMALIZED FREE ENERGY PREDICTED BY IDOCK:   -5.01 KCAL/MOL
REMARK 922        TOTAL FREE ENERGY PREDICTED BY IDOCK:   -5.44 KCAL/MOL
REMARK 923 INTER-LIGAND FREE ENERGY PREDICTED BY IDOCK:   -5.30 KCAL/MOL
REMARK 924 INTRA-LIGAND FREE ENERGY PREDICTED BY IDOCK:   -0.14 KCAL/MOL
REMARK 927      BINDING AFFINITY PREDICTED BY RF-SCORE:    0.00 PKD
ROOT
HETATM    1  C   UNL     1      -9.663  15.690  65.603  1.00  0.00    -0.348 C  
HETATM    2  C   UNL     1     -10.828  15.000  66.309  1.00  0.00    -0.333 C  
ENDROOT
BRANCH   2   3
HETATM    3  C   UNL     1     -10.719  13.482  66.284  1.00  0.00    -0.288 C  
HETATM    4  C   UNL     1      -9.513  12.848  67.065  1.00  0.00    -0.235 C  
HETATM    5  C   UNL     1      -9.049  11.909  65.899  1.00  0.00    -0.085 C  
HETATM    6  C   UNL     1     -10.170  10.823  65.993  1.00  0.00    -0.251 C  
HETATM    7  C   UNL     1      -9.885   9.359  66.314  1.00  0.00    -0.281 C  
HETATM    8  N   UNL     1      -8.596   8.899  65.800  1.00  0.00    -0.150 NA 
HETATM    9  C   UNL     1      -8.409   8.815  64.364  1.00  0.00    -0.157 C  
HETATM   10  C   UNL     1      -8.354   7.812  66.657  1.00  0.00    -0.126 A  
HETATM   11  C   UNL     1      -7.635   6.672  66.337  1.00  0.00    -0.090 A  
HETATM   12  C   UNL     1      -7.594   5.634  67.260  1.00  0.00    -0.089 A  
HETATM   13  C   UNL     1      -8.247   5.756  68.497  1.00  0.00    -0.108 A  
HETATM   14  C   UNL     1      -8.943   6.924  68.846  1.00  0.00    -0.131 A  
HETATM   15  C   UNL     1      -8.993   7.952  67.926  1.00  0.00    -0.129 A  
HETATM   16  C   UNL     1      -9.729   9.258  67.967  1.00  0.00    -0.172 C  
HETATM   17  C   UNL     1     -11.126   9.541  68.508  1.00  0.00    -0.035 C  
HETATM   18  C   UNL     1     -11.279  11.073  68.181  1.00  0.00    -0.302 C  
HETATM   19  N   UNL     1     -11.516  11.211  66.711  1.00  0.00    -0.354 NA 
HETATM   20  C   UNL     1      -9.919  11.842  68.443  1.00  0.00    -0.203 C  
HETATM   21  C   UNL     1      -8.973  10.536  68.696  1.00  0.00    -0.162 C  
HETATM   22  C   UNL     1     -11.932  12.606  66.527  1.00  0.00    -0.331 C  
HETATM   23  O   UNL     1     -12.826  12.609  65.442  1.00  0.00    -0.582 OA 
HETATM   24  O   UNL     1      -8.945  10.340  70.121  1.00  0.00    -0.358 OA 
HETATM   25  H   UNL     1      -8.511  11.073  70.539  1.00  0.00     0.000 HD 
HETATM   26  H   UNL     1     -13.586  12.060  65.594  1.00  0.00     0.000 HD 
ENDBRANCH   2   3
TORSDOF 1
ENDMDL
MODEL       70
REMARK 921   NORMALIZED FREE ENERGY PREDICTED BY IDOCK:   -4.98 KCAL/MOL
REMARK 922        TOTAL FREE ENERGY PREDICTED BY IDOCK:   -5.40 KCAL/MOL
REMARK 923 INTER-LIGAND FREE ENERGY PREDICTED BY IDOCK:   -5.24 KCAL/MOL
REMARK 924 INTRA-LIGAND FREE ENERGY PREDICTED BY IDOCK:   -0.16 KCAL/MOL
REMARK 927      BINDING AFFINITY PREDICTED BY RF-SCORE:    0.00 PKD
ROOT
HETATM    1  C   UNL     1     -11.525  13.738  64.484  1.00  0.00    -0.401 C  
HETATM    2  C   UNL     1     -10.234  13.968  65.268  1.00  0.00    -0.383 C  
ENDROOT
BRANCH   2   3
HETATM    3  C   UNL     1      -9.829  12.764  66.106  1.00  0.00    -0.269 C  
HETATM    4  C   UNL     1     -10.423  12.681  67.556  1.00  0.00    -0.229 C  
HETATM    5  C   UNL     1      -9.058  12.385  68.267  1.00  0.00    -0.183 C  
HETATM    6  C   UNL     1      -8.878  10.889  67.849  1.00  0.00    -0.134 C  
HETATM    7  C   UNL     1      -8.822   9.745  68.856  1.00  0.00    -0.140 C  
HETATM    8  N   UNL     1      -8.205  10.128  70.125  1.00  0.00    -0.070 NA 
HETATM    9  C   UNL     1      -6.794  10.462  70.142  1.00  0.00    -0.153 C  
HETATM   10  C   UNL     1      -8.761   9.160  70.980  1.00  0.00    -0.189 A  
HETATM   11  C   UNL     1      -8.164   8.645  72.118  1.00  0.00    -0.129 A  
HETATM   12  C   UNL     1      -8.797   7.602  72.783  1.00  0.00    -0.203 A  
HETATM   13  C   UNL     1     -10.026   7.105  72.322  1.00  0.00    -0.193 A  
HETATM   14  C   UNL     1     -10.659   7.650  71.193  1.00  0.00    -0.235 A  
HETATM   15  C   UNL     1     -10.026   8.680  70.525  1.00  0.00    -0.220 A  
HETATM   16  C   UNL     1     -10.395   9.385  69.255  1.00  0.00    -0.217 C  
HETATM   17  C   UNL     1     -10.993   8.794  67.983  1.00  0.00     0.066 C  
HETATM   18  C   UNL     1     -11.061  10.063  67.055  1.00  0.00     0.065 C  
HETATM   19  N   UNL     1      -9.674  10.374  66.592  1.00  0.00    -0.183 NA 
HETATM   20  C   UNL     1     -11.505  11.340  67.880  1.00  0.00    -0.360 C  
HETATM   21  C   UNL     1     -11.420  10.678  69.371  1.00  0.00    -0.286 C  
HETATM   22  C   UNL     1      -9.846  11.364  65.524  1.00  0.00    -0.231 C  
HETATM   23  O   UNL     1      -8.799  11.146  64.612  1.00  0.00    -0.363 OA 
HETATM   24  O   UNL     1     -12.750  10.222  69.676  1.00  0.00    -0.599 OA 
HETATM   25  H   UNL     1     -13.338  10.965  69.743  1.00  0.00     0.000 HD 
HETATM   26  H   UNL     1      -8.810  10.268  64.248  1.00  0.00     0.000 HD 
ENDBRANCH   2   3
TORSDOF 1
ENDMDL
MODEL       71
REMARK 921   NORMALIZED FREE ENERGY PREDICTED BY IDOCK:   -4.96 KCAL/MOL
REMARK 922        TOTAL FREE ENERGY PREDICTED BY IDOCK:   -5.38 KCAL/MOL
REMARK 923 INTER-LIGAND FREE ENERGY PREDICTED BY IDOCK:   -5.21 KCAL/MOL
REMARK 924 INTRA-LIGAND FREE ENERGY PREDICTED BY IDOCK:   -0.18 KCAL/MOL
REMARK 927      BINDING AFFINITY PREDICTED BY RF-SCORE:    0.00 PKD
ROOT
HETATM    1  C   UNL     1      -8.130  11.970  68.451  1.00  0.00    -0.154 C  
HETATM    2  C   UNL     1      -9.642  11.802  68.326  1.00  0.00    -0.199 C  
ENDROOT
BRANCH   2   3
HETATM    3  C   UNL     1     -10.141  10.485  68.900  1.00  0.00    -0.215 C  
HETATM    4  C   UNL     1      -9.102   9.628  69.707  1.00  0.00    -0.232 C  
HETATM    5  C   UNL     1      -9.407   8.279  68.970  1.00  0.00    -0.147 C  
HETATM    6  C   UNL     1     -10.778   7.933  69.638  1.00  0.00    -0.218 C  
HETATM    7  C   UNL     1     -11.000   6.682  70.482  1.00  0.00    -0.286 C  
HETATM    8  N   UNL     1     -10.206   5.539  70.034  1.00  0.00    -0.242 NA 
HETATM    9  C   UNL     1     -10.501   4.948  68.743  1.00  0.00     0.120 C  
HETATM   10  C   UNL     1     -10.160   4.783  71.218  1.00  0.00    -0.188 A  
HETATM   11  C   UNL     1     -10.068   3.403  71.294  1.00  0.00     0.037 A  
HETATM   12  C   UNL     1     -10.161   2.802  72.544  1.00  0.00    -0.235 A  
HETATM   13  C   UNL     1     -10.317   3.582  73.699  1.00  0.00    -0.234 A  
HETATM   14  C   UNL     1     -10.368   4.984  73.635  1.00  0.00    -0.260 A  
HETATM   15  C   UNL     1     -10.287   5.582  72.393  1.00  0.00    -0.251 A  
HETATM   16  C   UNL     1     -10.412   7.024  72.000  1.00  0.00    -0.232 C  
HETATM   17  C   UNL     1     -11.362   8.078  72.556  1.00  0.00    -0.469 C  
HETATM   18  C   UNL     1     -10.999   9.322  71.662  1.00  0.00    -0.363 C  
HETATM   19  N   UNL     1     -11.589   9.105  70.306  1.00  0.00    -0.156 NA 
HETATM   20  C   UNL     1      -9.437   9.400  71.414  1.00  0.00    -0.021 C  
HETATM   21  C   UNL     1      -9.041   7.948  72.047  1.00  0.00    -0.148 C  
HETATM   22  C   UNL     1     -11.468  10.401  69.631  1.00  0.00    -0.262 C  
HETATM   23  O   UNL     1     -12.569  10.497  68.762  1.00  0.00    -0.620 OA 
HETATM   24  O   UNL     1      -8.670   8.202  73.413  1.00  0.00    -0.233 OA 
HETATM   25  H   UNL     1      -7.883   8.733  73.441  1.00  0.00     0.000 HD 
HETATM   26  H   UNL     1     -13.400  10.445  69.220  1.00  0.00     0.000 HD 
ENDBRANCH   2   3
TORSDOF 1
ENDMDL
MODEL       72
REMARK 921   NORMALIZED FREE ENERGY PREDICTED BY IDOCK:   -4.90 KCAL/MOL
REMARK 922        TOTAL FREE ENERGY PREDICTED BY IDOCK:   -5.32 KCAL/MOL
REMARK 923 INTER-LIGAND FREE ENERGY PREDICTED BY IDOCK:   -5.19 KCAL/MOL
REMARK 924 INTRA-LIGAND FREE ENERGY PREDICTED BY IDOCK:   -0.13 KCAL/MOL
REMARK 927      BINDING AFFINITY PREDICTED BY RF-SCORE:    0.00 PKD
ROOT
HETATM    1  C   UNL     1     -12.284  14.862  64.353  1.00  0.00    -0.399 C  
HETATM    2  C   UNL     1     -12.476  13.548  65.106  1.00  0.00    -0.495 C  
ENDROOT
BRANCH   2   3
HETATM    3  C   UNL     1     -11.172  12.982  65.650  1.00  0.00    -0.310 C  
HETATM    4  C   UNL     1     -11.149  12.595  67.171  1.00  0.00    -0.321 C  
HETATM    5  C   UNL     1      -9.810  13.339  67.502  1.00  0.00    -0.220 C  
HETATM    6  C   UNL     1      -8.801  12.341  66.845  1.00  0.00    -0.207 C  
HETATM    7  C   UNL     1      -7.736  11.592  67.640  1.00  0.00    -0.133 C  
HETATM    8  N   UNL     1      -7.224  12.357  68.776  1.00  0.00    -0.107 NA 
HETATM    9  C   UNL     1      -6.455  13.558  68.517  1.00  0.00    -0.090 C  
HETATM   10  C   UNL     1      -6.745  11.314  69.588  1.00  0.00    -0.122 A  
HETATM   11  C   UNL     1      -5.685  11.401  70.475  1.00  0.00    -0.145 A  
HETATM   12  C   UNL     1      -5.259  10.241  71.112  1.00  0.00    -0.080 A  
HETATM   13  C   UNL     1      -5.911   9.020  70.877  1.00  0.00    -0.042 A  
HETATM   14  C   UNL     1      -7.013   8.932  70.012  1.00  0.00    -0.044 A  
HETATM   15  C   UNL     1      -7.431  10.082  69.371  1.00  0.00    -0.113 A  
HETATM   16  C   UNL     1      -8.492  10.283  68.331  1.00  0.00    -0.124 C  
HETATM   17  C   UNL     1      -8.853   9.378  67.159  1.00  0.00    -0.138 C  
HETATM   18  C   UNL     1      -9.989  10.215  66.461  1.00  0.00    -0.224 C  
HETATM   19  N   UNL     1      -9.347  11.358  65.743  1.00  0.00    -0.226 NA 
HETATM   20  C   UNL     1     -10.930  10.894  67.539  1.00  0.00    -0.352 C  
HETATM   21  C   UNL     1     -10.037  10.543  68.861  1.00  0.00    -0.202 C  
HETATM   22  C   UNL     1     -10.407  11.912  64.894  1.00  0.00    -0.286 C  
HETATM   23  O   UNL     1      -9.770  12.414  63.746  1.00  0.00    -0.588 OA 
HETATM   24  O   UNL     1     -10.584   9.325  69.394  1.00  0.00    -0.218 OA 
HETATM   25  H   UNL     1     -11.471   9.474  69.698  1.00  0.00     0.000 HD 
HETATM   26  H   UNL     1      -9.291  11.743  63.273  1.00  0.00     0.000 HD 
ENDBRANCH   2   3
TORSDOF 1
ENDMDL
MODEL       73
REMARK 921   NORMALIZED FREE ENERGY PREDICTED BY IDOCK:   -4.86 KCAL/MOL
REMARK 922        TOTAL FREE ENERGY PREDICTED BY IDOCK:   -5.27 KCAL/MOL
REMARK 923 INTER-LIGAND FREE ENERGY PREDICTED BY IDOCK:   -5.13 KCAL/MOL
REMARK 924 INTRA-LIGAND FREE ENERGY PREDICTED BY IDOCK:   -0.14 KCAL/MOL
REMARK 927      BINDING AFFINITY PREDICTED BY RF-SCORE:    0.00 PKD
ROOT
HETATM    1  C   UNL     1      -9.471   5.124  66.227  1.00  0.00    -0.164 C  
HETATM    2  C   UNL     1      -8.808   5.234  67.598  1.00  0.00    -0.105 C  
ENDROOT
BRANCH   2   3
HETATM    3  C   UNL     1      -9.069   6.571  68.276  1.00  0.00    -0.119 C  
HETATM    4  C   UNL     1     -10.567   7.027  68.384  1.00  0.00    -0.240 C  
HETATM    5  C   UNL     1     -10.328   8.477  67.837  1.00  0.00    -0.281 C  
HETATM    6  C   UNL     1      -9.651   9.110  69.096  1.00  0.00    -0.161 C  
HETATM    7  C   UNL     1     -10.255  10.281  69.865  1.00  0.00    -0.202 C  
HETATM    8  N   UNL     1     -10.998  11.206  69.011  1.00  0.00    -0.219 NA 
HETATM    9  C   UNL     1     -10.271  11.984  68.027  1.00  0.00    -0.198 C  
HETATM   10  C   UNL     1     -11.851  11.797  69.959  1.00  0.00    -0.342 A  
HETATM   11  C   UNL     1     -12.357  13.085  69.902  1.00  0.00    -0.177 A  
HETATM   12  C   UNL     1     -13.088  13.557  70.986  1.00  0.00    -0.219 A  
HETATM   13  C   UNL     1     -13.326  12.734  72.097  1.00  0.00    -0.593 A  
HETATM   14  C   UNL     1     -12.853  11.413  72.144  1.00  0.00    -0.075 A  
HETATM   15  C   UNL     1     -12.118  10.945  71.073  1.00  0.00    -0.425 A  
HETATM   16  C   UNL     1     -11.407   9.640  70.878  1.00  0.00    -0.431 C  
HETATM   17  C   UNL     1     -10.618   8.830  71.901  1.00  0.00    -0.425 C  
HETATM   18  C   UNL     1     -10.104   7.633  71.017  1.00  0.00    -0.189 C  
HETATM   19  N   UNL     1      -8.998   8.140  70.150  1.00  0.00    -0.145 NA 
HETATM   20  C   UNL     1     -11.226   7.161  70.004  1.00  0.00    -0.271 C  
HETATM   21  C   UNL     1     -12.283   8.379  70.263  1.00  0.00     0.535 C  
HETATM   22  C   UNL     1      -8.385   6.935  69.579  1.00  0.00    -0.133 C  
HETATM   23  O   UNL     1      -7.021   7.230  69.409  1.00  0.00    -0.058 OA 
HETATM   24  O   UNL     1     -13.206   7.895  71.254  1.00  0.00    -0.489 OA 
HETATM   25  H   UNL     1     -13.709   7.171  70.900  1.00  0.00     0.000 HD 
HETATM   26  H   UNL     1      -6.593   7.459  70.226  1.00  0.00     0.000 HD 
ENDBRANCH   2   3
TORSDOF 1
ENDMDL
MODEL       74
REMARK 921   NORMALIZED FREE ENERGY PREDICTED BY IDOCK:   -4.85 KCAL/MOL
REMARK 922        TOTAL FREE ENERGY PREDICTED BY IDOCK:   -5.27 KCAL/MOL
REMARK 923 INTER-LIGAND FREE ENERGY PREDICTED BY IDOCK:   -5.09 KCAL/MOL
REMARK 924 INTRA-LIGAND FREE ENERGY PREDICTED BY IDOCK:   -0.18 KCAL/MOL
REMARK 927      BINDING AFFINITY PREDICTED BY RF-SCORE:    0.00 PKD
ROOT
HETATM    1  C   UNL     1     -11.160  16.347  68.347  1.00  0.00    -0.351 C  
HETATM    2  C   UNL     1     -10.716  15.868  66.966  1.00  0.00    -0.292 C  
ENDROOT
BRANCH   2   3
HETATM    3  C   UNL     1     -10.143  14.459  66.985  1.00  0.00    -0.256 C  
HETATM    4  C   UNL     1     -10.225  13.681  68.346  1.00  0.00    -0.245 C  
HETATM    5  C   UNL     1      -8.726  13.223  68.355  1.00  0.00    -0.126 C  
HETATM    6  C   UNL     1      -8.804  12.096  67.274  1.00  0.00    -0.186 C  
HETATM    7  C   UNL     1      -8.497  10.633  67.575  1.00  0.00    -0.121 C  
HETATM    8  N   UNL     1      -7.468  10.460  68.599  1.00  0.00    -0.084 NA 
HETATM    9  C   UNL     1      -6.112  10.878  68.301  1.00  0.00    -0.049 C  
HETATM   10  C   UNL     1      -7.777   9.167  69.053  1.00  0.00    -0.078 A  
HETATM   11  C   UNL     1      -6.873   8.253  69.570  1.00  0.00    -0.042 A  
HETATM   12  C   UNL     1      -7.322   6.970  69.859  1.00  0.00    -0.085 A  
HETATM   13  C   UNL     1      -8.667   6.623  69.654  1.00  0.00    -0.140 A  
HETATM   14  C   UNL     1      -9.598   7.556  69.171  1.00  0.00    -0.157 A  
HETATM   15  C   UNL     1      -9.152   8.828  68.874  1.00  0.00    -0.141 A  
HETATM   16  C   UNL     1      -9.871   9.991  68.259  1.00  0.00    -0.163 C  
HETATM   17  C   UNL     1     -10.898   9.981  67.132  1.00  0.00    -0.240 C  
HETATM   18  C   UNL     1     -11.180  11.520  66.958  1.00  0.00    -0.300 C  
HETATM   19  N   UNL     1     -10.007  12.128  66.259  1.00  0.00    -0.224 NA 
HETATM   20  C   UNL     1     -11.231  12.245  68.365  1.00  0.00    -0.311 C  
HETATM   21  C   UNL     1     -10.703  10.996  69.275  1.00  0.00    -0.222 C  
HETATM   22  C   UNL     1     -10.453  13.472  65.876  1.00  0.00    -0.292 C  
HETATM   23  O   UNL     1      -9.787  13.781  64.677  1.00  0.00    -0.602 OA 
HETATM   24  O   UNL     1     -11.885  10.334  69.758  1.00  0.00    -0.381 OA 
HETATM   25  H   UNL     1     -12.363  10.911  70.342  1.00  0.00     0.000 HD 
HETATM   26  H   UNL     1      -9.981  13.163  63.983  1.00  0.00     0.000 HD 
ENDBRANCH   2   3
TORSDOF 1
ENDMDL
MODEL       75
REMARK 921   NORMALIZED FREE ENERGY PREDICTED BY IDOCK:   -4.81 KCAL/MOL
REMARK 922        TOTAL FREE ENERGY PREDICTED BY IDOCK:   -5.22 KCAL/MOL
REMARK 923 INTER-LIGAND FREE ENERGY PREDICTED BY IDOCK:   -5.08 KCAL/MOL
REMARK 924 INTRA-LIGAND FREE ENERGY PREDICTED BY IDOCK:   -0.14 KCAL/MOL
REMARK 927      BINDING AFFINITY PREDICTED BY RF-SCORE:    0.00 PKD
ROOT
HETATM    1  C   UNL     1      -7.837  16.810  68.204  1.00  0.00    -0.182 C  
HETATM    2  C   UNL     1      -9.326  16.585  67.947  1.00  0.00    -0.216 C  
ENDROOT
BRANCH   2   3
HETATM    3  C   UNL     1      -9.628  15.197  67.402  1.00  0.00    -0.208 C  
HETATM    4  C   UNL     1      -9.112  13.979  68.247  1.00  0.00    -0.191 C  
HETATM    5  C   UNL     1      -8.452  13.223  67.043  1.00  0.00    -0.138 C  
HETATM    6  C   UNL     1      -9.744  12.679  66.351  1.00  0.00    -0.258 C  
HETATM    7  C   UNL     1     -10.035  11.191  66.185  1.00  0.00    -0.229 C  
HETATM    8  N   UNL     1      -8.828  10.388  65.996  1.00  0.00    -0.155 NA 
HETATM    9  C   UNL     1      -8.056  10.564  64.782  1.00  0.00    -0.078 C  
HETATM   10  C   UNL     1      -9.292   9.130  66.420  1.00  0.00    -0.204 A  
HETATM   11  C   UNL     1      -8.841   7.904  65.961  1.00  0.00    -0.191 A  
HETATM   12  C   UNL     1      -9.493   6.755  66.393  1.00  0.00    -0.166 A  
HETATM   13  C   UNL     1     -10.565   6.842  67.294  1.00  0.00    -0.390 A  
HETATM   14  C   UNL     1     -11.001   8.077  67.797  1.00  0.00     0.061 A  
HETATM   15  C   UNL     1     -10.361   9.221  67.361  1.00  0.00    -0.327 A  
HETATM   16  C   UNL     1     -10.659  10.665  67.634  1.00  0.00    -0.288 C  
HETATM   17  C   UNL     1     -12.018  11.347  67.743  1.00  0.00    -0.073 C  
HETATM   18  C   UNL     1     -11.592  12.845  67.973  1.00  0.00    -0.342 C  
HETATM   19  N   UNL     1     -11.109  13.395  66.670  1.00  0.00    -0.291 NA 
HETATM   20  C   UNL     1     -10.338  12.932  68.937  1.00  0.00    -0.059 C  
HETATM   21  C   UNL     1      -9.991  11.337  68.989  1.00  0.00    -0.105 C  
HETATM   22  C   UNL     1     -11.009  14.842  66.886  1.00  0.00    -0.327 C  
HETATM   23  O   UNL     1     -11.294  15.446  65.649  1.00  0.00    -0.263 OA 
HETATM   24  O   UNL     1     -10.649  10.829  70.162  1.00  0.00    -0.458 OA 
HETATM   25  H   UNL     1     -10.266  11.215  70.941  1.00  0.00     0.000 HD 
HETATM   26  H   UNL     1     -12.159  15.223  65.325  1.00  0.00     0.000 HD 
ENDBRANCH   2   3
TORSDOF 1
ENDMDL
MODEL       76
REMARK 921   NORMALIZED FREE ENERGY PREDICTED BY IDOCK:   -4.81 KCAL/MOL
REMARK 922        TOTAL FREE ENERGY PREDICTED BY IDOCK:   -5.22 KCAL/MOL
REMARK 923 INTER-LIGAND FREE ENERGY PREDICTED BY IDOCK:   -5.05 KCAL/MOL
REMARK 924 INTRA-LIGAND FREE ENERGY PREDICTED BY IDOCK:   -0.17 KCAL/MOL
REMARK 927      BINDING AFFINITY PREDICTED BY RF-SCORE:    0.00 PKD
ROOT
HETATM    1  C   UNL     1      -9.648   2.516  71.339  1.00  0.00    -0.225 C  
HETATM    2  C   UNL     1     -10.340   3.413  72.363  1.00  0.00    -0.153 C  
ENDROOT
BRANCH   2   3
HETATM    3  C   UNL     1     -10.053   4.891  72.144  1.00  0.00    -0.250 C  
HETATM    4  C   UNL     1      -9.632   5.321  70.694  1.00  0.00    -0.235 C  
HETATM    5  C   UNL     1      -8.387   6.164  71.137  1.00  0.00    -0.124 C  
HETATM    6  C   UNL     1      -9.125   7.422  71.702  1.00  0.00    -0.130 C  
HETATM    7  C   UNL     1      -8.953   8.819  71.117  1.00  0.00    -0.222 C  
HETATM    8  N   UNL     1      -7.614   9.057  70.581  1.00  0.00    -0.104 NA 
HETATM    9  C   UNL     1      -6.493   9.101  71.501  1.00  0.00    -0.045 C  
HETATM   10  C   UNL     1      -7.884  10.094  69.672  1.00  0.00    -0.175 A  
HETATM   11  C   UNL     1      -7.004  11.097  69.302  1.00  0.00    -0.118 A  
HETATM   12  C   UNL     1      -7.471  12.119  68.484  1.00  0.00    -0.117 A  
HETATM   13  C   UNL     1      -8.798  12.115  68.027  1.00  0.00    -0.181 A  
HETATM   14  C   UNL     1      -9.685  11.080  68.363  1.00  0.00    -0.181 A  
HETATM   15  C   UNL     1      -9.225  10.069  69.184  1.00  0.00    -0.196 A  
HETATM   16  C   UNL     1      -9.949   8.903  69.788  1.00  0.00    -0.196 C  
HETATM   17  C   UNL     1     -11.363   8.859  70.357  1.00  0.00    -0.229 C  
HETATM   18  C   UNL     1     -11.444   7.371  70.866  1.00  0.00    -0.286 C  
HETATM   19  N   UNL     1     -10.635   7.266  72.119  1.00  0.00    -0.206 NA 
HETATM   20  C   UNL     1     -10.735   6.389  69.846  1.00  0.00    -0.332 C  
HETATM   21  C   UNL     1     -10.058   7.522  68.884  1.00  0.00    -0.192 C  
HETATM   22  C   UNL     1     -10.986   5.958  72.684  1.00  0.00    -0.264 C  
HETATM   23  O   UNL     1     -10.897   6.096  74.080  1.00  0.00    -0.397 OA 
HETATM   24  O   UNL     1     -10.980   7.719  67.798  1.00  0.00    -0.489 OA 
HETATM   25  H   UNL     1     -11.042   6.926  67.279  1.00  0.00     0.000 HD 
HETATM   26  H   UNL     1     -11.481   6.765  74.418  1.00  0.00     0.000 HD 
ENDBRANCH   2   3
TORSDOF 1
ENDMDL
MODEL       77
REMARK 921   NORMALIZED FREE ENERGY PREDICTED BY IDOCK:   -4.78 KCAL/MOL
REMARK 922        TOTAL FREE ENERGY PREDICTED BY IDOCK:   -5.19 KCAL/MOL
REMARK 923 INTER-LIGAND FREE ENERGY PREDICTED BY IDOCK:   -5.03 KCAL/MOL
REMARK 924 INTRA-LIGAND FREE ENERGY PREDICTED BY IDOCK:   -0.15 KCAL/MOL
REMARK 927      BINDING AFFINITY PREDICTED BY RF-SCORE:    0.00 PKD
ROOT
HETATM    1  C   UNL     1      -5.661  19.350  70.152  1.00  0.00    -0.258 C  
HETATM    2  C   UNL     1      -5.487  17.835  70.229  1.00  0.00    -0.251 C  
ENDROOT
BRANCH   2   3
HETATM    3  C   UNL     1      -6.254  17.096  69.142  1.00  0.00    -0.212 C  
HETATM    4  C   UNL     1      -7.656  16.513  69.540  1.00  0.00     0.088 C  
HETATM    5  C   UNL     1      -7.405  15.084  68.949  1.00  0.00    -0.139 C  
HETATM    6  C   UNL     1      -7.552  15.413  67.427  1.00  0.00    -0.203 C  
HETATM    7  C   UNL     1      -8.632  14.796  66.544  1.00  0.00    -0.040 C  
HETATM    8  N   UNL     1      -8.983  13.432  66.935  1.00  0.00    -0.228 NA 
HETATM    9  C   UNL     1      -7.993  12.385  66.779  1.00  0.00     0.046 C  
HETATM   10  C   UNL     1     -10.275  13.336  66.389  1.00  0.00    -0.292 A  
HETATM   11  C   UNL     1     -10.877  12.176  65.932  1.00  0.00    -0.316 A  
HETATM   12  C   UNL     1     -12.114  12.275  65.306  1.00  0.00    -0.361 A  
HETATM   13  C   UNL     1     -12.743  13.521  65.166  1.00  0.00    -0.453 A  
HETATM   14  C   UNL     1     -12.159  14.696  65.664  1.00  0.00    -0.212 A  
HETATM   15  C   UNL     1     -10.926  14.602  66.278  1.00  0.00    -0.327 A  
HETATM   16  C   UNL     1     -10.020  15.672  66.809  1.00  0.00    -0.258 C  
HETATM   17  C   UNL     1      -9.732  17.047  66.218  1.00  0.00    -0.302 C  
HETATM   18  C   UNL     1      -8.668  17.603  67.237  1.00  0.00    -0.235 C  
HETATM   19  N   UNL     1      -7.370  16.910  66.975  1.00  0.00    -0.173 NA 
HETATM   20  C   UNL     1      -9.047  17.201  68.721  1.00  0.00    -0.244 C  
HETATM   21  C   UNL     1     -10.266  16.174  68.366  1.00  0.00    -0.240 C  
HETATM   22  C   UNL     1      -6.377  17.668  67.743  1.00  0.00    -0.169 C  
HETATM   23  O   UNL     1      -5.174  17.587  67.020  1.00  0.00    -0.119 OA 
HETATM   24  O   UNL     1     -11.473  16.952  68.444  1.00  0.00    -0.136 OA 
HETATM   25  H   UNL     1     -11.614  17.240  69.338  1.00  0.00     0.000 HD 
HETATM   26  H   UNL     1      -5.251  17.946  66.143  1.00  0.00     0.000 HD 
ENDBRANCH   2   3
TORSDOF 1
ENDMDL
MODEL       78
REMARK 921   NORMALIZED FREE ENERGY PREDICTED BY IDOCK:   -4.77 KCAL/MOL
REMARK 922        TOTAL FREE ENERGY PREDICTED BY IDOCK:   -5.18 KCAL/MOL
REMARK 923 INTER-LIGAND FREE ENERGY PREDICTED BY IDOCK:   -5.04 KCAL/MOL
REMARK 924 INTRA-LIGAND FREE ENERGY PREDICTED BY IDOCK:   -0.14 KCAL/MOL
REMARK 927      BINDING AFFINITY PREDICTED BY RF-SCORE:    0.00 PKD
ROOT
HETATM    1  C   UNL     1     -12.438  12.040  63.428  1.00  0.00    -0.625 C  
HETATM    2  C   UNL     1     -11.046  12.551  63.794  1.00  0.00    -0.503 C  
ENDROOT
BRANCH   2   3
HETATM    3  C   UNL     1     -10.690  12.300  65.252  1.00  0.00    -0.329 C  
HETATM    4  C   UNL     1      -9.837  11.019  65.560  1.00  0.00    -0.292 C  
HETATM    5  C   UNL     1     -10.747  10.502  66.727  1.00  0.00    -0.252 C  
HETATM    6  C   UNL     1     -10.322  11.513  67.841  1.00  0.00    -0.183 C  
HETATM    7  C   UNL     1      -9.654  11.083  69.143  1.00  0.00    -0.061 C  
HETATM    8  N   UNL     1     -10.100   9.772  69.612  1.00  0.00    -0.214 NA 
HETATM    9  C   UNL     1     -11.475   9.619  70.048  1.00  0.00    -0.145 C  
HETATM   10  C   UNL     1      -9.008   9.405  70.417  1.00  0.00    -0.250 A  
HETATM   11  C   UNL     1      -9.064   8.592  71.536  1.00  0.00    -0.281 A  
HETATM   12  C   UNL     1      -7.910   8.428  72.293  1.00  0.00    -0.162 A  
HETATM   13  C   UNL     1      -6.713   9.053  71.911  1.00  0.00     0.028 A  
HETATM   14  C   UNL     1      -6.638   9.845  70.755  1.00  0.00    -0.069 A  
HETATM   15  C   UNL     1      -7.786  10.017  70.007  1.00  0.00    -0.181 A  
HETATM   16  C   UNL     1      -8.040  10.871  68.801  1.00  0.00    -0.145 C  
HETATM   17  C   UNL     1      -7.518  12.272  68.505  1.00  0.00    -0.113 C  
HETATM   18  C   UNL     1      -8.216  12.578  67.128  1.00  0.00    -0.168 C  
HETATM   19  N   UNL     1      -9.657  12.869  67.394  1.00  0.00    -0.198 NA 
HETATM   20  C   UNL     1      -8.229  11.290  66.206  1.00  0.00    -0.126 C  
HETATM   21  C   UNL     1      -7.700  10.218  67.320  1.00  0.00    -0.095 C  
HETATM   22  C   UNL     1     -10.169  13.419  66.134  1.00  0.00    -0.301 C  
HETATM   23  O   UNL     1     -11.171  14.340  66.485  1.00  0.00    -0.316 OA 
HETATM   24  O   UNL     1      -6.276  10.131  67.138  1.00  0.00    -0.060 OA 
HETATM   25  H   UNL     1      -6.081   9.756  66.288  1.00  0.00     0.000 HD 
HETATM   26  H   UNL     1     -10.845  15.040  67.038  1.00  0.00     0.000 HD 
ENDBRANCH   2   3
TORSDOF 1
ENDMDL
MODEL       79
REMARK 921   NORMALIZED FREE ENERGY PREDICTED BY IDOCK:   -4.75 KCAL/MOL
REMARK 922        TOTAL FREE ENERGY PREDICTED BY IDOCK:   -5.16 KCAL/MOL
REMARK 923 INTER-LIGAND FREE ENERGY PREDICTED BY IDOCK:   -5.07 KCAL/MOL
REMARK 924 INTRA-LIGAND FREE ENERGY PREDICTED BY IDOCK:   -0.08 KCAL/MOL
REMARK 927      BINDING AFFINITY PREDICTED BY RF-SCORE:    0.00 PKD
ROOT
HETATM    1  C   UNL     1      -8.234   6.843  64.532  1.00  0.00    -0.002 C  
HETATM    2  C   UNL     1      -7.532   8.199  64.493  1.00  0.00    -0.102 C  
ENDROOT
BRANCH   2   3
HETATM    3  C   UNL     1      -7.963   9.120  65.625  1.00  0.00    -0.107 C  
HETATM    4  C   UNL     1      -8.718  10.435  65.216  1.00  0.00    -0.192 C  
HETATM    5  C   UNL     1      -7.847  11.395  66.097  1.00  0.00     0.048 C  
HETATM    6  C   UNL     1      -8.434  11.046  67.503  1.00  0.00    -0.127 C  
HETATM    7  C   UNL     1      -9.148  12.067  68.383  1.00  0.00    -0.158 C  
HETATM    8  N   UNL     1      -8.620  13.422  68.234  1.00  0.00    -0.173 NA 
HETATM    9  C   UNL     1      -7.270  13.697  68.686  1.00  0.00    -0.110 C  
HETATM   10  C   UNL     1      -9.727  14.174  68.662  1.00  0.00    -0.196 A  
HETATM   11  C   UNL     1      -9.675  15.414  69.277  1.00  0.00    -0.268 A  
HETATM   12  C   UNL     1     -10.858  15.968  69.751  1.00  0.00    -0.337 A  
HETATM   13  C   UNL     1     -12.077  15.293  69.583  1.00  0.00    -0.342 A  
HETATM   14  C   UNL     1     -12.145  14.056  68.923  1.00  0.00    -0.351 A  
HETATM   15  C   UNL     1     -10.969  13.499  68.461  1.00  0.00    -0.291 A  
HETATM   16  C   UNL     1     -10.710  12.169  67.820  1.00  0.00    -0.241 C  
HETATM   17  C   UNL     1     -11.333  10.819  68.155  1.00  0.00    -0.377 C  
HETATM   18  C   UNL     1     -10.573   9.871  67.154  1.00  0.00    -0.228 C  
HETATM   19  N   UNL     1      -9.185   9.672  67.669  1.00  0.00    -0.130 NA 
HETATM   20  C   UNL     1     -10.384  10.574  65.748  1.00  0.00    -0.270 C  
HETATM   21  C   UNL     1     -10.889  12.066  66.179  1.00  0.00    -0.286 C  
HETATM   22  C   UNL     1      -8.639   8.572  66.866  1.00  0.00    -0.117 C  
HETATM   23  O   UNL     1      -7.749   7.877  67.703  1.00  0.00    -0.112 OA 
HETATM   24  O   UNL     1     -12.284  12.125  65.834  1.00  0.00    -0.604 OA 
HETATM   25  H   UNL     1     -12.387  12.066  64.892  1.00  0.00     0.000 HD 
HETATM   26  H   UNL     1      -8.173   7.534  68.481  1.00  0.00     0.000 HD 
ENDBRANCH   2   3
TORSDOF 1
ENDMDL
MODEL       80
REMARK 921   NORMALIZED FREE ENERGY PREDICTED BY IDOCK:   -4.70 KCAL/MOL
REMARK 922        TOTAL FREE ENERGY PREDICTED BY IDOCK:   -5.10 KCAL/MOL
REMARK 923 INTER-LIGAND FREE ENERGY PREDICTED BY IDOCK:   -4.97 KCAL/MOL
REMARK 924 INTRA-LIGAND FREE ENERGY PREDICTED BY IDOCK:   -0.14 KCAL/MOL
REMARK 927      BINDING AFFINITY PREDICTED BY RF-SCORE:    0.00 PKD
ROOT
HETATM    1  C   UNL     1      -8.645   4.352  74.313  1.00  0.00    -0.096 C  
HETATM    2  C   UNL     1      -8.172   4.556  72.876  1.00  0.00    -0.096 C  
ENDROOT
BRANCH   2   3
HETATM    3  C   UNL     1      -9.006   5.579  72.119  1.00  0.00    -0.142 C  
HETATM    4  C   UNL     1      -8.593   7.085  72.279  1.00  0.00    -0.129 C  
HETATM    5  C   UNL     1     -10.036   7.611  72.591  1.00  0.00    -0.298 C  
HETATM    6  C   UNL     1     -10.644   7.539  71.152  1.00  0.00    -0.222 C  
HETATM    7  C   UNL     1     -11.144   8.768  70.399  1.00  0.00    -0.236 C  
HETATM    8  N   UNL     1     -11.712   9.789  71.278  1.00  0.00    -0.368 NA 
HETATM    9  C   UNL     1     -12.941   9.491  71.988  1.00  0.00    -0.426 C  
HETATM   10  C   UNL     1     -11.564  10.930  70.470  1.00  0.00    -0.300 A  
HETATM   11  C   UNL     1     -12.387  12.043  70.484  1.00  0.00    -0.369 A  
HETATM   12  C   UNL     1     -12.175  13.034  69.532  1.00  0.00    -0.198 A  
HETATM   13  C   UNL     1     -11.132  12.915  68.600  1.00  0.00    -0.307 A  
HETATM   14  C   UNL     1     -10.267  11.809  68.607  1.00  0.00    -0.211 A  
HETATM   15  C   UNL     1     -10.483  10.819  69.545  1.00  0.00    -0.205 A  
HETATM   16  C   UNL     1      -9.805   9.495  69.734  1.00  0.00    -0.236 C  
HETATM   17  C   UNL     1      -9.320   8.519  68.668  1.00  0.00    -0.142 C  
HETATM   18  C   UNL     1      -8.776   7.338  69.556  1.00  0.00    -0.134 C  
HETATM   19  N   UNL     1      -9.950   6.592  70.103  1.00  0.00    -0.173 NA 
HETATM   20  C   UNL     1      -8.022   7.895  70.832  1.00  0.00    -0.093 C  
HETATM   21  C   UNL     1      -8.437   9.466  70.663  1.00  0.00    -0.193 C  
HETATM   22  C   UNL     1      -9.384   5.361  70.666  1.00  0.00    -0.162 C  
HETATM   23  O   UNL     1     -10.366   4.368  70.508  1.00  0.00    -0.106 OA 
HETATM   24  O   UNL     1      -7.350  10.087  69.954  1.00  0.00    -0.125 OA 
HETATM   25  H   UNL     1      -6.565  10.070  70.488  1.00  0.00     0.000 HD 
HETATM   26  H   UNL     1     -10.603   4.232  69.598  1.00  0.00     0.000 HD 
ENDBRANCH   2   3
TORSDOF 1
ENDMDL
MODEL       81
REMARK 921   NORMALIZED FREE ENERGY PREDICTED BY IDOCK:   -4.65 KCAL/MOL
REMARK 922        TOTAL FREE ENERGY PREDICTED BY IDOCK:   -5.06 KCAL/MOL
REMARK 923 INTER-LIGAND FREE ENERGY PREDICTED BY IDOCK:   -4.88 KCAL/MOL
REMARK 924 INTRA-LIGAND FREE ENERGY PREDICTED BY IDOCK:   -0.18 KCAL/MOL
REMARK 927      BINDING AFFINITY PREDICTED BY RF-SCORE:    0.00 PKD
ROOT
HETATM    1  C   UNL     1      -9.538  10.455  63.423  1.00  0.00    -0.361 C  
HETATM    2  C   UNL     1     -10.482  11.096  64.438  1.00  0.00    -0.418 C  
ENDROOT
BRANCH   2   3
HETATM    3  C   UNL     1     -10.375  10.470  65.821  1.00  0.00    -0.270 C  
HETATM    4  C   UNL     1      -9.203   9.450  66.046  1.00  0.00    -0.253 C  
HETATM    5  C   UNL     1     -10.091   8.336  66.700  1.00  0.00    -0.351 C  
HETATM    6  C   UNL     1     -10.304   8.980  68.108  1.00  0.00    -0.214 C  
HETATM    7  C   UNL     1      -9.816   8.333  69.401  1.00  0.00    -0.185 C  
HETATM    8  N   UNL     1      -9.848   6.872  69.359  1.00  0.00    -0.157 NA 
HETATM    9  C   UNL     1     -11.134   6.205  69.290  1.00  0.00    -0.393 C  
HETATM   10  C   UNL     1      -8.893   6.569  70.345  1.00  0.00    -0.151 A  
HETATM   11  C   UNL     1      -8.888   5.440  71.147  1.00  0.00    -0.146 A  
HETATM   12  C   UNL     1      -7.940   5.353  72.160  1.00  0.00    -0.107 A  
HETATM   13  C   UNL     1      -6.997   6.377  72.342  1.00  0.00    -0.074 A  
HETATM   14  C   UNL     1      -6.969   7.504  71.507  1.00  0.00    -0.054 A  
HETATM   15  C   UNL     1      -7.917   7.597  70.507  1.00  0.00    -0.100 A  
HETATM   16  C   UNL     1      -8.201   8.706  69.538  1.00  0.00    -0.115 C  
HETATM   17  C   UNL     1      -8.169  10.210  69.785  1.00  0.00    -0.161 C  
HETATM   18  C   UNL     1      -8.622  10.762  68.382  1.00  0.00    -0.141 C  
HETATM   19  N   UNL     1     -10.093  10.534  68.249  1.00  0.00    -0.156 NA 
HETATM   20  C   UNL     1      -7.976   9.917  67.209  1.00  0.00    -0.109 C  
HETATM   21  C   UNL     1      -7.345   8.720  68.123  1.00  0.00    -0.087 C  
HETATM   22  C   UNL     1     -10.491  11.317  67.074  1.00  0.00    -0.234 C  
HETATM   23  O   UNL     1     -11.807  11.747  67.314  1.00  0.00    -0.596 OA 
HETATM   24  O   UNL     1      -5.981   9.098  68.380  1.00  0.00    -0.044 OA 
HETATM   25  H   UNL     1      -5.489   9.105  67.568  1.00  0.00     0.000 HD 
HETATM   26  H   UNL     1     -11.880  12.277  68.100  1.00  0.00     0.000 HD 
ENDBRANCH   2   3
TORSDOF 1
ENDMDL
MODEL       82
REMARK 921   NORMALIZED FREE ENERGY PREDICTED BY IDOCK:   -4.65 KCAL/MOL
REMARK 922        TOTAL FREE ENERGY PREDICTED BY IDOCK:   -5.06 KCAL/MOL
REMARK 923 INTER-LIGAND FREE ENERGY PREDICTED BY IDOCK:   -4.90 KCAL/MOL
REMARK 924 INTRA-LIGAND FREE ENERGY PREDICTED BY IDOCK:   -0.16 KCAL/MOL
REMARK 927      BINDING AFFINITY PREDICTED BY RF-SCORE:    0.00 PKD
ROOT
HETATM    1  C   UNL     1     -11.372   4.558  73.327  1.00  0.00    -0.364 C  
HETATM    2  C   UNL     1      -9.913   4.484  72.882  1.00  0.00    -0.198 C  
ENDROOT
BRANCH   2   3
HETATM    3  C   UNL     1      -9.536   5.590  71.907  1.00  0.00    -0.185 C  
HETATM    4  C   UNL     1      -9.640   5.248  70.378  1.00  0.00    -0.241 C  
HETATM    5  C   UNL     1      -8.219   5.793  70.000  1.00  0.00    -0.115 C  
HETATM    6  C   UNL     1      -8.515   7.327  70.063  1.00  0.00    -0.139 C  
HETATM    7  C   UNL     1      -8.393   8.247  68.853  1.00  0.00    -0.127 C  
HETATM    8  N   UNL     1      -7.335   7.842  67.928  1.00  0.00    -0.090 NA 
HETATM    9  C   UNL     1      -5.956   7.926  68.368  1.00  0.00    -0.036 C  
HETATM   10  C   UNL     1      -7.788   8.449  66.744  1.00  0.00    -0.094 A  
HETATM   11  C   UNL     1      -6.987   8.908  65.712  1.00  0.00    -0.080 A  
HETATM   12  C   UNL     1      -7.587   9.596  64.664  1.00  0.00    -0.126 A  
HETATM   13  C   UNL     1      -8.976   9.795  64.647  1.00  0.00    -0.270 A  
HETATM   14  C   UNL     1      -9.800   9.297  65.668  1.00  0.00    -0.237 A  
HETATM   15  C   UNL     1      -9.204   8.621  66.715  1.00  0.00    -0.211 A  
HETATM   16  C   UNL     1      -9.796   8.071  67.978  1.00  0.00    -0.198 C  
HETATM   17  C   UNL     1     -10.882   8.679  68.858  1.00  0.00    -0.024 C  
HETATM   18  C   UNL     1     -10.962   7.622  70.023  1.00  0.00    -0.228 C  
HETATM   19  N   UNL     1      -9.763   7.804  70.896  1.00  0.00    -0.168 NA 
HETATM   20  C   UNL     1     -10.828   6.150  69.456  1.00  0.00    -0.428 C  
HETATM   21  C   UNL     1     -10.420   6.540  67.924  1.00  0.00    -0.222 C  
HETATM   22  C   UNL     1     -10.045   7.006  72.094  1.00  0.00    -0.181 C  
HETATM   23  O   UNL     1      -9.419   7.667  73.164  1.00  0.00    -0.193 OA 
HETATM   24  O   UNL     1     -11.648   6.539  67.176  1.00  0.00    -0.743 OA 
HETATM   25  H   UNL     1     -12.007   5.660  67.144  1.00  0.00     0.000 HD 
HETATM   26  H   UNL     1      -9.738   8.555  73.281  1.00  0.00     0.000 HD 
ENDBRANCH   2   3
TORSDOF 1
ENDMDL
MODEL       83
REMARK 921   NORMALIZED FREE ENERGY PREDICTED BY IDOCK:   -4.64 KCAL/MOL
REMARK 922        TOTAL FREE ENERGY PREDICTED BY IDOCK:   -5.04 KCAL/MOL
REMARK 923 INTER-LIGAND FREE ENERGY PREDICTED BY IDOCK:   -4.87 KCAL/MOL
REMARK 924 INTRA-LIGAND FREE ENERGY PREDICTED BY IDOCK:   -0.17 KCAL/MOL
REMARK 927      BINDING AFFINITY PREDICTED BY RF-SCORE:    0.00 PKD
ROOT
HETATM    1  C   UNL     1     -11.846  11.295  70.401  1.00  0.00    -0.443 C  
HETATM    2  C   UNL     1     -12.131  11.273  68.901  1.00  0.00    -0.292 C  
ENDROOT
BRANCH   2   3
HETATM    3  C   UNL     1     -11.274  12.260  68.122  1.00  0.00    -0.320 C  
HETATM    4  C   UNL     1     -10.774  13.528  68.901  1.00  0.00    -0.228 C  
HETATM    5  C   UNL     1     -11.205  14.564  67.806  1.00  0.00    -0.312 C  
HETATM    6  C   UNL     1     -10.078  14.300  66.755  1.00  0.00    -0.264 C  
HETATM    7  C   UNL     1      -9.071  15.364  66.330  1.00  0.00    -0.314 C  
HETATM    8  N   UNL     1      -9.627  16.716  66.338  1.00  0.00    -0.269 NA 
HETATM    9  C   UNL     1     -10.666  17.048  65.382  1.00  0.00    -0.116 C  
HETATM   10  C   UNL     1      -8.450  17.473  66.468  1.00  0.00    -0.268 A  
HETATM   11  C   UNL     1      -8.253  18.753  65.977  1.00  0.00    -0.113 A  
HETATM   12  C   UNL     1      -6.985  19.314  66.083  1.00  0.00    -0.261 A  
HETATM   13  C   UNL     1      -5.942  18.604  66.698  1.00  0.00    -0.176 A  
HETATM   14  C   UNL     1      -6.145  17.324  67.237  1.00  0.00    -0.167 A  
HETATM   15  C   UNL     1      -7.401  16.761  67.123  1.00  0.00    -0.222 A  
HETATM   16  C   UNL     1      -7.892  15.396  67.502  1.00  0.00    -0.193 C  
HETATM   17  C   UNL     1      -7.171  14.059  67.364  1.00  0.00    -0.117 C  
HETATM   18  C   UNL     1      -8.271  13.061  67.885  1.00  0.00    -0.166 C  
HETATM   19  N   UNL     1      -9.313  12.925  66.823  1.00  0.00    -0.238 NA 
HETATM   20  C   UNL     1      -9.041  13.671  69.128  1.00  0.00     0.476 C  
HETATM   21  C   UNL     1      -8.417  15.178  69.055  1.00  0.00    -0.214 C  
HETATM   22  C   UNL     1     -10.134  11.785  67.243  1.00  0.00    -0.192 C  
HETATM   23  O   UNL     1     -10.584  11.167  66.064  1.00  0.00    -0.256 OA 
HETATM   24  O   UNL     1      -7.295  15.184  69.955  1.00  0.00    -0.200 OA 
HETATM   25  H   UNL     1      -7.597  15.059  70.847  1.00  0.00     0.000 HD 
HETATM   26  H   UNL     1      -9.869  10.869  65.513  1.00  0.00     0.000 HD 
ENDBRANCH   2   3
TORSDOF 1
ENDMDL
MODEL       84
REMARK 921   NORMALIZED FREE ENERGY PREDICTED BY IDOCK:   -4.63 KCAL/MOL
REMARK 922        TOTAL FREE ENERGY PREDICTED BY IDOCK:   -5.03 KCAL/MOL
REMARK 923 INTER-LIGAND FREE ENERGY PREDICTED BY IDOCK:   -4.86 KCAL/MOL
REMARK 924 INTRA-LIGAND FREE ENERGY PREDICTED BY IDOCK:   -0.17 KCAL/MOL
REMARK 927      BINDING AFFINITY PREDICTED BY RF-SCORE:    0.00 PKD
ROOT
HETATM    1  C   UNL     1      -8.851   5.952  66.059  1.00  0.00    -0.153 C  
HETATM    2  C   UNL     1      -8.087   6.852  65.091  1.00  0.00    -0.132 C  
ENDROOT
BRANCH   2   3
HETATM    3  C   UNL     1      -8.261   8.333  65.397  1.00  0.00    -0.146 C  
HETATM    4  C   UNL     1      -9.427   8.719  66.375  1.00  0.00    -0.291 C  
HETATM    5  C   UNL     1     -10.019   9.854  65.470  1.00  0.00    -0.363 C  
HETATM    6  C   UNL     1      -8.940  10.959  65.717  1.00  0.00    -0.193 C  
HETATM    7  C   UNL     1      -9.260  12.304  66.362  1.00  0.00    -0.203 C  
HETATM    8  N   UNL     1     -10.602  12.787  66.045  1.00  0.00    -0.265 NA 
HETATM    9  C   UNL     1     -10.904  13.159  64.677  1.00  0.00    -0.366 C  
HETATM   10  C   UNL     1     -10.822  13.655  67.129  1.00  0.00    -0.285 A  
HETATM   11  C   UNL     1     -11.610  14.794  67.108  1.00  0.00    -0.373 A  
HETATM   12  C   UNL     1     -11.621  15.611  68.232  1.00  0.00    -0.326 A  
HETATM   13  C   UNL     1     -10.870  15.271  69.367  1.00  0.00    -0.263 A  
HETATM   14  C   UNL     1     -10.101  14.097  69.412  1.00  0.00     0.176 A  
HETATM   15  C   UNL     1     -10.081  13.289  68.292  1.00  0.00    -0.250 A  
HETATM   16  C   UNL     1      -9.291  12.047  68.005  1.00  0.00    -0.196 C  
HETATM   17  C   UNL     1      -7.845  11.738  68.377  1.00  0.00    -0.141 C  
HETATM   18  C   UNL     1      -7.655  10.319  67.722  1.00  0.00    -0.089 C  
HETATM   19  N   UNL     1      -7.527  10.506  66.244  1.00  0.00    -0.127 NA 
HETATM   20  C   UNL     1      -8.957   9.436  67.905  1.00  0.00    -0.126 C  
HETATM   21  C   UNL     1      -9.933  10.604  68.494  1.00  0.00    -0.167 C  
HETATM   22  C   UNL     1      -7.070   9.207  65.739  1.00  0.00    -0.085 C  
HETATM   23  O   UNL     1      -6.264   9.481  64.621  1.00  0.00    -0.075 OA 
HETATM   24  O   UNL     1      -9.859  10.496  69.926  1.00  0.00    -0.420 OA 
HETATM   25  H   UNL     1     -10.228   9.667  70.207  1.00  0.00     0.000 HD 
HETATM   26  H   UNL     1      -5.518  10.029  64.835  1.00  0.00     0.000 HD 
ENDBRANCH   2   3
TORSDOF 1
ENDMDL
MODEL       85
REMARK 921   NORMALIZED FREE ENERGY PREDICTED BY IDOCK:   -4.61 KCAL/MOL
REMARK 922        TOTAL FREE ENERGY PREDICTED BY IDOCK:   -5.01 KCAL/MOL
REMARK 923 INTER-LIGAND FREE ENERGY PREDICTED BY IDOCK:   -4.84 KCAL/MOL
REMARK 924 INTRA-LIGAND FREE ENERGY PREDICTED BY IDOCK:   -0.16 KCAL/MOL
REMARK 927      BINDING AFFINITY PREDICTED BY RF-SCORE:    0.00 PKD
ROOT
HETATM    1  C   UNL     1     -10.408  15.228  67.852  1.00  0.00    -0.246 C  
HETATM    2  C   UNL     1      -9.987  14.530  66.561  1.00  0.00    -0.290 C  
ENDROOT
BRANCH   2   3
HETATM    3  C   UNL     1     -10.056  13.013  66.660  1.00  0.00    -0.251 C  
HETATM    4  C   UNL     1      -8.903  12.304  67.457  1.00  0.00    -0.182 C  
HETATM    5  C   UNL     1      -8.597  11.226  66.361  1.00  0.00    -0.174 C  
HETATM    6  C   UNL     1      -9.832  10.292  66.577  1.00  0.00    -0.212 C  
HETATM    7  C   UNL     1      -9.707   8.835  67.012  1.00  0.00    -0.198 C  
HETATM    8  N   UNL     1      -8.502   8.185  66.501  1.00  0.00    -0.125 NA 
HETATM    9  C   UNL     1      -8.381   7.965  65.073  1.00  0.00    -0.103 C  
HETATM   10  C   UNL     1      -8.355   7.149  67.439  1.00  0.00    -0.119 A  
HETATM   11  C   UNL     1      -7.787   5.910  67.195  1.00  0.00    -0.102 A  
HETATM   12  C   UNL     1      -7.832   4.951  68.201  1.00  0.00    -0.083 A  
HETATM   13  C   UNL     1      -8.418   5.248  69.441  1.00  0.00    -0.094 A  
HETATM   14  C   UNL     1      -8.959   6.515  69.711  1.00  0.00    -0.142 A  
HETATM   15  C   UNL     1      -8.924   7.465  68.709  1.00  0.00    -0.129 A  
HETATM   16  C   UNL     1      -9.500   8.848  68.662  1.00  0.00    -0.153 C  
HETATM   17  C   UNL     1     -10.833   9.338  69.217  1.00  0.00    -0.170 C  
HETATM   18  C   UNL     1     -10.819  10.847  68.768  1.00  0.00    -0.209 C  
HETATM   19  N   UNL     1     -11.095  10.894  67.300  1.00  0.00    -0.303 NA 
HETATM   20  C   UNL     1      -9.370  11.467  68.925  1.00  0.00    -0.044 C  
HETATM   21  C   UNL     1      -8.574  10.081  69.260  1.00  0.00    -0.168 C  
HETATM   22  C   UNL     1     -11.353  12.309  67.010  1.00  0.00    -0.334 C  
HETATM   23  O   UNL     1     -12.281  12.333  65.956  1.00  0.00    -0.646 OA 
HETATM   24  O   UNL     1      -8.514   9.997  70.694  1.00  0.00    -0.369 OA 
HETATM   25  H   UNL     1      -7.981  10.705  71.037  1.00  0.00     0.000 HD 
HETATM   26  H   UNL     1     -13.094  11.892  66.175  1.00  0.00     0.000 HD 
ENDBRANCH   2   3
TORSDOF 1
ENDMDL
MODEL       86
REMARK 921   NORMALIZED FREE ENERGY PREDICTED BY IDOCK:   -4.58 KCAL/MOL
REMARK 922        TOTAL FREE ENERGY PREDICTED BY IDOCK:   -4.98 KCAL/MOL
REMARK 923 INTER-LIGAND FREE ENERGY PREDICTED BY IDOCK:   -4.82 KCAL/MOL
REMARK 924 INTRA-LIGAND FREE ENERGY PREDICTED BY IDOCK:   -0.16 KCAL/MOL
REMARK 927      BINDING AFFINITY PREDICTED BY RF-SCORE:    0.00 PKD
ROOT
HETATM    1  C   UNL     1      -8.126  10.882  67.577  1.00  0.00    -0.116 C  
HETATM    2  C   UNL     1      -8.014   9.564  66.815  1.00  0.00    -0.109 C  
ENDROOT
BRANCH   2   3
HETATM    3  C   UNL     1      -8.673   8.402  67.544  1.00  0.00    -0.136 C  
HETATM    4  C   UNL     1      -8.224   8.154  69.028  1.00  0.00    -0.127 C  
HETATM    5  C   UNL     1      -7.979   6.615  68.861  1.00  0.00    -0.112 C  
HETATM    6  C   UNL     1      -9.464   6.127  68.832  1.00  0.00    -0.123 C  
HETATM    7  C   UNL     1     -10.051   5.185  69.878  1.00  0.00    -0.272 C  
HETATM    8  N   UNL     1      -9.078   4.225  70.396  1.00  0.00    -0.097 NA 
HETATM    9  C   UNL     1      -8.557   3.210  69.501  1.00  0.00    -0.066 C  
HETATM   10  C   UNL     1      -9.665   3.910  71.634  1.00  0.00    -0.170 A  
HETATM   11  C   UNL     1      -9.552   2.701  72.300  1.00  0.00    -0.191 A  
HETATM   12  C   UNL     1     -10.299   2.511  73.456  1.00  0.00    -0.210 A  
HETATM   13  C   UNL     1     -11.126   3.534  73.946  1.00  0.00    -0.224 A  
HETATM   14  C   UNL     1     -11.214   4.777  73.300  1.00  0.00    -0.421 A  
HETATM   15  C   UNL     1     -10.480   4.964  72.145  1.00  0.00    -0.257 A  
HETATM   16  C   UNL     1     -10.445   6.123  71.194  1.00  0.00    -0.281 C  
HETATM   17  C   UNL     1     -11.603   6.993  70.718  1.00  0.00    -0.381 C  
HETATM   18  C   UNL     1     -10.872   7.953  69.707  1.00  0.00    -0.202 C  
HETATM   19  N   UNL     1     -10.578   7.177  68.463  1.00  0.00    -0.202 NA 
HETATM   20  C   UNL     1      -9.451   8.377  70.261  1.00  0.00    -0.168 C  
HETATM   21  C   UNL     1      -9.398   7.357  71.535  1.00  0.00    -0.144 C  
HETATM   22  C   UNL     1     -10.172   8.185  67.478  1.00  0.00    -0.243 C  
HETATM   23  O   UNL     1     -10.593   7.703  66.226  1.00  0.00    -0.320 OA 
HETATM   24  O   UNL     1      -9.879   8.109  72.663  1.00  0.00    -0.248 OA 
HETATM   25  H   UNL     1      -9.278   8.818  72.859  1.00  0.00     0.000 HD 
HETATM   26  H   UNL     1     -11.532   7.567  66.185  1.00  0.00     0.000 HD 
ENDBRANCH   2   3
TORSDOF 1
ENDMDL
MODEL       87
REMARK 921   NORMALIZED FREE ENERGY PREDICTED BY IDOCK:   -4.57 KCAL/MOL
REMARK 922        TOTAL FREE ENERGY PREDICTED BY IDOCK:   -4.97 KCAL/MOL
REMARK 923 INTER-LIGAND FREE ENERGY PREDICTED BY IDOCK:   -4.81 KCAL/MOL
REMARK 924 INTRA-LIGAND FREE ENERGY PREDICTED BY IDOCK:   -0.16 KCAL/MOL
REMARK 927      BINDING AFFINITY PREDICTED BY RF-SCORE:    0.00 PKD
ROOT
HETATM    1  C   UNL     1      -6.349   4.137  68.746  1.00  0.00    -0.033 C  
HETATM    2  C   UNL     1      -6.989   4.668  70.027  1.00  0.00    -0.048 C  
ENDROOT
BRANCH   2   3
HETATM    3  C   UNL     1      -8.085   5.689  69.761  1.00  0.00    -0.102 C  
HETATM    4  C   UNL     1      -7.624   7.166  69.493  1.00  0.00    -0.101 C  
HETATM    5  C   UNL     1      -8.628   7.827  70.501  1.00  0.00    -0.132 C  
HETATM    6  C   UNL     1      -9.944   7.688  69.669  1.00  0.00    -0.185 C  
HETATM    7  C   UNL     1     -10.759   8.887  69.195  1.00  0.00    -0.143 C  
HETATM    8  N   UNL     1     -10.710  10.016  70.122  1.00  0.00    -0.288 NA 
HETATM    9  C   UNL     1     -11.327   9.875  71.427  1.00  0.00    -0.274 C  
HETATM   10  C   UNL     1     -11.023  11.074  69.250  1.00  0.00    -0.252 A  
HETATM   11  C   UNL     1     -11.672  12.246  69.600  1.00  0.00    -0.386 A  
HETATM   12  C   UNL     1     -12.016  13.138  68.590  1.00  0.00    -0.319 A  
HETATM   13  C   UNL     1     -11.687  12.862  67.254  1.00  0.00    -0.431 A  
HETATM   14  C   UNL     1     -10.991  11.696  66.897  1.00  0.00    -0.342 A  
HETATM   15  C   UNL     1     -10.657  10.804  67.897  1.00  0.00    -0.258 A  
HETATM   16  C   UNL     1     -10.017   9.451  67.818  1.00  0.00    -0.228 C  
HETATM   17  C   UNL     1     -10.240   8.357  66.780  1.00  0.00    -0.376 C  
HETATM   18  C   UNL     1      -9.312   7.212  67.334  1.00  0.00    -0.127 C  
HETATM   19  N   UNL     1      -9.983   6.608  68.524  1.00  0.00    -0.146 NA 
HETATM   20  C   UNL     1      -7.957   7.810  67.896  1.00  0.00    -0.125 C  
HETATM   21  C   UNL     1      -8.364   9.389  67.817  1.00  0.00    -0.115 C  
HETATM   22  C   UNL     1      -9.222   5.385  68.805  1.00  0.00    -0.124 C  
HETATM   23  O   UNL     1     -10.141   4.463  69.335  1.00  0.00    -0.162 OA 
HETATM   24  O   UNL     1      -7.858   9.864  66.557  1.00  0.00    -0.108 OA 
HETATM   25  H   UNL     1      -6.909   9.829  66.557  1.00  0.00     0.000 HD 
HETATM   26  H   UNL     1     -10.854   4.273  68.737  1.00  0.00     0.000 HD 
ENDBRANCH   2   3
TORSDOF 1
ENDMDL
MODEL       88
REMARK 921   NORMALIZED FREE ENERGY PREDICTED BY IDOCK:   -4.54 KCAL/MOL
REMARK 922        TOTAL FREE ENERGY PREDICTED BY IDOCK:   -4.93 KCAL/MOL
REMARK 923 INTER-LIGAND FREE ENERGY PREDICTED BY IDOCK:   -4.79 KCAL/MOL
REMARK 924 INTRA-LIGAND FREE ENERGY PREDICTED BY IDOCK:   -0.14 KCAL/MOL
REMARK 927      BINDING AFFINITY PREDICTED BY RF-SCORE:    0.00 PKD
ROOT
HETATM    1  C   UNL     1      -5.608  19.210  63.425  1.00  0.00    -0.233 C  
HETATM    2  C   UNL     1      -5.555  19.121  64.949  1.00  0.00    -0.257 C  
ENDROOT
BRANCH   2   3
HETATM    3  C   UNL     1      -6.859  18.627  65.557  1.00  0.00    -0.240 C  
HETATM    4  C   UNL     1      -6.786  17.315  66.416  1.00  0.00    -0.300 C  
HETATM    5  C   UNL     1      -7.998  16.605  65.719  1.00  0.00     0.535 C  
HETATM    6  C   UNL     1      -9.168  17.414  66.368  1.00  0.00    -0.249 C  
HETATM    7  C   UNL     1     -10.234  16.771  67.249  1.00  0.00    -0.292 C  
HETATM    8  N   UNL     1     -10.551  15.399  66.858  1.00  0.00    -0.304 NA 
HETATM    9  C   UNL     1     -11.201  15.170  65.583  1.00  0.00    -0.296 C  
HETATM   10  C   UNL     1     -11.068  14.904  68.068  1.00  0.00    -0.295 A  
HETATM   11  C   UNL     1     -12.027  13.912  68.193  1.00  0.00    -0.385 A  
HETATM   12  C   UNL     1     -12.520  13.626  69.461  1.00  0.00    -0.092 A  
HETATM   13  C   UNL     1     -12.035  14.311  70.585  1.00  0.00    -0.392 A  
HETATM   14  C   UNL     1     -11.033  15.287  70.472  1.00  0.00    -0.318 A  
HETATM   15  C   UNL     1     -10.549  15.580  69.212  1.00  0.00    -0.236 A  
HETATM   16  C   UNL     1      -9.570  16.625  68.767  1.00  0.00    -0.254 C  
HETATM   17  C   UNL     1      -9.422  18.058  69.266  1.00  0.00     0.114 C  
HETATM   18  C   UNL     1      -8.267  18.590  68.338  1.00  0.00    -0.328 C  
HETATM   19  N   UNL     1      -8.839  18.827  66.978  1.00  0.00    -0.287 NA 
HETATM   20  C   UNL     1      -7.162  17.477  68.121  1.00  0.00    -0.216 C  
HETATM   21  C   UNL     1      -7.964  16.234  68.813  1.00  0.00    -0.221 C  
HETATM   22  C   UNL     1      -7.805  19.581  66.261  1.00  0.00    -0.317 C  
HETATM   23  O   UNL     1      -8.483  20.427  65.366  1.00  0.00    -0.378 OA 
HETATM   24  O   UNL     1      -7.511  16.183  70.177  1.00  0.00     0.446 OA 
HETATM   25  H   UNL     1      -6.589  15.958  70.204  1.00  0.00     0.000 HD 
HETATM   26  H   UNL     1      -9.076  21.024  65.807  1.00  0.00     0.000 HD 
ENDBRANCH   2   3
TORSDOF 1
ENDMDL
MODEL       89
REMARK 921   NORMALIZED FREE ENERGY PREDICTED BY IDOCK:   -4.53 KCAL/MOL
REMARK 922        TOTAL FREE ENERGY PREDICTED BY IDOCK:   -4.92 KCAL/MOL
REMARK 923 INTER-LIGAND FREE ENERGY PREDICTED BY IDOCK:   -4.80 KCAL/MOL
REMARK 924 INTRA-LIGAND FREE ENERGY PREDICTED BY IDOCK:   -0.12 KCAL/MOL
REMARK 927      BINDING AFFINITY PREDICTED BY RF-SCORE:    0.00 PKD
ROOT
HETATM    1  C   UNL     1     -10.958   7.580  73.186  1.00  0.00    -0.420 C  
HETATM    2  C   UNL     1     -11.577   7.370  71.807  1.00  0.00    -0.305 C  
ENDROOT
BRANCH   2   3
HETATM    3  C   UNL     1     -10.539   7.099  70.727  1.00  0.00    -0.240 C  
HETATM    4  C   UNL     1     -10.829   5.903  69.752  1.00  0.00    -0.447 C  
HETATM    5  C   UNL     1      -9.412   5.247  69.885  1.00  0.00    -0.211 C  
HETATM    6  C   UNL     1      -8.590   6.251  69.013  1.00  0.00    -0.123 C  
HETATM    7  C   UNL     1      -7.861   5.842  67.737  1.00  0.00    -0.098 C  
HETATM    8  N   UNL     1      -7.348   4.473  67.783  1.00  0.00    -0.069 NA 
HETATM    9  C   UNL     1      -6.284   4.159  68.716  1.00  0.00    -0.032 C  
HETATM   10  C   UNL     1      -7.256   4.191  66.409  1.00  0.00    -0.071 A  
HETATM   11  C   UNL     1      -6.344   3.332  65.819  1.00  0.00    -0.032 A  
HETATM   12  C   UNL     1      -6.306   3.260  64.431  1.00  0.00    -0.023 A  
HETATM   13  C   UNL     1      -7.192   4.023  63.654  1.00  0.00    -0.050 A  
HETATM   14  C   UNL     1      -8.147   4.864  64.246  1.00  0.00    -0.115 A  
HETATM   15  C   UNL     1      -8.179   4.945  65.624  1.00  0.00    -0.115 A  
HETATM   16  C   UNL     1      -9.001   5.815  66.527  1.00  0.00    -0.128 C  
HETATM   17  C   UNL     1      -9.397   7.274  66.333  1.00  0.00    -0.199 C  
HETATM   18  C   UNL     1     -10.186   7.559  67.665  1.00  0.00    -0.213 C  
HETATM   19  N   UNL     1      -9.192   7.686  68.773  1.00  0.00    -0.143 NA 
HETATM   20  C   UNL     1     -11.080   6.315  68.066  1.00  0.00    -0.365 C  
HETATM   21  C   UNL     1     -10.498   5.261  66.963  1.00  0.00    -0.229 C  
HETATM   22  C   UNL     1      -9.955   8.229  69.903  1.00  0.00    -0.190 C  
HETATM   23  O   UNL     1      -9.058   9.025  70.637  1.00  0.00    -0.193 OA 
HETATM   24  O   UNL     1     -11.392   5.332  65.839  1.00  0.00    -0.793 OA 
HETATM   25  H   UNL     1     -12.251   5.014  66.090  1.00  0.00     0.000 HD 
HETATM   26  H   UNL     1      -8.692   9.733  70.120  1.00  0.00     0.000 HD 
ENDBRANCH   2   3
TORSDOF 1
ENDMDL
MODEL       90
REMARK 921   NORMALIZED FREE ENERGY PREDICTED BY IDOCK:   -4.53 KCAL/MOL
REMARK 922        TOTAL FREE ENERGY PREDICTED BY IDOCK:   -4.92 KCAL/MOL
REMARK 923 INTER-LIGAND FREE ENERGY PREDICTED BY IDOCK:   -4.76 KCAL/MOL
REMARK 924 INTRA-LIGAND FREE ENERGY PREDICTED BY IDOCK:   -0.16 KCAL/MOL
REMARK 927      BINDING AFFINITY PREDICTED BY RF-SCORE:    0.00 PKD
ROOT
HETATM    1  C   UNL     1     -10.771  13.017  66.495  1.00  0.00    -0.290 C  
HETATM    2  C   UNL     1     -10.899  11.538  66.135  1.00  0.00    -0.330 C  
ENDROOT
BRANCH   2   3
HETATM    3  C   UNL     1     -10.179  10.626  67.118  1.00  0.00    -0.261 C  
HETATM    4  C   UNL     1     -10.275  11.010  68.637  1.00  0.00    -0.211 C  
HETATM    5  C   UNL     1      -8.739  10.883  68.926  1.00  0.00    -0.144 C  
HETATM    6  C   UNL     1      -8.616   9.324  68.940  1.00  0.00    -0.130 C  
HETATM    7  C   UNL     1      -8.175   8.535  70.169  1.00  0.00    -0.121 C  
HETATM    8  N   UNL     1      -7.210   9.255  70.997  1.00  0.00    -0.223 NA 
HETATM    9  C   UNL     1      -5.889   9.517  70.459  1.00  0.00    -0.056 C  
HETATM   10  C   UNL     1      -7.408   8.615  72.232  1.00  0.00     0.006 A  
HETATM   11  C   UNL     1      -6.450   8.442  73.218  1.00  0.00    -0.122 A  
HETATM   12  C   UNL     1      -6.777   7.676  74.330  1.00  0.00    -0.112 A  
HETATM   13  C   UNL     1      -8.058   7.116  74.458  1.00  0.00    -0.192 A  
HETATM   14  C   UNL     1      -9.048   7.323  73.485  1.00  0.00    -0.226 A  
HETATM   15  C   UNL     1      -8.722   8.075  72.373  1.00  0.00    -0.224 A  
HETATM   16  C   UNL     1      -9.517   8.380  71.139  1.00  0.00    -0.227 C  
HETATM   17  C   UNL     1     -10.453   7.459  70.365  1.00  0.00    -0.230 C  
HETATM   18  C   UNL     1     -10.887   8.392  69.173  1.00  0.00    -0.023 C  
HETATM   19  N   UNL     1      -9.740   8.489  68.220  1.00  0.00    -0.151 NA 
HETATM   20  C   UNL     1     -11.118   9.876  69.676  1.00  0.00    -0.279 C  
HETATM   21  C   UNL     1     -10.524   9.691  71.186  1.00  0.00    -0.211 C  
HETATM   22  C   UNL     1     -10.300   9.118  67.019  1.00  0.00    -0.263 C  
HETATM   23  O   UNL     1      -9.587   8.590  65.929  1.00  0.00    -0.399 OA 
HETATM   24  O   UNL     1     -11.659   9.406  72.023  1.00  0.00    -0.342 OA 
HETATM   25  H   UNL     1     -12.237  10.159  72.050  1.00  0.00     0.000 HD 
HETATM   26  H   UNL     1      -9.663   7.644  65.867  1.00  0.00     0.000 HD 
ENDBRANCH   2   3
TORSDOF 1
ENDMDL
MODEL       91
REMARK 921   NORMALIZED FREE ENERGY PREDICTED BY IDOCK:   -4.51 KCAL/MOL
REMARK 922        TOTAL FREE ENERGY PREDICTED BY IDOCK:   -4.90 KCAL/MOL
REMARK 923 INTER-LIGAND FREE ENERGY PREDICTED BY IDOCK:   -4.77 KCAL/MOL
REMARK 924 INTRA-LIGAND FREE ENERGY PREDICTED BY IDOCK:   -0.14 KCAL/MOL
REMARK 927      BINDING AFFINITY PREDICTED BY RF-SCORE:    0.00 PKD
ROOT
HETATM    1  C   UNL     1      -9.005  12.448  67.973  1.00  0.00    -0.194 C  
HETATM    2  C   UNL     1     -10.183  11.487  67.828  1.00  0.00    -0.200 C  
ENDROOT
BRANCH   2   3
HETATM    3  C   UNL     1      -9.927  10.135  68.479  1.00  0.00    -0.177 C  
HETATM    4  C   UNL     1      -9.970  10.087  70.048  1.00  0.00    -0.273 C  
HETATM    5  C   UNL     1      -8.619   9.311  70.217  1.00  0.00    -0.234 C  
HETATM    6  C   UNL     1      -9.095   7.885  69.784  1.00  0.00    -0.146 C  
HETATM    7  C   UNL     1      -9.067   6.680  70.719  1.00  0.00    -0.151 C  
HETATM    8  N   UNL     1      -7.958   6.717  71.671  1.00  0.00    -0.102 NA 
HETATM    9  C   UNL     1      -6.603   6.596  71.167  1.00  0.00    -0.053 C  
HETATM   10  C   UNL     1      -8.464   5.885  72.683  1.00  0.00    -0.119 A  
HETATM   11  C   UNL     1      -7.710   5.093  73.533  1.00  0.00    -0.099 A  
HETATM   12  C   UNL     1      -8.375   4.232  74.399  1.00  0.00    -0.090 A  
HETATM   13  C   UNL     1      -9.777   4.191  74.424  1.00  0.00    -0.154 A  
HETATM   14  C   UNL     1     -10.549   5.020  73.596  1.00  0.00    -0.321 A  
HETATM   15  C   UNL     1      -9.891   5.869  72.728  1.00  0.00    -0.181 A  
HETATM   16  C   UNL     1     -10.428   6.784  71.668  1.00  0.00    -0.231 C  
HETATM   17  C   UNL     1     -11.590   6.543  70.710  1.00  0.00    -0.437 C  
HETATM   18  C   UNL     1     -11.560   7.863  69.852  1.00  0.00     0.251 C  
HETATM   19  N   UNL     1     -10.401   7.776  68.912  1.00  0.00    -0.212 NA 
HETATM   20  C   UNL     1     -11.246   9.119  70.763  1.00  0.00    -0.336 C  
HETATM   21  C   UNL     1     -10.867   8.310  72.130  1.00  0.00    -0.320 C  
HETATM   22  C   UNL     1     -10.602   8.879  67.965  1.00  0.00    -0.168 C  
HETATM   23  O   UNL     1     -10.071   8.445  66.738  1.00  0.00    -0.255 OA 
HETATM   24  O   UNL     1     -12.077   8.258  72.905  1.00  0.00    -0.565 OA 
HETATM   25  H   UNL     1     -12.329   9.134  73.171  1.00  0.00     0.000 HD 
HETATM   26  H   UNL     1     -10.494   7.657  66.416  1.00  0.00     0.000 HD 
ENDBRANCH   2   3
TORSDOF 1
ENDMDL
MODEL       92
REMARK 921   NORMALIZED FREE ENERGY PREDICTED BY IDOCK:   -4.48 KCAL/MOL
REMARK 922        TOTAL FREE ENERGY PREDICTED BY IDOCK:   -4.87 KCAL/MOL
REMARK 923 INTER-LIGAND FREE ENERGY PREDICTED BY IDOCK:   -4.74 KCAL/MOL
REMARK 924 INTRA-LIGAND FREE ENERGY PREDICTED BY IDOCK:   -0.14 KCAL/MOL
REMARK 927      BINDING AFFINITY PREDICTED BY RF-SCORE:    0.00 PKD
ROOT
HETATM    1  C   UNL     1      -9.764   5.461  66.283  1.00  0.00    -0.181 C  
HETATM    2  C   UNL     1     -10.695   6.164  67.268  1.00  0.00    -0.414 C  
ENDROOT
BRANCH   2   3
HETATM    3  C   UNL     1     -10.162   7.514  67.724  1.00  0.00    -0.257 C  
HETATM    4  C   UNL     1     -10.359   8.721  66.739  1.00  0.00    -0.328 C  
HETATM    5  C   UNL     1      -8.877   9.226  66.813  1.00  0.00    -0.142 C  
HETATM    6  C   UNL     1      -8.910   9.889  68.229  1.00  0.00    -0.119 C  
HETATM    7  C   UNL     1      -8.665  11.377  68.457  1.00  0.00    -0.149 C  
HETATM    8  N   UNL     1      -7.713  11.953  67.508  1.00  0.00    -0.141 NA 
HETATM    9  C   UNL     1      -6.329  11.525  67.561  1.00  0.00    -0.076 C  
HETATM   10  C   UNL     1      -8.087  13.307  67.565  1.00  0.00    -0.186 A  
HETATM   11  C   UNL     1      -7.247  14.389  67.362  1.00  0.00    -0.148 A  
HETATM   12  C   UNL     1      -7.749  15.667  67.578  1.00  0.00    -0.192 A  
HETATM   13  C   UNL     1      -9.085  15.850  67.967  1.00  0.00    -0.184 A  
HETATM   14  C   UNL     1      -9.955  14.762  68.133  1.00  0.00    -0.221 A  
HETATM   15  C   UNL     1      -9.455  13.490  67.929  1.00  0.00    -0.215 A  
HETATM   16  C   UNL     1     -10.099  12.151  68.125  1.00  0.00    -0.206 C  
HETATM   17  C   UNL     1     -11.045  11.708  69.235  1.00  0.00    -0.291 C  
HETATM   18  C   UNL     1     -11.273  10.196  68.861  1.00  0.00    -0.170 C  
HETATM   19  N   UNL     1     -10.039   9.437  69.229  1.00  0.00    -0.188 NA 
HETATM   20  C   UNL     1     -11.402  10.018  67.293  1.00  0.00     0.309 C  
HETATM   21  C   UNL     1     -10.972  11.533  66.863  1.00  0.00    -0.296 C  
HETATM   22  C   UNL     1     -10.421   8.025  69.128  1.00  0.00    -0.208 C  
HETATM   23  O   UNL     1      -9.666   7.342  70.098  1.00  0.00    -0.175 OA 
HETATM   24  O   UNL     1     -12.202  12.265  66.715  1.00  0.00    -0.558 OA 
HETATM   25  H   UNL     1     -12.703  11.911  65.991  1.00  0.00     0.000 HD 
HETATM   26  H   UNL     1      -9.828   7.662  70.978  1.00  0.00     0.000 HD 
ENDBRANCH   2   3
TORSDOF 1
ENDMDL
MODEL       93
REMARK 921   NORMALIZED FREE ENERGY PREDICTED BY IDOCK:   -4.45 KCAL/MOL
REMARK 922        TOTAL FREE ENERGY PREDICTED BY IDOCK:   -4.84 KCAL/MOL
REMARK 923 INTER-LIGAND FREE ENERGY PREDICTED BY IDOCK:   -4.70 KCAL/MOL
REMARK 924 INTRA-LIGAND FREE ENERGY PREDICTED BY IDOCK:   -0.14 KCAL/MOL
REMARK 927      BINDING AFFINITY PREDICTED BY RF-SCORE:    0.00 PKD
ROOT
HETATM    1  C   UNL     1      -9.065  15.414  68.484  1.00  0.00    -0.197 C  
HETATM    2  C   UNL     1     -10.275  14.511  68.715  1.00  0.00    -0.244 C  
ENDROOT
BRANCH   2   3
HETATM    3  C   UNL     1     -10.281  13.288  67.809  1.00  0.00    -0.228 C  
HETATM    4  C   UNL     1      -9.044  12.327  67.913  1.00  0.00    -0.190 C  
HETATM    5  C   UNL     1      -8.787  12.237  66.370  1.00  0.00    -0.072 C  
HETATM    6  C   UNL     1      -9.967  11.289  65.975  1.00  0.00    -0.231 C  
HETATM    7  C   UNL     1      -9.755   9.911  65.357  1.00  0.00    -0.306 C  
HETATM    8  N   UNL     1      -8.571   9.841  64.502  1.00  0.00    -0.169 NA 
HETATM    9  C   UNL     1      -8.556  10.603  63.269  1.00  0.00    -0.151 C  
HETATM   10  C   UNL     1      -8.314   8.459  64.539  1.00  0.00    -0.116 A  
HETATM   11  C   UNL     1      -7.722   7.719  63.529  1.00  0.00    -0.131 A  
HETATM   12  C   UNL     1      -7.652   6.339  63.674  1.00  0.00    -0.090 A  
HETATM   13  C   UNL     1      -8.149   5.719  64.832  1.00  0.00    -0.131 A  
HETATM   14  C   UNL     1      -8.712   6.466  65.878  1.00  0.00    -0.152 A  
HETATM   15  C   UNL     1      -8.791   7.837  65.731  1.00  0.00    -0.141 A  
HETATM   16  C   UNL     1      -9.419   8.874  66.613  1.00  0.00    -0.261 C  
HETATM   17  C   UNL     1     -10.720   8.784  67.402  1.00  0.00    -0.216 C  
HETATM   18  C   UNL     1     -10.796  10.222  68.037  1.00  0.00    -0.275 C  
HETATM   19  N   UNL     1     -11.189  11.183  66.961  1.00  0.00    -0.363 NA 
HETATM   20  C   UNL     1      -9.363  10.707  68.505  1.00  0.00    -0.170 C  
HETATM   21  C   UNL     1      -8.493   9.500  67.832  1.00  0.00    -0.119 C  
HETATM   22  C   UNL     1     -11.520  12.425  67.668  1.00  0.00    -0.337 C  
HETATM   23  O   UNL     1     -12.529  13.049  66.915  1.00  0.00    -0.298 OA 
HETATM   24  O   UNL     1      -8.316   8.517  68.867  1.00  0.00    -0.116 OA 
HETATM   25  H   UNL     1      -7.784   8.876  69.567  1.00  0.00     0.000 HD 
HETATM   26  H   UNL     1     -13.305  12.508  66.826  1.00  0.00     0.000 HD 
ENDBRANCH   2   3
TORSDOF 1
ENDMDL
MODEL       94
REMARK 921   NORMALIZED FREE ENERGY PREDICTED BY IDOCK:   -4.43 KCAL/MOL
REMARK 922        TOTAL FREE ENERGY PREDICTED BY IDOCK:   -4.82 KCAL/MOL
REMARK 923 INTER-LIGAND FREE ENERGY PREDICTED BY IDOCK:   -4.64 KCAL/MOL
REMARK 924 INTRA-LIGAND FREE ENERGY PREDICTED BY IDOCK:   -0.17 KCAL/MOL
REMARK 927      BINDING AFFINITY PREDICTED BY RF-SCORE:    0.00 PKD
ROOT
HETATM    1  C   UNL     1      -8.695   9.526  65.125  1.00  0.00    -0.200 C  
HETATM    2  C   UNL     1      -9.521  10.498  65.965  1.00  0.00    -0.227 C  
ENDROOT
BRANCH   2   3
HETATM    3  C   UNL     1      -9.745  10.005  67.388  1.00  0.00    -0.196 C  
HETATM    4  C   UNL     1      -9.429   8.493  67.669  1.00  0.00    -0.173 C  
HETATM    5  C   UNL     1     -10.776   8.188  68.410  1.00  0.00    -0.066 C  
HETATM    6  C   UNL     1     -10.477   8.894  69.773  1.00  0.00    -0.212 C  
HETATM    7  C   UNL     1     -10.418   8.147  71.101  1.00  0.00    -0.199 C  
HETATM    8  N   UNL     1     -11.337   7.012  71.163  1.00  0.00    -0.269 NA 
HETATM    9  C   UNL     1     -12.764   7.270  71.157  1.00  0.00    -0.306 C  
HETATM   10  C   UNL     1     -10.715   6.235  72.156  1.00  0.00    -0.231 A  
HETATM   11  C   UNL     1     -11.357   5.380  73.035  1.00  0.00    -0.355 A  
HETATM   12  C   UNL     1     -10.608   4.779  74.039  1.00  0.00    -0.351 A  
HETATM   13  C   UNL     1      -9.228   5.018  74.138  1.00  0.00    -0.117 A  
HETATM   14  C   UNL     1      -8.562   5.850  73.225  1.00  0.00    -0.118 A  
HETATM   15  C   UNL     1      -9.307   6.456  72.232  1.00  0.00    -0.141 A  
HETATM   16  C   UNL     1      -8.907   7.459  71.192  1.00  0.00    -0.142 C  
HETATM   17  C   UNL     1      -7.950   8.637  71.332  1.00  0.00    -0.174 C  
HETATM   18  C   UNL     1      -8.046   9.284  69.899  1.00  0.00    -0.124 C  
HETATM   19  N   UNL     1      -9.355   9.998  69.801  1.00  0.00    -0.221 NA 
HETATM   20  C   UNL     1      -8.113   8.165  68.781  1.00  0.00    -0.120 C  
HETATM   21  C   UNL     1      -8.296   6.878  69.769  1.00  0.00    -0.132 C  
HETATM   22  C   UNL     1      -9.253  10.804  68.579  1.00  0.00    -0.174 C  
HETATM   23  O   UNL     1     -10.019  11.961  68.805  1.00  0.00    -0.335 OA 
HETATM   24  O   UNL     1      -6.974   6.353  69.982  1.00  0.00    -0.062 OA 
HETATM   25  H   UNL     1      -6.624   6.019  69.164  1.00  0.00     0.000 HD 
HETATM   26  H   UNL     1      -9.711  12.461  69.552  1.00  0.00     0.000 HD 
ENDBRANCH   2   3
TORSDOF 1
ENDMDL
MODEL       95
REMARK 921   NORMALIZED FREE ENERGY PREDICTED BY IDOCK:   -4.42 KCAL/MOL
REMARK 922        TOTAL FREE ENERGY PREDICTED BY IDOCK:   -4.81 KCAL/MOL
REMARK 923 INTER-LIGAND FREE ENERGY PREDICTED BY IDOCK:   -4.65 KCAL/MOL
REMARK 924 INTRA-LIGAND FREE ENERGY PREDICTED BY IDOCK:   -0.16 KCAL/MOL
REMARK 927      BINDING AFFINITY PREDICTED BY RF-SCORE:    0.00 PKD
ROOT
HETATM    1  C   UNL     1     -11.163  13.932  66.008  1.00  0.00    -0.300 C  
HETATM    2  C   UNL     1      -9.672  13.738  66.276  1.00  0.00    -0.297 C  
ENDROOT
BRANCH   2   3
HETATM    3  C   UNL     1      -9.322  12.308  66.662  1.00  0.00    -0.228 C  
HETATM    4  C   UNL     1      -9.673  11.866  68.127  1.00  0.00    -0.194 C  
HETATM    5  C   UNL     1      -8.270  11.241  68.441  1.00  0.00    -0.149 C  
HETATM    6  C   UNL     1      -8.394   9.921  67.611  1.00  0.00    -0.114 C  
HETATM    7  C   UNL     1      -8.347   8.534  68.243  1.00  0.00    -0.124 C  
HETATM    8  N   UNL     1      -7.476   8.467  69.416  1.00  0.00    -0.087 NA 
HETATM    9  C   UNL     1      -6.048   8.639  69.235  1.00  0.00    -0.042 C  
HETATM   10  C   UNL     1      -8.025   7.353  70.075  1.00  0.00    -0.119 A  
HETATM   11  C   UNL     1      -7.333   6.472  70.889  1.00  0.00    -0.083 A  
HETATM   12  C   UNL     1      -7.999   5.349  71.365  1.00  0.00    -0.115 A  
HETATM   13  C   UNL     1      -9.349   5.133  71.046  1.00  0.00    -0.198 A  
HETATM   14  C   UNL     1     -10.069   6.043  70.257  1.00  0.00    -0.249 A  
HETATM   15  C   UNL     1      -9.406   7.155  69.775  1.00  0.00    -0.146 A  
HETATM   16  C   UNL     1      -9.869   8.232  68.841  1.00  0.00    -0.183 C  
HETATM   17  C   UNL     1     -10.752   8.100  67.605  1.00  0.00    -0.203 C  
HETATM   18  C   UNL     1     -10.779   9.585  67.084  1.00  0.00    -0.182 C  
HETATM   19  N   UNL     1      -9.457   9.876  66.451  1.00  0.00    -0.173 NA 
HETATM   20  C   UNL     1     -10.879  10.603  68.293  1.00  0.00    -0.287 C  
HETATM   21  C   UNL     1     -10.650   9.531  69.503  1.00  0.00    -0.221 C  
HETATM   22  C   UNL     1      -9.650  11.147  65.744  1.00  0.00    -0.221 C  
HETATM   23  O   UNL     1      -8.815  11.100  64.614  1.00  0.00    -0.363 OA 
HETATM   24  O   UNL     1     -11.964   9.141  69.938  1.00  0.00    -0.372 OA 
HETATM   25  H   UNL     1     -12.413   9.887  70.319  1.00  0.00     0.000 HD 
HETATM   26  H   UNL     1      -9.020  10.372  64.039  1.00  0.00     0.000 HD 
ENDBRANCH   2   3
TORSDOF 1
ENDMDL
MODEL       96
REMARK 921   NORMALIZED FREE ENERGY PREDICTED BY IDOCK:   -4.39 KCAL/MOL
REMARK 922        TOTAL FREE ENERGY PREDICTED BY IDOCK:   -4.78 KCAL/MOL
REMARK 923 INTER-LIGAND FREE ENERGY PREDICTED BY IDOCK:   -4.64 KCAL/MOL
REMARK 924 INTRA-LIGAND FREE ENERGY PREDICTED BY IDOCK:   -0.14 KCAL/MOL
REMARK 927      BINDING AFFINITY PREDICTED BY RF-SCORE:    0.00 PKD
ROOT
HETATM    1  C   UNL     1     -12.159  14.660  67.083  1.00  0.00    -0.218 C  
HETATM    2  C   UNL     1     -10.879  14.075  66.489  1.00  0.00    -0.300 C  
ENDROOT
BRANCH   2   3
HETATM    3  C   UNL     1     -10.406  12.827  67.220  1.00  0.00    -0.235 C  
HETATM    4  C   UNL     1     -10.624  11.455  66.489  1.00  0.00    -0.309 C  
HETATM    5  C   UNL     1     -11.266  10.724  67.718  1.00  0.00    -0.385 C  
HETATM    6  C   UNL     1      -9.977  10.493  68.572  1.00  0.00    -0.170 C  
HETATM    7  C   UNL     1      -9.460   9.105  68.938  1.00  0.00    -0.151 C  
HETATM    8  N   UNL     1     -10.529   8.125  69.124  1.00  0.00    -0.220 NA 
HETATM    9  C   UNL     1     -11.438   8.288  70.242  1.00  0.00    -0.065 C  
HETATM   10  C   UNL     1      -9.822   6.932  68.893  1.00  0.00    -0.147 A  
HETATM   11  C   UNL     1     -10.106   5.700  69.458  1.00  0.00    -0.292 A  
HETATM   12  C   UNL     1      -9.232   4.646  69.221  1.00  0.00    -0.185 A  
HETATM   13  C   UNL     1      -8.104   4.827  68.406  1.00  0.00    -0.084 A  
HETATM   14  C   UNL     1      -7.832   6.061  67.795  1.00  0.00    -0.105 A  
HETATM   15  C   UNL     1      -8.694   7.112  68.037  1.00  0.00    -0.127 A  
HETATM   16  C   UNL     1      -8.616   8.549  67.618  1.00  0.00    -0.133 C  
HETATM   17  C   UNL     1      -7.386   9.446  67.537  1.00  0.00    -0.084 C  
HETATM   18  C   UNL     1      -8.029  10.813  67.095  1.00  0.00    -0.124 C  
HETATM   19  N   UNL     1      -8.725  11.402  68.280  1.00  0.00    -0.154 NA 
HETATM   20  C   UNL     1      -9.177  10.576  66.031  1.00  0.00    -0.205 C  
HETATM   21  C   UNL     1      -9.247   8.948  66.142  1.00  0.00    -0.217 C  
HETATM   22  C   UNL     1      -9.043  12.778  67.884  1.00  0.00    -0.204 C  
HETATM   23  O   UNL     1      -8.988  13.548  69.059  1.00  0.00    -0.372 OA 
HETATM   24  O   UNL     1      -8.399   8.445  65.095  1.00  0.00    -0.155 OA 
HETATM   25  H   UNL     1      -8.762   8.674  64.248  1.00  0.00     0.000 HD 
HETATM   26  H   UNL     1      -8.135  13.517  69.476  1.00  0.00     0.000 HD 
ENDBRANCH   2   3
TORSDOF 1
ENDMDL
MODEL       97
REMARK 921   NORMALIZED FREE ENERGY PREDICTED BY IDOCK:   -4.30 KCAL/MOL
REMARK 922        TOTAL FREE ENERGY PREDICTED BY IDOCK:   -4.68 KCAL/MOL
REMARK 923 INTER-LIGAND FREE ENERGY PREDICTED BY IDOCK:   -4.60 KCAL/MOL
REMARK 924 INTRA-LIGAND FREE ENERGY PREDICTED BY IDOCK:   -0.08 KCAL/MOL
REMARK 927      BINDING AFFINITY PREDICTED BY RF-SCORE:    0.00 PKD
ROOT
HETATM    1  C   UNL     1      -6.608   2.307  67.314  1.00  0.00    -0.039 C  
HETATM    2  C   UNL     1      -7.168   2.916  66.031  1.00  0.00    -0.066 C  
ENDROOT
BRANCH   2   3
HETATM    3  C   UNL     1      -7.390   4.418  66.137  1.00  0.00    -0.077 C  
HETATM    4  C   UNL     1      -8.872   4.923  66.021  1.00  0.00    -0.126 C  
HETATM    5  C   UNL     1      -8.572   6.045  64.968  1.00  0.00    -0.043 C  
HETATM    6  C   UNL     1      -7.891   7.093  65.907  1.00  0.00    -0.106 C  
HETATM    7  C   UNL     1      -8.463   8.485  66.152  1.00  0.00    -0.132 C  
HETATM    8  N   UNL     1      -9.159   9.033  64.989  1.00  0.00    -0.163 NA 
HETATM    9  C   UNL     1      -8.388   9.354  63.803  1.00  0.00    -0.183 C  
HETATM   10  C   UNL     1     -10.004   9.966  65.615  1.00  0.00    -0.283 A  
HETATM   11  C   UNL     1     -10.461  11.148  65.055  1.00  0.00    -0.357 A  
HETATM   12  C   UNL     1     -11.190  12.020  65.855  1.00  0.00    -0.385 A  
HETATM   13  C   UNL     1     -11.476  11.692  67.189  1.00  0.00    -0.344 A  
HETATM   14  C   UNL     1     -11.053  10.477  67.751  1.00  0.00    -0.382 A  
HETATM   15  C   UNL     1     -10.319   9.614  66.962  1.00  0.00    -0.315 A  
HETATM   16  C   UNL     1      -9.653   8.314  67.301  1.00  0.00    -0.215 C  
HETATM   17  C   UNL     1      -8.910   7.937  68.578  1.00  0.00    -0.134 C  
HETATM   18  C   UNL     1      -8.428   6.478  68.234  1.00  0.00    -0.116 C  
HETATM   19  N   UNL     1      -7.290   6.582  67.270  1.00  0.00    -0.085 NA 
HETATM   20  C   UNL     1      -9.551   5.686  67.447  1.00  0.00    -0.123 C  
HETATM   21  C   UNL     1     -10.566   6.939  67.191  1.00  0.00    -0.338 C  
HETATM   22  C   UNL     1      -6.714   5.234  67.221  1.00  0.00    -0.055 C  
HETATM   23  O   UNL     1      -5.338   5.403  66.990  1.00  0.00    -0.008 OA 
HETATM   24  O   UNL     1     -11.521   6.898  68.264  1.00  0.00    -0.524 OA 
HETATM   25  H   UNL     1     -12.045   6.109  68.201  1.00  0.00     0.000 HD 
HETATM   26  H   UNL     1      -4.914   5.915  67.669  1.00  0.00     0.000 HD 
ENDBRANCH   2   3
TORSDOF 1
ENDMDL
MODEL       98
REMARK 921   NORMALIZED FREE ENERGY PREDICTED BY IDOCK:   -4.25 KCAL/MOL
REMARK 922        TOTAL FREE ENERGY PREDICTED BY IDOCK:   -4.63 KCAL/MOL
REMARK 923 INTER-LIGAND FREE ENERGY PREDICTED BY IDOCK:   -4.51 KCAL/MOL
REMARK 924 INTRA-LIGAND FREE ENERGY PREDICTED BY IDOCK:   -0.11 KCAL/MOL
REMARK 927      BINDING AFFINITY PREDICTED BY RF-SCORE:    0.00 PKD
ROOT
HETATM    1  C   UNL     1     -11.580  14.786  65.298  1.00  0.00    -0.338 C  
HETATM    2  C   UNL     1     -12.247  13.461  65.658  1.00  0.00    -0.510 C  
ENDROOT
BRANCH   2   3
HETATM    3  C   UNL     1     -11.493  12.692  66.733  1.00  0.00    -0.410 C  
HETATM    4  C   UNL     1     -10.773  11.371  66.284  1.00  0.00    -0.322 C  
HETATM    5  C   UNL     1     -11.338  10.483  67.446  1.00  0.00    -0.120 C  
HETATM    6  C   UNL     1     -10.451  11.014  68.619  1.00  0.00    -0.192 C  
HETATM    7  C   UNL     1      -9.478  10.129  69.391  1.00  0.00    -0.224 C  
HETATM    8  N   UNL     1      -9.934   8.746  69.515  1.00  0.00    -0.190 NA 
HETATM    9  C   UNL     1     -11.112   8.469  70.315  1.00  0.00    -0.214 C  
HETATM   10  C   UNL     1      -8.707   8.092  69.728  1.00  0.00    -0.135 A  
HETATM   11  C   UNL     1      -8.525   6.930  70.458  1.00  0.00    -0.137 A  
HETATM   12  C   UNL     1      -7.227   6.482  70.675  1.00  0.00    -0.074 A  
HETATM   13  C   UNL     1      -6.134   7.182  70.142  1.00  0.00    -0.024 A  
HETATM   14  C   UNL     1      -6.313   8.338  69.366  1.00  0.00    -0.038 A  
HETATM   15  C   UNL     1      -7.601   8.790  69.157  1.00  0.00    -0.088 A  
HETATM   16  C   UNL     1      -8.097  10.027  68.470  1.00  0.00    -0.103 C  
HETATM   17  C   UNL     1      -7.503  11.431  68.503  1.00  0.00    -0.113 C  
HETATM   18  C   UNL     1      -8.545  12.227  67.632  1.00  0.00    -0.169 C  
HETATM   19  N   UNL     1      -9.777  12.427  68.454  1.00  0.00    -0.213 NA 
HETATM   20  C   UNL     1      -9.023  11.361  66.396  1.00  0.00    -0.196 C  
HETATM   21  C   UNL     1      -8.329   9.949  66.835  1.00  0.00    -0.124 C  
HETATM   22  C   UNL     1     -10.574  13.405  67.706  1.00  0.00    -0.245 C  
HETATM   23  O   UNL     1     -11.279  14.154  68.664  1.00  0.00    -0.241 OA 
HETATM   24  O   UNL     1      -7.059   9.909  66.162  1.00  0.00    -0.095 OA 
HETATM   25  H   UNL     1      -7.192   9.864  65.222  1.00  0.00     0.000 HD 
HETATM   26  H   UNL     1     -10.703  14.600  69.274  1.00  0.00     0.000 HD 
ENDBRANCH   2   3
TORSDOF 1
ENDMDL
MODEL       99
REMARK 921   NORMALIZED FREE ENERGY PREDICTED BY IDOCK:   -4.24 KCAL/MOL
REMARK 922        TOTAL FREE ENERGY PREDICTED BY IDOCK:   -4.62 KCAL/MOL
REMARK 923 INTER-LIGAND FREE ENERGY PREDICTED BY IDOCK:   -4.46 KCAL/MOL
REMARK 924 INTRA-LIGAND FREE ENERGY PREDICTED BY IDOCK:   -0.16 KCAL/MOL
REMARK 927      BINDING AFFINITY PREDICTED BY RF-SCORE:    0.00 PKD
ROOT
HETATM    1  C   UNL     1      -9.869   4.569  67.686  1.00  0.00    -0.181 C  
HETATM    2  C   UNL     1      -9.116   5.363  66.621  1.00  0.00    -0.124 C  
ENDROOT
BRANCH   2   3
HETATM    3  C   UNL     1      -9.081   6.856  66.912  1.00  0.00    -0.152 C  
HETATM    4  C   UNL     1     -10.458   7.552  67.202  1.00  0.00    -0.407 C  
HETATM    5  C   UNL     1     -10.240   8.748  66.212  1.00  0.00    -0.157 C  
HETATM    6  C   UNL     1      -9.215   9.581  67.050  1.00  0.00    -0.139 C  
HETATM    7  C   UNL     1      -9.502  10.993  67.549  1.00  0.00    -0.163 C  
HETATM    8  N   UNL     1     -10.352  11.761  66.642  1.00  0.00    -0.213 NA 
HETATM    9  C   UNL     1      -9.831  12.125  65.339  1.00  0.00    -0.211 C  
HETATM   10  C   UNL     1     -10.885  12.708  67.533  1.00  0.00    -0.239 A  
HETATM   11  C   UNL     1     -11.274  13.997  67.209  1.00  0.00    -0.328 A  
HETATM   12  C   UNL     1     -11.665  14.848  68.235  1.00  0.00    -0.342 A  
HETATM   13  C   UNL     1     -11.687  14.398  69.564  1.00  0.00    -0.362 A  
HETATM   14  C   UNL     1     -11.334  13.081  69.897  1.00  0.00    -0.037 A  
HETATM   15  C   UNL     1     -10.936  12.236  68.879  1.00  0.00    -0.265 A  
HETATM   16  C   UNL     1     -10.413  10.832  68.931  1.00  0.00    -0.228 C  
HETATM   17  C   UNL     1      -9.465  10.212  69.952  1.00  0.00    -0.150 C  
HETATM   18  C   UNL     1      -9.297   8.757  69.372  1.00  0.00    -0.157 C  
HETATM   19  N   UNL     1      -8.405   8.836  68.176  1.00  0.00    -0.121 NA 
HETATM   20  C   UNL     1     -10.674   8.213  68.812  1.00  0.00    -0.074 C  
HETATM   21  C   UNL     1     -11.522   9.605  68.921  1.00  0.00     0.240 C  
HETATM   22  C   UNL     1      -8.062   7.443  67.869  1.00  0.00    -0.119 C  
HETATM   23  O   UNL     1      -6.765   7.467  67.329  1.00  0.00    -0.064 OA 
HETATM   24  O   UNL     1     -12.205   9.552  70.185  1.00  0.00    -0.465 OA 
HETATM   25  H   UNL     1     -12.842   8.848  70.180  1.00  0.00     0.000 HD 
HETATM   26  H   UNL     1      -6.126   7.835  67.929  1.00  0.00     0.000 HD 
ENDBRANCH   2   3
TORSDOF 1
ENDMDL
MODEL      100
REMARK 921   NORMALIZED FREE ENERGY PREDICTED BY IDOCK:   -4.23 KCAL/MOL
REMARK 922        TOTAL FREE ENERGY PREDICTED BY IDOCK:   -4.60 KCAL/MOL
REMARK 923 INTER-LIGAND FREE ENERGY PREDICTED BY IDOCK:   -4.55 KCAL/MOL
REMARK 924 INTRA-LIGAND FREE ENERGY PREDICTED BY IDOCK:   -0.05 KCAL/MOL
REMARK 927      BINDING AFFINITY PREDICTED BY RF-SCORE:    0.00 PKD
ROOT
HETATM    1  C   UNL     1     -12.341  13.560  70.869  1.00  0.00    -0.437 C  
HETATM    2  C   UNL     1     -12.349  12.193  70.187  1.00  0.00    -0.219 C  
ENDROOT
BRANCH   2   3
HETATM    3  C   UNL     1     -11.327  12.087  69.064  1.00  0.00    -0.331 C  
HETATM    4  C   UNL     1     -10.640  10.689  68.865  1.00  0.00    -0.241 C  
HETATM    5  C   UNL     1      -9.175  11.244  68.804  1.00  0.00    -0.133 C  
HETATM    6  C   UNL     1      -9.201  11.858  67.366  1.00  0.00    -0.177 C  
HETATM    7  C   UNL     1      -8.292  11.376  66.240  1.00  0.00    -0.111 C  
HETATM    8  N   UNL     1      -6.986  10.919  66.711  1.00  0.00    -0.117 NA 
HETATM    9  C   UNL     1      -6.074  11.888  67.285  1.00  0.00    -0.141 C  
HETATM   10  C   UNL     1      -6.617  10.069  65.653  1.00  0.00    -0.104 A  
HETATM   11  C   UNL     1      -5.322   9.808  65.239  1.00  0.00    -0.051 A  
HETATM   12  C   UNL     1      -5.136   9.040  64.095  1.00  0.00    -0.054 A  
HETATM   13  C   UNL     1      -6.238   8.524  63.397  1.00  0.00    -0.081 A  
HETATM   14  C   UNL     1      -7.553   8.750  63.834  1.00  0.00    -0.124 A  
HETATM   15  C   UNL     1      -7.741   9.520  64.965  1.00  0.00    -0.114 A  
HETATM   16  C   UNL     1      -9.003  10.012  65.607  1.00  0.00    -0.203 C  
HETATM   17  C   UNL     1     -10.275  10.513  64.933  1.00  0.00    -0.371 C  
HETATM   18  C   UNL     1     -11.147  10.916  66.181  1.00  0.00     0.061 C  
HETATM   19  N   UNL     1     -10.602  12.194  66.732  1.00  0.00    -0.222 NA 
HETATM   20  C   UNL     1     -10.971   9.865  67.353  1.00  0.00    -0.214 C  
HETATM   21  C   UNL     1      -9.740   9.014  66.701  1.00  0.00    -0.230 C  
HETATM   22  C   UNL     1     -11.615  12.654  67.688  1.00  0.00    -0.357 C  
HETATM   23  O   UNL     1     -11.571  14.059  67.663  1.00  0.00    -0.313 OA 
HETATM   24  O   UNL     1     -10.347   7.903  66.018  1.00  0.00    -0.269 OA 
HETATM   25  H   UNL     1     -10.770   7.329  66.646  1.00  0.00     0.000 HD 
HETATM   26  H   UNL     1     -11.750  14.414  66.801  1.00  0.00     0.000 HD 
ENDBRANCH   2   3
TORSDOF 1
ENDMDL
MODEL      101
REMARK 921   NORMALIZED FREE ENERGY PREDICTED BY IDOCK:   -4.22 KCAL/MOL
REMARK 922        TOTAL FREE ENERGY PREDICTED BY IDOCK:   -4.60 KCAL/MOL
REMARK 923 INTER-LIGAND FREE ENERGY PREDICTED BY IDOCK:   -4.43 KCAL/MOL
REMARK 924 INTRA-LIGAND FREE ENERGY PREDICTED BY IDOCK:   -0.17 KCAL/MOL
REMARK 927      BINDING AFFINITY PREDICTED BY RF-SCORE:    0.00 PKD
ROOT
HETATM    1  C   UNL     1      -6.519  10.568  64.183  1.00  0.00     0.062 C  
HETATM    2  C   UNL     1      -6.675   9.051  64.092  1.00  0.00    -0.083 C  
ENDROOT
BRANCH   2   3
HETATM    3  C   UNL     1      -7.245   8.439  65.363  1.00  0.00    -0.082 C  
HETATM    4  C   UNL     1      -7.977   9.415  66.351  1.00  0.00    -0.108 C  
HETATM    5  C   UNL     1      -7.226   8.927  67.637  1.00  0.00    -0.080 C  
HETATM    6  C   UNL     1      -7.957   7.561  67.850  1.00  0.00    -0.119 C  
HETATM    7  C   UNL     1      -8.783   7.244  69.092  1.00  0.00    -0.136 C  
HETATM    8  N   UNL     1      -8.268   7.883  70.302  1.00  0.00    -0.122 NA 
HETATM    9  C   UNL     1      -6.981   7.461  70.820  1.00  0.00    -0.055 C  
HETATM   10  C   UNL     1      -9.430   7.903  71.092  1.00  0.00    -0.158 A  
HETATM   11  C   UNL     1      -9.470   7.845  72.475  1.00  0.00    -0.262 A  
HETATM   12  C   UNL     1     -10.709   7.749  73.098  1.00  0.00    -0.414 A  
HETATM   13  C   UNL     1     -11.889   7.738  72.338  1.00  0.00    -0.371 A  
HETATM   14  C   UNL     1     -11.859   7.839  70.938  1.00  0.00    -0.257 A  
HETATM   15  C   UNL     1     -10.629   7.924  70.317  1.00  0.00    -0.231 A  
HETATM   16  C   UNL     1     -10.275   7.940  68.860  1.00  0.00    -0.215 C  
HETATM   17  C   UNL     1     -10.905   7.142  67.724  1.00  0.00    -0.248 C  
HETATM   18  C   UNL     1     -10.021   7.595  66.503  1.00  0.00    -0.155 C  
HETATM   19  N   UNL     1      -8.693   6.918  66.616  1.00  0.00    -0.123 NA 
HETATM   20  C   UNL     1      -9.693   9.142  66.589  1.00  0.00    -0.287 C  
HETATM   21  C   UNL     1     -10.272   9.405  68.093  1.00  0.00    -0.200 C  
HETATM   22  C   UNL     1      -8.042   7.149  65.322  1.00  0.00    -0.134 C  
HETATM   23  O   UNL     1      -7.235   6.024  65.081  1.00  0.00    -0.066 OA 
HETATM   24  O   UNL     1     -11.622   9.870  67.920  1.00  0.00    -0.583 OA 
HETATM   25  H   UNL     1     -11.620  10.711  67.480  1.00  0.00     0.000 HD 
HETATM   26  H   UNL     1      -7.734   5.216  65.055  1.00  0.00     0.000 HD 
ENDBRANCH   2   3
TORSDOF 1
ENDMDL
MODEL      102
REMARK 921   NORMALIZED FREE ENERGY PREDICTED BY IDOCK:   -4.20 KCAL/MOL
REMARK 922        TOTAL FREE ENERGY PREDICTED BY IDOCK:   -4.57 KCAL/MOL
REMARK 923 INTER-LIGAND FREE ENERGY PREDICTED BY IDOCK:   -4.41 KCAL/MOL
REMARK 924 INTRA-LIGAND FREE ENERGY PREDICTED BY IDOCK:   -0.16 KCAL/MOL
REMARK 927      BINDING AFFINITY PREDICTED BY RF-SCORE:    0.00 PKD
ROOT
HETATM    1  C   UNL     1      -9.997  10.840  64.216  1.00  0.00    -0.403 C  
HETATM    2  C   UNL     1      -9.754  11.293  65.655  1.00  0.00    -0.267 C  
ENDROOT
BRANCH   2   3
HETATM    3  C   UNL     1      -9.352  10.149  66.574  1.00  0.00    -0.200 C  
HETATM    4  C   UNL     1     -10.388   8.982  66.744  1.00  0.00    -0.310 C  
HETATM    5  C   UNL     1     -10.326   8.945  68.310  1.00  0.00    -0.250 C  
HETATM    6  C   UNL     1      -8.939   8.245  68.489  1.00  0.00    -0.137 C  
HETATM    7  C   UNL     1      -8.773   6.893  69.174  1.00  0.00    -0.135 C  
HETATM    8  N   UNL     1      -9.739   6.671  70.248  1.00  0.00    -0.171 NA 
HETATM    9  C   UNL     1      -9.659   7.495  71.439  1.00  0.00    -0.155 C  
HETATM   10  C   UNL     1      -9.741   5.267  70.302  1.00  0.00    -0.195 A  
HETATM   11  C   UNL     1      -9.984   4.499  71.429  1.00  0.00    -0.259 A  
HETATM   12  C   UNL     1      -9.825   3.121  71.338  1.00  0.00    -0.178 A  
HETATM   13  C   UNL     1      -9.453   2.527  70.122  1.00  0.00    -0.150 A  
HETATM   14  C   UNL     1      -9.246   3.293  68.965  1.00  0.00    -0.224 A  
HETATM   15  C   UNL     1      -9.393   4.663  69.056  1.00  0.00    -0.203 A  
HETATM   16  C   UNL     1      -9.146   5.736  68.039  1.00  0.00    -0.110 C  
HETATM   17  C   UNL     1      -8.024   5.825  67.010  1.00  0.00    -0.102 C  
HETATM   18  C   UNL     1      -8.335   7.212  66.333  1.00  0.00    -0.125 C  
HETATM   19  N   UNL     1      -7.928   8.292  67.283  1.00  0.00    -0.105 NA 
HETATM   20  C   UNL     1      -9.896   7.408  66.146  1.00  0.00     0.087 C  
HETATM   21  C   UNL     1     -10.385   6.113  67.011  1.00  0.00    -0.237 C  
HETATM   22  C   UNL     1      -7.972   9.526  66.491  1.00  0.00    -0.112 C  
HETATM   23  O   UNL     1      -6.970  10.363  67.010  1.00  0.00    -0.085 OA 
HETATM   24  O   UNL     1     -10.572   5.051  66.059  1.00  0.00    -0.385 OA 
HETATM   25  H   UNL     1     -11.284   5.267  65.469  1.00  0.00     0.000 HD 
HETATM   26  H   UNL     1      -6.105   9.973  66.959  1.00  0.00     0.000 HD 
ENDBRANCH   2   3
TORSDOF 1
ENDMDL
MODEL      103
REMARK 921   NORMALIZED FREE ENERGY PREDICTED BY IDOCK:   -4.20 KCAL/MOL
REMARK 922        TOTAL FREE ENERGY PREDICTED BY IDOCK:   -4.57 KCAL/MOL
REMARK 923 INTER-LIGAND FREE ENERGY PREDICTED BY IDOCK:   -4.43 KCAL/MOL
REMARK 924 INTRA-LIGAND FREE ENERGY PREDICTED BY IDOCK:   -0.14 KCAL/MOL
REMARK 927      BINDING AFFINITY PREDICTED BY RF-SCORE:    0.00 PKD
ROOT
HETATM    1  C   UNL     1      -9.067   4.337  69.022  1.00  0.00    -0.187 C  
HETATM    2  C   UNL     1      -7.821   5.219  69.029  1.00  0.00    -0.082 C  
ENDROOT
BRANCH   2   3
HETATM    3  C   UNL     1      -8.149   6.705  69.063  1.00  0.00    -0.116 C  
HETATM    4  C   UNL     1      -7.987   7.495  67.716  1.00  0.00    -0.118 C  
HETATM    5  C   UNL     1      -7.159   8.677  68.327  1.00  0.00    -0.078 C  
HETATM    6  C   UNL     1      -8.312   9.431  69.068  1.00  0.00    -0.124 C  
HETATM    7  C   UNL     1      -8.728  10.858  68.724  1.00  0.00    -0.158 C  
HETATM    8  N   UNL     1      -7.612  11.689  68.274  1.00  0.00    -0.112 NA 
HETATM    9  C   UNL     1      -6.565  12.022  69.220  1.00  0.00    -0.109 C  
HETATM   10  C   UNL     1      -8.304  12.666  67.538  1.00  0.00    -0.177 A  
HETATM   11  C   UNL     1      -7.905  13.981  67.363  1.00  0.00    -0.188 A  
HETATM   12  C   UNL     1      -8.768  14.853  66.710  1.00  0.00    -0.278 A  
HETATM   13  C   UNL     1     -10.002  14.398  66.219  1.00  0.00    -0.320 A  
HETATM   14  C   UNL     1     -10.395  13.058  66.356  1.00  0.00    -0.287 A  
HETATM   15  C   UNL     1      -9.543  12.192  67.013  1.00  0.00    -0.207 A  
HETATM   16  C   UNL     1      -9.726  10.754  67.397  1.00  0.00    -0.194 C  
HETATM   17  C   UNL     1     -10.984  10.064  67.910  1.00  0.00    -0.311 C  
HETATM   18  C   UNL     1     -10.452   8.604  68.166  1.00  0.00    -0.187 C  
HETATM   19  N   UNL     1      -9.621   8.626  69.408  1.00  0.00    -0.165 NA 
HETATM   20  C   UNL     1      -9.453   8.161  67.021  1.00  0.00    -0.226 C  
HETATM   21  C   UNL     1      -9.315   9.609  66.278  1.00  0.00    -0.185 C  
HETATM   22  C   UNL     1      -9.406   7.214  69.742  1.00  0.00    -0.146 C  
HETATM   23  O   UNL     1      -9.325   7.149  71.144  1.00  0.00    -0.157 OA 
HETATM   24  O   UNL     1     -10.280   9.598  65.212  1.00  0.00    -0.315 OA 
HETATM   25  H   UNL     1     -10.044   8.940  64.569  1.00  0.00     0.000 HD 
HETATM   26  H   UNL     1     -10.113   7.468  71.569  1.00  0.00     0.000 HD 
ENDBRANCH   2   3
TORSDOF 1
ENDMDL
MODEL      104
REMARK 921   NORMALIZED FREE ENERGY PREDICTED BY IDOCK:   -4.18 KCAL/MOL
REMARK 922        TOTAL FREE ENERGY PREDICTED BY IDOCK:   -4.56 KCAL/MOL
REMARK 923 INTER-LIGAND FREE ENERGY PREDICTED BY IDOCK:   -4.54 KCAL/MOL
REMARK 924 INTRA-LIGAND FREE ENERGY PREDICTED BY IDOCK:   -0.02 KCAL/MOL
REMARK 927      BINDING AFFINITY PREDICTED BY RF-SCORE:    0.00 PKD
ROOT
HETATM    1  C   UNL     1      -9.946   4.077  63.233  1.00  0.00    -0.133 C  
HETATM    2  C   UNL     1      -8.745   4.798  63.842  1.00  0.00    -0.132 C  
ENDROOT
BRANCH   2   3
HETATM    3  C   UNL     1      -8.830   4.910  65.357  1.00  0.00    -0.149 C  
HETATM    4  C   UNL     1      -8.729   6.354  65.965  1.00  0.00    -0.157 C  
HETATM    5  C   UNL     1      -7.652   5.993  67.046  1.00  0.00    -0.096 C  
HETATM    6  C   UNL     1      -8.562   5.223  68.057  1.00  0.00    -0.103 C  
HETATM    7  C   UNL     1      -8.793   5.689  69.491  1.00  0.00    -0.112 C  
HETATM    8  N   UNL     1      -7.631   6.364  70.069  1.00  0.00    -0.094 NA 
HETATM    9  C   UNL     1      -6.428   5.594  70.314  1.00  0.00    -0.032 C  
HETATM   10  C   UNL     1      -8.255   7.129  71.070  1.00  0.00    -0.109 A  
HETATM   11  C   UNL     1      -7.683   7.510  72.272  1.00  0.00    -0.099 A  
HETATM   12  C   UNL     1      -8.479   8.161  73.207  1.00  0.00    -0.294 A  
HETATM   13  C   UNL     1      -9.824   8.445  72.921  1.00  0.00    -0.232 A  
HETATM   14  C   UNL     1     -10.400   8.100  71.689  1.00  0.00    -0.284 A  
HETATM   15  C   UNL     1      -9.613   7.445  70.763  1.00  0.00    -0.170 A  
HETATM   16  C   UNL     1      -9.964   6.868  69.424  1.00  0.00    -0.166 C  
HETATM   17  C   UNL     1     -11.234   6.131  69.014  1.00  0.00    -0.375 C  
HETATM   18  C   UNL     1     -10.907   5.760  67.520  1.00  0.00    -0.174 C  
HETATM   19  N   UNL     1      -9.923   4.636  67.526  1.00  0.00    -0.151 NA 
HETATM   20  C   UNL     1     -10.153   6.951  66.798  1.00  0.00    -0.264 C  
HETATM   21  C   UNL     1      -9.892   7.878  68.116  1.00  0.00    -0.169 C  
HETATM   22  C   UNL     1      -9.888   4.158  66.140  1.00  0.00    -0.194 C  
HETATM   23  O   UNL     1      -9.631   2.778  66.206  1.00  0.00    -0.389 OA 
HETATM   24  O   UNL     1     -10.982   8.815  68.162  1.00  0.00    -0.465 OA 
HETATM   25  H   UNL     1     -10.941   9.395  67.411  1.00  0.00     0.000 HD 
HETATM   26  H   UNL     1     -10.294   2.306  66.696  1.00  0.00     0.000 HD 
ENDBRANCH   2   3
TORSDOF 1
ENDMDL
MODEL      105
REMARK 921   NORMALIZED FREE ENERGY PREDICTED BY IDOCK:   -4.15 KCAL/MOL
REMARK 922        TOTAL FREE ENERGY PREDICTED BY IDOCK:   -4.52 KCAL/MOL
REMARK 923 INTER-LIGAND FREE ENERGY PREDICTED BY IDOCK:   -4.34 KCAL/MOL
REMARK 924 INTRA-LIGAND FREE ENERGY PREDICTED BY IDOCK:   -0.18 KCAL/MOL
REMARK 927      BINDING AFFINITY PREDICTED BY RF-SCORE:    0.00 PKD
ROOT
HETATM    1  C   UNL     1      -6.142  11.979  67.373  1.00  0.00    -0.130 C  
HETATM    2  C   UNL     1      -7.572  11.870  66.849  1.00  0.00    -0.093 C  
ENDROOT
BRANCH   2   3
HETATM    3  C   UNL     1      -8.319  10.672  67.415  1.00  0.00    -0.119 C  
HETATM    4  C   UNL     1      -7.602   9.867  68.556  1.00  0.00    -0.080 C  
HETATM    5  C   UNL     1      -7.833   8.454  67.920  1.00  0.00    -0.107 C  
HETATM    6  C   UNL     1      -9.355   8.282  68.238  1.00  0.00    -0.134 C  
HETATM    7  C   UNL     1      -9.897   7.169  69.128  1.00  0.00    -0.160 C  
HETATM    8  N   UNL     1      -9.125   5.931  69.034  1.00  0.00    -0.121 NA 
HETATM    9  C   UNL     1      -9.137   5.195  67.785  1.00  0.00    -0.111 C  
HETATM   10  C   UNL     1      -9.451   5.335  70.265  1.00  0.00    -0.168 A  
HETATM   11  C   UNL     1      -9.509   3.974  70.515  1.00  0.00    -0.248 A  
HETATM   12  C   UNL     1      -9.970   3.549  71.756  1.00  0.00    -0.202 A  
HETATM   13  C   UNL     1     -10.340   4.482  72.736  1.00  0.00    -0.245 A  
HETATM   14  C   UNL     1     -10.244   5.864  72.505  1.00  0.00    -0.214 A  
HETATM   15  C   UNL     1      -9.796   6.288  71.269  1.00  0.00    -0.197 A  
HETATM   16  C   UNL     1      -9.684   7.670  70.699  1.00  0.00    -0.174 C  
HETATM   17  C   UNL     1     -10.642   8.844  70.866  1.00  0.00    -0.295 C  
HETATM   18  C   UNL     1      -9.952   9.936  69.966  1.00  0.00    -0.254 C  
HETATM   19  N   UNL     1     -10.197   9.578  68.536  1.00  0.00    -0.192 NA 
HETATM   20  C   UNL     1      -8.378   9.886  70.129  1.00  0.00    -0.156 C  
HETATM   21  C   UNL     1      -8.291   8.509  71.002  1.00  0.00    -0.147 C  
HETATM   22  C   UNL     1      -9.789  10.765  67.776  1.00  0.00    -0.166 C  
HETATM   23  O   UNL     1     -10.621  10.813  66.644  1.00  0.00    -0.245 OA 
HETATM   24  O   UNL     1      -8.255   8.917  72.381  1.00  0.00    -0.384 OA 
HETATM   25  H   UNL     1      -7.455   9.398  72.555  1.00  0.00     0.000 HD 
HETATM   26  H   UNL     1     -11.542  10.871  66.870  1.00  0.00     0.000 HD 
ENDBRANCH   2   3
TORSDOF 1
ENDMDL
MODEL      106
REMARK 921   NORMALIZED FREE ENERGY PREDICTED BY IDOCK:   -4.14 KCAL/MOL
REMARK 922        TOTAL FREE ENERGY PREDICTED BY IDOCK:   -4.51 KCAL/MOL
REMARK 923 INTER-LIGAND FREE ENERGY PREDICTED BY IDOCK:   -4.36 KCAL/MOL
REMARK 924 INTRA-LIGAND FREE ENERGY PREDICTED BY IDOCK:   -0.15 KCAL/MOL
REMARK 927      BINDING AFFINITY PREDICTED BY RF-SCORE:    0.00 PKD
ROOT
HETATM    1  C   UNL     1      -6.382  10.225  65.072  1.00  0.00    -0.123 C  
HETATM    2  C   UNL     1      -6.471   8.712  65.262  1.00  0.00    -0.063 C  
ENDROOT
BRANCH   2   3
HETATM    3  C   UNL     1      -7.450   8.310  66.355  1.00  0.00    -0.080 C  
HETATM    4  C   UNL     1      -6.841   7.995  67.768  1.00  0.00    -0.070 C  
HETATM    5  C   UNL     1      -7.601   6.639  67.966  1.00  0.00    -0.107 C  
HETATM    6  C   UNL     1      -9.026   7.196  68.288  1.00  0.00    -0.125 C  
HETATM    7  C   UNL     1      -9.734   6.952  69.616  1.00  0.00    -0.155 C  
HETATM    8  N   UNL     1      -9.411   5.655  70.210  1.00  0.00    -0.149 NA 
HETATM    9  C   UNL     1      -9.855   4.450  69.537  1.00  0.00    -0.188 C  
HETATM   10  C   UNL     1      -9.699   5.916  71.561  1.00  0.00    -0.161 A  
HETATM   11  C   UNL     1     -10.135   4.985  72.489  1.00  0.00    -0.231 A  
HETATM   12  C   UNL     1     -10.495   5.433  73.755  1.00  0.00    -0.305 A  
HETATM   13  C   UNL     1     -10.391   6.793  74.086  1.00  0.00    -0.322 A  
HETATM   14  C   UNL     1      -9.910   7.736  73.164  1.00  0.00    -0.361 A  
HETATM   15  C   UNL     1      -9.561   7.295  71.902  1.00  0.00    -0.164 A  
HETATM   16  C   UNL     1      -9.121   8.062  70.692  1.00  0.00    -0.154 C  
HETATM   17  C   UNL     1      -9.626   9.410  70.190  1.00  0.00    -0.275 C  
HETATM   18  C   UNL     1      -8.788   9.580  68.868  1.00  0.00    -0.137 C  
HETATM   19  N   UNL     1      -9.363   8.665  67.835  1.00  0.00    -0.141 NA 
HETATM   20  C   UNL     1      -7.303   9.071  69.074  1.00  0.00    -0.073 C  
HETATM   21  C   UNL     1      -7.506   8.389  70.543  1.00  0.00    -0.065 C  
HETATM   22  C   UNL     1      -8.738   9.080  66.575  1.00  0.00    -0.129 C  
HETATM   23  O   UNL     1      -9.688   8.841  65.566  1.00  0.00    -0.459 OA 
HETATM   24  O   UNL     1      -7.120   9.391  71.500  1.00  0.00    -0.319 OA 
HETATM   25  H   UNL     1      -6.193   9.579  71.415  1.00  0.00     0.000 HD 
HETATM   26  H   UNL     1     -10.495   9.323  65.704  1.00  0.00     0.000 HD 
ENDBRANCH   2   3
TORSDOF 1
ENDMDL
MODEL      107
REMARK 921   NORMALIZED FREE ENERGY PREDICTED BY IDOCK:   -4.13 KCAL/MOL
REMARK 922        TOTAL FREE ENERGY PREDICTED BY IDOCK:   -4.50 KCAL/MOL
REMARK 923 INTER-LIGAND FREE ENERGY PREDICTED BY IDOCK:   -4.69 KCAL/MOL
REMARK 924 INTRA-LIGAND FREE ENERGY PREDICTED BY IDOCK:    0.19 KCAL/MOL
REMARK 927      BINDING AFFINITY PREDICTED BY RF-SCORE:    0.00 PKD
ROOT
HETATM    1  C   UNL     1      -9.662  11.196  64.197  1.00  0.00    -0.318 C  
HETATM    2  C   UNL     1      -9.398  11.422  65.685  1.00  0.00    -0.242 C  
ENDROOT
BRANCH   2   3
HETATM    3  C   UNL     1      -9.131  10.128  66.440  1.00  0.00    -0.176 C  
HETATM    4  C   UNL     1      -9.506  10.110  67.964  1.00  0.00    -0.156 C  
HETATM    5  C   UNL     1      -8.142   9.513  68.453  1.00  0.00    -0.101 C  
HETATM    6  C   UNL     1      -8.341   8.030  68.000  1.00  0.00    -0.126 C  
HETATM    7  C   UNL     1      -8.374   6.859  68.977  1.00  0.00    -0.125 C  
HETATM    8  N   UNL     1      -7.508   7.056  70.139  1.00  0.00    -0.084 NA 
HETATM    9  C   UNL     1      -6.073   7.095  69.940  1.00  0.00    -0.027 C  
HETATM   10  C   UNL     1      -8.120   6.189  71.061  1.00  0.00    -0.121 A  
HETATM   11  C   UNL     1      -7.479   5.518  72.089  1.00  0.00    -0.099 A  
HETATM   12  C   UNL     1      -8.208   4.600  72.835  1.00  0.00    -0.100 A  
HETATM   13  C   UNL     1      -9.568   4.383  72.565  1.00  0.00    -0.190 A  
HETATM   14  C   UNL     1     -10.235   5.090  71.552  1.00  0.00    -0.273 A  
HETATM   15  C   UNL     1      -9.510   5.995  70.803  1.00  0.00    -0.189 A  
HETATM   16  C   UNL     1      -9.910   6.811  69.611  1.00  0.00    -0.173 C  
HETATM   17  C   UNL     1     -10.801   6.406  68.441  1.00  0.00    -0.383 C  
HETATM   18  C   UNL     1     -10.742   7.699  67.546  1.00  0.00    -0.209 C  
HETATM   19  N   UNL     1      -9.406   7.738  66.877  1.00  0.00    -0.159 NA 
HETATM   20  C   UNL     1     -10.783   9.005  68.440  1.00  0.00    -0.145 C  
HETATM   21  C   UNL     1     -10.615   8.280  69.894  1.00  0.00    -0.232 C  
HETATM   22  C   UNL     1      -9.526   8.785  65.857  1.00  0.00    -0.208 C  
HETATM   23  O   UNL     1      -8.695   8.394  64.792  1.00  0.00    -0.376 OA 
HETATM   24  O   UNL     1     -11.950   8.093  70.397  1.00  0.00    -0.479 OA 
HETATM   25  H   UNL     1     -12.354   8.937  70.561  1.00  0.00     0.000 HD 
HETATM   26  H   UNL     1      -8.942   7.553  64.427  1.00  0.00     0.000 HD 
ENDBRANCH   2   3
TORSDOF 1
ENDMDL
MODEL      108
REMARK 921   NORMALIZED FREE ENERGY PREDICTED BY IDOCK:   -4.13 KCAL/MOL
REMARK 922        TOTAL FREE ENERGY PREDICTED BY IDOCK:   -4.50 KCAL/MOL
REMARK 923 INTER-LIGAND FREE ENERGY PREDICTED BY IDOCK:   -4.69 KCAL/MOL
REMARK 924 INTRA-LIGAND FREE ENERGY PREDICTED BY IDOCK:    0.19 KCAL/MOL
REMARK 927      BINDING AFFINITY PREDICTED BY RF-SCORE:    0.00 PKD
ROOT
HETATM    1  C   UNL     1     -13.329  11.994  71.853  1.00  0.00    -0.408 C  
HETATM    2  C   UNL     1     -13.144  10.504  72.134  1.00  0.00    -0.413 C  
ENDROOT
BRANCH   2   3
HETATM    3  C   UNL     1     -11.812   9.969  71.630  1.00  0.00    -0.315 C  
HETATM    4  C   UNL     1     -11.497   8.461  71.933  1.00  0.00    -0.384 C  
HETATM    5  C   UNL     1     -10.054   8.712  72.492  1.00  0.00    -0.242 C  
HETATM    6  C   UNL     1      -9.309   8.988  71.145  1.00  0.00    -0.266 C  
HETATM    7  C   UNL     1      -8.172   8.113  70.630  1.00  0.00    -0.114 C  
HETATM    8  N   UNL     1      -7.357   7.541  71.700  1.00  0.00    -0.073 NA 
HETATM    9  C   UNL     1      -6.553   8.431  72.515  1.00  0.00    -0.088 C  
HETATM   10  C   UNL     1      -6.813   6.427  71.038  1.00  0.00    -0.066 A  
HETATM   11  C   UNL     1      -5.582   5.849  71.302  1.00  0.00    -0.021 A  
HETATM   12  C   UNL     1      -5.139   4.827  70.470  1.00  0.00     0.000 A  
HETATM   13  C   UNL     1      -5.937   4.380  69.405  1.00  0.00    -0.022 A  
HETATM   14  C   UNL     1      -7.203   4.931  69.157  1.00  0.00    -0.053 A  
HETATM   15  C   UNL     1      -7.641   5.953  69.976  1.00  0.00    -0.087 A  
HETATM   16  C   UNL     1      -8.879   6.795  69.902  1.00  0.00    -0.141 C  
HETATM   17  C   UNL     1      -9.568   7.359  68.664  1.00  0.00    -0.146 C  
HETATM   18  C   UNL     1     -10.745   8.179  69.312  1.00  0.00    -0.129 C  
HETATM   19  N   UNL     1     -10.170   9.426  69.902  1.00  0.00    -0.207 NA 
HETATM   20  C   UNL     1     -11.362   7.398  70.544  1.00  0.00    -0.295 C  
HETATM   21  C   UNL     1     -10.242   6.214  70.637  1.00  0.00    -0.199 C  
HETATM   22  C   UNL     1     -11.332  10.262  70.222  1.00  0.00    -0.323 C  
HETATM   23  O   UNL     1     -10.915  11.594  70.060  1.00  0.00    -0.457 OA 
HETATM   24  O   UNL     1     -10.771   5.110  69.884  1.00  0.00    -0.237 OA 
HETATM   25  H   UNL     1     -11.554   4.776  70.307  1.00  0.00     0.000 HD 
HETATM   26  H   UNL     1     -10.615  11.778  69.178  1.00  0.00     0.000 HD 
ENDBRANCH   2   3
TORSDOF 1
ENDMDL
MODEL      109
REMARK 921   NORMALIZED FREE ENERGY PREDICTED BY IDOCK:   -4.10 KCAL/MOL
REMARK 922        TOTAL FREE ENERGY PREDICTED BY IDOCK:   -4.47 KCAL/MOL
REMARK 923 INTER-LIGAND FREE ENERGY PREDICTED BY IDOCK:   -4.31 KCAL/MOL
REMARK 924 INTRA-LIGAND FREE ENERGY PREDICTED BY IDOCK:   -0.16 KCAL/MOL
REMARK 927      BINDING AFFINITY PREDICTED BY RF-SCORE:    0.00 PKD
ROOT
HETATM    1  C   UNL     1     -11.142  19.755  65.933  1.00  0.00    -0.075 C  
HETATM    2  C   UNL     1      -9.992  20.057  66.890  1.00  0.00    -0.584 C  
ENDROOT
BRANCH   2   3
HETATM    3  C   UNL     1      -9.085  18.857  67.121  1.00  0.00    -0.305 C  
HETATM    4  C   UNL     1      -9.586  17.780  68.146  1.00  0.00    -0.303 C  
HETATM    5  C   UNL     1      -8.244  17.694  68.952  1.00  0.00    -0.151 C  
HETATM    6  C   UNL     1      -7.392  16.872  67.930  1.00  0.00    -0.167 C  
HETATM    7  C   UNL     1      -6.824  15.492  68.242  1.00  0.00    -0.116 C  
HETATM    8  N   UNL     1      -6.463  15.324  69.649  1.00  0.00    -0.151 NA 
HETATM    9  C   UNL     1      -5.365  16.104  70.185  1.00  0.00    -0.161 C  
HETATM   10  C   UNL     1      -6.519  13.924  69.760  1.00  0.00    -0.095 A  
HETATM   11  C   UNL     1      -5.761  13.149  70.622  1.00  0.00    -0.171 A  
HETATM   12  C   UNL     1      -5.849  11.766  70.518  1.00  0.00    -0.125 A  
HETATM   13  C   UNL     1      -6.706  11.175  69.577  1.00  0.00    -0.132 A  
HETATM   14  C   UNL     1      -7.509  11.953  68.728  1.00  0.00    -0.100 A  
HETATM   15  C   UNL     1      -7.416  13.328  68.823  1.00  0.00    -0.053 A  
HETATM   16  C   UNL     1      -8.058  14.404  68.000  1.00  0.00    -0.142 C  
HETATM   17  C   UNL     1      -8.305  14.425  66.495  1.00  0.00     0.307 C  
HETATM   18  C   UNL     1      -8.942  15.852  66.307  1.00  0.00    -0.346 C  
HETATM   19  N   UNL     1      -7.850  16.866  66.424  1.00  0.00    -0.289 NA 
HETATM   20  C   UNL     1      -9.932  16.187  67.498  1.00  0.00    -0.243 C  
HETATM   21  C   UNL     1      -9.564  14.915  68.453  1.00  0.00    -0.209 C  
HETATM   22  C   UNL     1      -8.450  18.120  65.958  1.00  0.00    -0.007 C  
HETATM   23  O   UNL     1      -7.412  18.853  65.356  1.00  0.00    -0.452 OA 
HETATM   24  O   UNL     1     -10.537  13.900  68.150  1.00  0.00    -0.241 OA 
HETATM   25  H   UNL     1     -11.402  14.193  68.410  1.00  0.00     0.000 HD 
HETATM   26  H   UNL     1      -7.015  18.391  64.628  1.00  0.00     0.000 HD 
ENDBRANCH   2   3
TORSDOF 1
ENDMDL
MODEL      110
REMARK 921   NORMALIZED FREE ENERGY PREDICTED BY IDOCK:   -4.05 KCAL/MOL
REMARK 922        TOTAL FREE ENERGY PREDICTED BY IDOCK:   -4.41 KCAL/MOL
REMARK 923 INTER-LIGAND FREE ENERGY PREDICTED BY IDOCK:   -4.24 KCAL/MOL
REMARK 924 INTRA-LIGAND FREE ENERGY PREDICTED BY IDOCK:   -0.17 KCAL/MOL
REMARK 927      BINDING AFFINITY PREDICTED BY RF-SCORE:    0.00 PKD
ROOT
HETATM    1  C   UNL     1     -12.736  10.902  71.266  1.00  0.00    -0.542 C  
HETATM    2  C   UNL     1     -12.541   9.616  72.065  1.00  0.00    -0.443 C  
ENDROOT
BRANCH   2   3
HETATM    3  C   UNL     1     -11.406   8.754  71.530  1.00  0.00    -0.375 C  
HETATM    4  C   UNL     1     -10.994   8.980  70.032  1.00  0.00    -0.230 C  
HETATM    5  C   UNL     1     -11.005   7.464  69.636  1.00  0.00    -0.186 C  
HETATM    6  C   UNL     1      -9.677   7.015  70.328  1.00  0.00    -0.175 C  
HETATM    7  C   UNL     1      -8.484   6.461  69.556  1.00  0.00    -0.133 C  
HETATM    8  N   UNL     1      -8.871   5.698  68.371  1.00  0.00    -0.109 NA 
HETATM    9  C   UNL     1      -9.577   4.444  68.549  1.00  0.00    -0.143 C  
HETATM   10  C   UNL     1      -7.695   5.800  67.608  1.00  0.00    -0.097 A  
HETATM   11  C   UNL     1      -7.236   4.861  66.699  1.00  0.00    -0.080 A  
HETATM   12  C   UNL     1      -5.988   5.058  66.118  1.00  0.00    -0.023 A  
HETATM   13  C   UNL     1      -5.229   6.195  66.431  1.00  0.00    -0.012 A  
HETATM   14  C   UNL     1      -5.705   7.172  67.320  1.00  0.00    -0.025 A  
HETATM   15  C   UNL     1      -6.940   6.974  67.905  1.00  0.00    -0.083 A  
HETATM   16  C   UNL     1      -7.659   7.772  68.951  1.00  0.00    -0.101 C  
HETATM   17  C   UNL     1      -7.078   8.466  70.178  1.00  0.00    -0.043 C  
HETATM   18  C   UNL     1      -8.379   9.045  70.849  1.00  0.00    -0.197 C  
HETATM   19  N   UNL     1      -9.111   7.912  71.492  1.00  0.00    -0.132 NA 
HETATM   20  C   UNL     1      -9.377   9.601  69.753  1.00  0.00    -0.238 C  
HETATM   21  C   UNL     1      -8.596   9.034  68.436  1.00  0.00    -0.130 C  
HETATM   22  C   UNL     1     -10.133   8.551  72.328  1.00  0.00    -0.316 C  
HETATM   23  O   UNL     1     -10.320   7.706  73.436  1.00  0.00    -0.341 OA 
HETATM   24  O   UNL     1      -7.758  10.111  67.981  1.00  0.00    -0.088 OA 
HETATM   25  H   UNL     1      -8.296  10.836  67.686  1.00  0.00     0.000 HD 
HETATM   26  H   UNL     1      -9.522   7.578  73.936  1.00  0.00     0.000 HD 
ENDBRANCH   2   3
TORSDOF 1
ENDMDL
MODEL      111
REMARK 921   NORMALIZED FREE ENERGY PREDICTED BY IDOCK:   -3.98 KCAL/MOL
REMARK 922        TOTAL FREE ENERGY PREDICTED BY IDOCK:   -4.35 KCAL/MOL
REMARK 923 INTER-LIGAND FREE ENERGY PREDICTED BY IDOCK:   -4.18 KCAL/MOL
REMARK 924 INTRA-LIGAND FREE ENERGY PREDICTED BY IDOCK:   -0.16 KCAL/MOL
REMARK 927      BINDING AFFINITY PREDICTED BY RF-SCORE:    0.00 PKD
ROOT
HETATM    1  C   UNL     1      -5.265   9.410  68.960  1.00  0.00    -0.037 C  
HETATM    2  C   UNL     1      -6.725   9.546  68.532  1.00  0.00    -0.053 C  
ENDROOT
BRANCH   2   3
HETATM    3  C   UNL     1      -7.078  10.955  68.077  1.00  0.00    -0.077 C  
HETATM    4  C   UNL     1      -7.456  11.985  69.200  1.00  0.00     0.096 C  
HETATM    5  C   UNL     1      -8.762  12.502  68.503  1.00  0.00    -0.051 C  
HETATM    6  C   UNL     1      -8.116  13.385  67.386  1.00  0.00    -0.172 C  
HETATM    7  C   UNL     1      -8.334  14.891  67.286  1.00  0.00    -0.210 C  
HETATM    8  N   UNL     1      -9.659  15.311  67.740  1.00  0.00    -0.206 NA 
HETATM    9  C   UNL     1     -10.820  14.903  66.973  1.00  0.00    -0.315 C  
HETATM   10  C   UNL     1      -9.402  16.654  68.063  1.00  0.00    -0.227 A  
HETATM   11  C   UNL     1     -10.317  17.692  67.995  1.00  0.00    -0.375 A  
HETATM   12  C   UNL     1      -9.867  18.986  68.231  1.00  0.00    -0.440 A  
HETATM   13  C   UNL     1      -8.523  19.225  68.556  1.00  0.00    -0.401 A  
HETATM   14  C   UNL     1      -7.599  18.174  68.669  1.00  0.00    -0.306 A  
HETATM   15  C   UNL     1      -8.042  16.888  68.425  1.00  0.00    -0.237 A  
HETATM   16  C   UNL     1      -7.285  15.595  68.368  1.00  0.00    -0.115 C  
HETATM   17  C   UNL     1      -5.898  15.334  67.791  1.00  0.00    -0.144 C  
HETATM   18  C   UNL     1      -5.763  13.780  68.006  1.00  0.00    -0.132 C  
HETATM   19  N   UNL     1      -6.620  13.096  66.990  1.00  0.00    -0.009 NA 
HETATM   20  C   UNL     1      -6.374  13.350  69.402  1.00  0.00    -0.111 C  
HETATM   21  C   UNL     1      -7.065  14.778  69.789  1.00  0.00    -0.132 C  
HETATM   22  C   UNL     1      -6.227  11.684  67.056  1.00  0.00    -0.144 C  
HETATM   23  O   UNL     1      -6.385  11.171  65.757  1.00  0.00    -0.355 OA 
HETATM   24  O   UNL     1      -6.107  15.471  70.608  1.00  0.00    -0.032 OA 
HETATM   25  H   UNL     1      -5.980  15.002  71.424  1.00  0.00     0.000 HD 
HETATM   26  H   UNL     1      -5.852  11.628  65.116  1.00  0.00     0.000 HD 
ENDBRANCH   2   3
TORSDOF 1
ENDMDL
MODEL      112
REMARK 921   NORMALIZED FREE ENERGY PREDICTED BY IDOCK:   -3.93 KCAL/MOL
REMARK 922        TOTAL FREE ENERGY PREDICTED BY IDOCK:   -4.29 KCAL/MOL
REMARK 923 INTER-LIGAND FREE ENERGY PREDICTED BY IDOCK:   -4.16 KCAL/MOL
REMARK 924 INTRA-LIGAND FREE ENERGY PREDICTED BY IDOCK:   -0.14 KCAL/MOL
REMARK 927      BINDING AFFINITY PREDICTED BY RF-SCORE:    0.00 PKD
ROOT
HETATM    1  C   UNL     1     -11.885  12.892  69.830  1.00  0.00    -0.373 C  
HETATM    2  C   UNL     1     -10.899  13.207  68.707  1.00  0.00    -0.278 C  
ENDROOT
BRANCH   2   3
HETATM    3  C   UNL     1     -10.124  11.983  68.241  1.00  0.00    -0.201 C  
HETATM    4  C   UNL     1     -10.657  11.257  66.955  1.00  0.00    -0.287 C  
HETATM    5  C   UNL     1     -10.625   9.814  67.566  1.00  0.00    -0.335 C  
HETATM    6  C   UNL     1      -9.082   9.561  67.528  1.00  0.00    -0.130 C  
HETATM    7  C   UNL     1      -8.443   8.444  66.710  1.00  0.00    -0.114 C  
HETATM    8  N   UNL     1      -9.284   7.253  66.609  1.00  0.00    -0.152 NA 
HETATM    9  C   UNL     1      -9.545   6.480  67.808  1.00  0.00    -0.122 C  
HETATM   10  C   UNL     1      -8.766   6.675  65.437  1.00  0.00     0.007 A  
HETATM   11  C   UNL     1      -8.735   5.321  65.147  1.00  0.00    -0.146 A  
HETATM   12  C   UNL     1      -8.074   4.905  63.997  1.00  0.00    -0.116 A  
HETATM   13  C   UNL     1      -7.478   5.844  63.141  1.00  0.00    -0.068 A  
HETATM   14  C   UNL     1      -7.541   7.221  63.405  1.00  0.00    -0.117 A  
HETATM   15  C   UNL     1      -8.189   7.635  64.553  1.00  0.00    -0.053 A  
HETATM   16  C   UNL     1      -8.332   9.004  65.148  1.00  0.00    -0.165 C  
HETATM   17  C   UNL     1      -7.298  10.123  65.208  1.00  0.00    -0.141 C  
HETATM   18  C   UNL     1      -8.085  11.227  66.008  1.00  0.00    -0.009 C  
HETATM   19  N   UNL     1      -8.131  10.813  67.443  1.00  0.00    -0.111 NA 
HETATM   20  C   UNL     1      -9.602  11.276  65.555  1.00  0.00    -0.259 C  
HETATM   21  C   UNL     1      -9.597   9.933  64.626  1.00  0.00    -0.252 C  
HETATM   22  C   UNL     1      -8.610  11.999  68.162  1.00  0.00    -0.173 C  
HETATM   23  O   UNL     1      -8.003  11.963  69.429  1.00  0.00    -0.309 OA 
HETATM   24  O   UNL     1      -9.352  10.383  63.283  1.00  0.00    -0.253 OA 
HETATM   25  H   UNL     1     -10.079  10.916  62.983  1.00  0.00     0.000 HD 
HETATM   26  H   UNL     1      -7.054  11.973  69.380  1.00  0.00     0.000 HD 
ENDBRANCH   2   3
TORSDOF 1
ENDMDL
MODEL      113
REMARK 921   NORMALIZED FREE ENERGY PREDICTED BY IDOCK:   -3.90 KCAL/MOL
REMARK 922        TOTAL FREE ENERGY PREDICTED BY IDOCK:   -4.26 KCAL/MOL
REMARK 923 INTER-LIGAND FREE ENERGY PREDICTED BY IDOCK:   -4.30 KCAL/MOL
REMARK 924 INTRA-LIGAND FREE ENERGY PREDICTED BY IDOCK:    0.04 KCAL/MOL
REMARK 927      BINDING AFFINITY PREDICTED BY RF-SCORE:    0.00 PKD
ROOT
HETATM    1  C   UNL     1     -11.864  12.897  63.562  1.00  0.00    -0.605 C  
HETATM    2  C   UNL     1     -11.108  11.577  63.690  1.00  0.00    -0.469 C  
ENDROOT
BRANCH   2   3
HETATM    3  C   UNL     1     -10.614  11.313  65.105  1.00  0.00    -0.343 C  
HETATM    4  C   UNL     1      -9.111  10.890  65.261  1.00  0.00    -0.217 C  
HETATM    5  C   UNL     1      -9.391   9.662  66.195  1.00  0.00    -0.248 C  
HETATM    6  C   UNL     1      -9.705  10.425  67.523  1.00  0.00    -0.169 C  
HETATM    7  C   UNL     1      -8.866  10.274  68.787  1.00  0.00    -0.148 C  
HETATM    8  N   UNL     1      -8.300   8.935  68.944  1.00  0.00    -0.121 NA 
HETATM    9  C   UNL     1      -9.199   7.822  69.180  1.00  0.00    -0.144 C  
HETATM   10  C   UNL     1      -7.210   9.217  69.785  1.00  0.00    -0.062 A  
HETATM   11  C   UNL     1      -6.660   8.351  70.715  1.00  0.00    -0.039 A  
HETATM   12  C   UNL     1      -5.663   8.830  71.556  1.00  0.00    -0.049 A  
HETATM   13  C   UNL     1      -5.210  10.153  71.441  1.00  0.00    -0.077 A  
HETATM   14  C   UNL     1      -5.732  11.025  70.473  1.00  0.00    -0.133 A  
HETATM   15  C   UNL     1      -6.731  10.554  69.643  1.00  0.00    -0.108 A  
HETATM   16  C   UNL     1      -7.542  11.262  68.600  1.00  0.00    -0.129 C  
HETATM   17  C   UNL     1      -8.105  12.678  68.639  1.00  0.00    -0.010 C  
HETATM   18  C   UNL     1      -8.885  12.737  67.273  1.00  0.00    -0.198 C  
HETATM   19  N   UNL     1     -10.138  11.936  67.421  1.00  0.00    -0.195 NA 
HETATM   20  C   UNL     1      -8.072  12.005  66.129  1.00  0.00     0.379 C  
HETATM   21  C   UNL     1      -6.916  11.341  67.072  1.00  0.00    -0.126 C  
HETATM   22  C   UNL     1     -10.939  12.268  66.238  1.00  0.00    -0.291 C  
HETATM   23  O   UNL     1     -12.284  12.191  66.639  1.00  0.00    -0.566 OA 
HETATM   24  O   UNL     1      -5.809  12.259  67.043  1.00  0.00    -0.230 OA 
HETATM   25  H   UNL     1      -5.449  12.304  66.165  1.00  0.00     0.000 HD 
HETATM   26  H   UNL     1     -12.488  12.788  67.349  1.00  0.00     0.000 HD 
ENDBRANCH   2   3
TORSDOF 1
ENDMDL
MODEL      114
REMARK 921   NORMALIZED FREE ENERGY PREDICTED BY IDOCK:   -3.88 KCAL/MOL
REMARK 922        TOTAL FREE ENERGY PREDICTED BY IDOCK:   -4.24 KCAL/MOL
REMARK 923 INTER-LIGAND FREE ENERGY PREDICTED BY IDOCK:   -4.07 KCAL/MOL
REMARK 924 INTRA-LIGAND FREE ENERGY PREDICTED BY IDOCK:   -0.17 KCAL/MOL
REMARK 927      BINDING AFFINITY PREDICTED BY RF-SCORE:    0.00 PKD
ROOT
HETATM    1  C   UNL     1     -12.447  11.567  70.691  1.00  0.00    -0.405 C  
HETATM    2  C   UNL     1     -11.886  10.177  70.982  1.00  0.00    -0.475 C  
ENDROOT
BRANCH   2   3
HETATM    3  C   UNL     1     -10.748   9.792  70.048  1.00  0.00    -0.326 C  
HETATM    4  C   UNL     1     -10.802  10.373  68.591  1.00  0.00    -0.270 C  
HETATM    5  C   UNL     1     -10.533   9.008  67.869  1.00  0.00    -0.291 C  
HETATM    6  C   UNL     1      -9.003   8.869  68.160  1.00  0.00    -0.137 C  
HETATM    7  C   UNL     1      -7.947   8.830  67.060  1.00  0.00    -0.095 C  
HETATM    8  N   UNL     1      -8.420   8.191  65.833  1.00  0.00    -0.134 NA 
HETATM    9  C   UNL     1      -8.719   6.772  65.857  1.00  0.00    -0.137 C  
HETATM   10  C   UNL     1      -7.542   8.762  64.896  1.00  0.00    -0.099 A  
HETATM   11  C   UNL     1      -7.110   8.165  63.723  1.00  0.00    -0.078 A  
HETATM   12  C   UNL     1      -6.143   8.816  62.966  1.00  0.00    -0.090 A  
HETATM   13  C   UNL     1      -5.640  10.062  63.374  1.00  0.00    -0.112 A  
HETATM   14  C   UNL     1      -6.103  10.693  64.539  1.00  0.00     0.046 A  
HETATM   15  C   UNL     1      -7.057  10.042  65.297  1.00  0.00    -0.137 A  
HETATM   16  C   UNL     1      -7.661  10.408  66.620  1.00  0.00    -0.117 C  
HETATM   17  C   UNL     1      -6.980  11.032  67.832  1.00  0.00    -0.073 C  
HETATM   18  C   UNL     1      -8.168  11.080  68.864  1.00  0.00    -0.127 C  
HETATM   19  N   UNL     1      -8.403   9.690  69.362  1.00  0.00    -0.132 NA 
HETATM   20  C   UNL     1      -9.520  11.484  68.145  1.00  0.00    -0.184 C  
HETATM   21  C   UNL     1      -8.984  11.400  66.605  1.00  0.00    -0.181 C  
HETATM   22  C   UNL     1      -9.304   9.850  70.509  1.00  0.00     0.095 C  
HETATM   23  O   UNL     1      -8.983   8.818  71.408  1.00  0.00    -0.199 OA 
HETATM   24  O   UNL     1      -8.590  12.737  66.251  1.00  0.00    -0.409 OA 
HETATM   25  H   UNL     1      -9.350  13.306  66.243  1.00  0.00     0.000 HD 
HETATM   26  H   UNL     1      -8.078   8.854  71.696  1.00  0.00     0.000 HD 
ENDBRANCH   2   3
TORSDOF 1
ENDMDL
MODEL      115
REMARK 921   NORMALIZED FREE ENERGY PREDICTED BY IDOCK:   -3.84 KCAL/MOL
REMARK 922        TOTAL FREE ENERGY PREDICTED BY IDOCK:   -4.19 KCAL/MOL
REMARK 923 INTER-LIGAND FREE ENERGY PREDICTED BY IDOCK:   -4.25 KCAL/MOL
REMARK 924 INTRA-LIGAND FREE ENERGY PREDICTED BY IDOCK:    0.06 KCAL/MOL
REMARK 927      BINDING AFFINITY PREDICTED BY RF-SCORE:    0.00 PKD
ROOT
HETATM    1  C   UNL     1      -7.487   2.394  63.134  1.00  0.00    -0.056 C  
HETATM    2  C   UNL     1      -7.194   3.669  63.922  1.00  0.00    -0.051 C  
ENDROOT
BRANCH   2   3
HETATM    3  C   UNL     1      -8.083   3.824  65.147  1.00  0.00    -0.097 C  
HETATM    4  C   UNL     1      -7.569   4.785  66.277  1.00  0.00    -0.091 C  
HETATM    5  C   UNL     1      -7.811   3.782  67.457  1.00  0.00    -0.082 C  
HETATM    6  C   UNL     1      -9.368   3.886  67.557  1.00  0.00    -0.191 C  
HETATM    7  C   UNL     1     -10.090   4.395  68.800  1.00  0.00     0.104 C  
HETATM    8  N   UNL     1      -9.395   4.063  70.043  1.00  0.00    -0.153 NA 
HETATM    9  C   UNL     1      -9.299   2.671  70.438  1.00  0.00    -0.142 C  
HETATM   10  C   UNL     1      -9.910   5.056  70.894  1.00  0.00    -0.205 A  
HETATM   11  C   UNL     1     -10.088   4.937  72.263  1.00  0.00    -0.247 A  
HETATM   12  C   UNL     1     -10.727   5.969  72.939  1.00  0.00    -0.277 A  
HETATM   13  C   UNL     1     -11.154   7.114  72.250  1.00  0.00    -0.289 A  
HETATM   14  C   UNL     1     -10.940   7.262  70.870  1.00  0.00    -0.275 A  
HETATM   15  C   UNL     1     -10.314   6.232  70.195  1.00  0.00    -0.259 A  
HETATM   16  C   UNL     1     -10.041   6.055  68.731  1.00  0.00    -0.210 C  
HETATM   17  C   UNL     1     -10.933   6.422  67.550  1.00  0.00    -0.454 C  
HETATM   18  C   UNL     1     -10.066   5.913  66.339  1.00  0.00    -0.110 C  
HETATM   19  N   UNL     1     -10.154   4.421  66.302  1.00  0.00    -0.240 NA 
HETATM   20  C   UNL     1      -8.531   6.220  66.578  1.00  0.00    -0.121 C  
HETATM   21  C   UNL     1      -8.645   6.709  68.132  1.00  0.00    -0.115 C  
HETATM   22  C   UNL     1      -9.577   4.042  65.007  1.00  0.00    -0.180 C  
HETATM   23  O   UNL     1     -10.256   2.882  64.598  1.00  0.00    -0.373 OA 
HETATM   24  O   UNL     1      -8.755   8.142  68.088  1.00  0.00    -0.135 OA 
HETATM   25  H   UNL     1      -7.952   8.517  67.744  1.00  0.00     0.000 HD 
HETATM   26  H   UNL     1     -11.193   3.019  64.511  1.00  0.00     0.000 HD 
ENDBRANCH   2   3
TORSDOF 1
ENDMDL
MODEL      116
REMARK 921   NORMALIZED FREE ENERGY PREDICTED BY IDOCK:   -3.77 KCAL/MOL
REMARK 922        TOTAL FREE ENERGY PREDICTED BY IDOCK:   -4.12 KCAL/MOL
REMARK 923 INTER-LIGAND FREE ENERGY PREDICTED BY IDOCK:   -4.35 KCAL/MOL
REMARK 924 INTRA-LIGAND FREE ENERGY PREDICTED BY IDOCK:    0.22 KCAL/MOL
REMARK 927      BINDING AFFINITY PREDICTED BY RF-SCORE:    0.00 PKD
ROOT
HETATM    1  C   UNL     1     -13.125  12.837  71.220  1.00  0.00    -0.245 C  
HETATM    2  C   UNL     1     -12.686  11.376  71.288  1.00  0.00    -0.498 C  
ENDROOT
BRANCH   2   3
HETATM    3  C   UNL     1     -11.491  11.075  70.394  1.00  0.00    -0.316 C  
HETATM    4  C   UNL     1     -11.234   9.567  70.043  1.00  0.00    -0.243 C  
HETATM    5  C   UNL     1      -9.706   9.584  70.394  1.00  0.00    -0.328 C  
HETATM    6  C   UNL     1      -9.172  10.357  69.144  1.00  0.00    -0.191 C  
HETATM    7  C   UNL     1      -8.195   9.747  68.144  1.00  0.00    -0.109 C  
HETATM    8  N   UNL     1      -7.257   8.808  68.758  1.00  0.00    -0.074 NA 
HETATM    9  C   UNL     1      -6.274   9.316  69.695  1.00  0.00    -0.039 C  
HETATM   10  C   UNL     1      -6.904   8.034  67.639  1.00  0.00    -0.070 A  
HETATM   11  C   UNL     1      -5.689   7.399  67.445  1.00  0.00    -0.034 A  
HETATM   12  C   UNL     1      -5.455   6.776  66.224  1.00  0.00    -0.018 A  
HETATM   13  C   UNL     1      -6.443   6.772  65.227  1.00  0.00    -0.043 A  
HETATM   14  C   UNL     1      -7.693   7.377  65.432  1.00  0.00    -0.110 A  
HETATM   15  C   UNL     1      -7.923   8.005  66.640  1.00  0.00    -0.102 A  
HETATM   16  C   UNL     1      -9.097   8.811  67.108  1.00  0.00    -0.155 C  
HETATM   17  C   UNL     1      -9.938   9.807  66.317  1.00  0.00    -0.331 C  
HETATM   18  C   UNL     1     -10.937  10.314  67.423  1.00  0.00    -0.252 C  
HETATM   19  N   UNL     1     -10.191  11.239  68.330  1.00  0.00    -0.188 NA 
HETATM   20  C   UNL     1     -11.397   9.120  68.355  1.00  0.00     0.459 C  
HETATM   21  C   UNL     1     -10.359   7.991  67.796  1.00  0.00    -0.231 C  
HETATM   22  C   UNL     1     -11.228  11.887  69.141  1.00  0.00    -0.255 C  
HETATM   23  O   UNL     1     -10.754  13.180  69.425  1.00  0.00    -0.437 OA 
HETATM   24  O   UNL     1     -11.076   7.261  66.786  1.00  0.00    -0.539 OA 
HETATM   25  H   UNL     1     -11.800   6.790  67.181  1.00  0.00     0.000 HD 
HETATM   26  H   UNL     1     -10.588  13.688  68.640  1.00  0.00     0.000 HD 
ENDBRANCH   2   3
TORSDOF 1
ENDMDL
MODEL      117
REMARK 921   NORMALIZED FREE ENERGY PREDICTED BY IDOCK:   -3.75 KCAL/MOL
REMARK 922        TOTAL FREE ENERGY PREDICTED BY IDOCK:   -4.10 KCAL/MOL
REMARK 923 INTER-LIGAND FREE ENERGY PREDICTED BY IDOCK:   -3.96 KCAL/MOL
REMARK 924 INTRA-LIGAND FREE ENERGY PREDICTED BY IDOCK:   -0.14 KCAL/MOL
REMARK 927      BINDING AFFINITY PREDICTED BY RF-SCORE:    0.00 PKD
ROOT
HETATM    1  C   UNL     1     -13.344   8.519  72.466  1.00  0.00    -0.261 C  
HETATM    2  C   UNL     1     -12.555   8.998  71.250  1.00  0.00    -0.336 C  
ENDROOT
BRANCH   2   3
HETATM    3  C   UNL     1     -11.387   8.085  70.906  1.00  0.00    -0.291 C  
HETATM    4  C   UNL     1     -11.676   6.919  69.895  1.00  0.00    -0.199 C  
HETATM    5  C   UNL     1     -11.011   5.794  70.760  1.00  0.00    -0.312 C  
HETATM    6  C   UNL     1      -9.508   6.143  70.512  1.00  0.00    -0.164 C  
HETATM    7  C   UNL     1      -8.534   5.187  69.830  1.00  0.00    -0.096 C  
HETATM    8  N   UNL     1      -8.822   3.781  70.106  1.00  0.00    -0.073 NA 
HETATM    9  C   UNL     1      -8.651   3.288  71.459  1.00  0.00    -0.072 C  
HETATM   10  C   UNL     1      -8.206   3.173  68.999  1.00  0.00    -0.059 A  
HETATM   11  C   UNL     1      -7.648   1.906  68.976  1.00  0.00    -0.043 A  
HETATM   12  C   UNL     1      -6.966   1.503  67.834  1.00  0.00    -0.035 A  
HETATM   13  C   UNL     1      -6.872   2.356  66.723  1.00  0.00    -0.044 A  
HETATM   14  C   UNL     1      -7.471   3.625  66.722  1.00  0.00    -0.079 A  
HETATM   15  C   UNL     1      -8.140   4.031  67.860  1.00  0.00    -0.089 A  
HETATM   16  C   UNL     1      -8.782   5.345  68.193  1.00  0.00    -0.105 C  
HETATM   17  C   UNL     1      -8.293   6.749  67.859  1.00  0.00    -0.120 C  
HETATM   18  C   UNL     1      -9.397   7.633  68.551  1.00  0.00    -0.147 C  
HETATM   19  N   UNL     1      -9.159   7.599  70.026  1.00  0.00    -0.151 NA 
HETATM   20  C   UNL     1     -10.832   6.992  68.359  1.00  0.00    -0.191 C  
HETATM   21  C   UNL     1     -10.352   5.566  67.723  1.00  0.00    -0.189 C  
HETATM   22  C   UNL     1     -10.022   8.653  70.570  1.00  0.00    -0.189 C  
HETATM   23  O   UNL     1      -9.357   9.162  71.699  1.00  0.00    -0.302 OA 
HETATM   24  O   UNL     1     -10.417   5.730  66.295  1.00  0.00    -0.417 OA 
HETATM   25  H   UNL     1     -11.319   5.857  66.025  1.00  0.00     0.000 HD 
HETATM   26  H   UNL     1      -8.502   9.518  71.489  1.00  0.00     0.000 HD 
ENDBRANCH   2   3
TORSDOF 1
ENDMDL
MODEL      118
REMARK 921   NORMALIZED FREE ENERGY PREDICTED BY IDOCK:   -3.70 KCAL/MOL
REMARK 922        TOTAL FREE ENERGY PREDICTED BY IDOCK:   -4.05 KCAL/MOL
REMARK 923 INTER-LIGAND FREE ENERGY PREDICTED BY IDOCK:   -3.88 KCAL/MOL
REMARK 924 INTRA-LIGAND FREE ENERGY PREDICTED BY IDOCK:   -0.16 KCAL/MOL
REMARK 927      BINDING AFFINITY PREDICTED BY RF-SCORE:    0.00 PKD
ROOT
HETATM    1  C   UNL     1     -10.893  10.229  66.252  1.00  0.00     0.014 C  
HETATM    2  C   UNL     1      -9.907   9.136  65.847  1.00  0.00    -0.305 C  
ENDROOT
BRANCH   2   3
HETATM    3  C   UNL     1      -9.722   8.078  66.925  1.00  0.00    -0.291 C  
HETATM    4  C   UNL     1      -8.714   8.416  68.080  1.00  0.00    -0.139 C  
HETATM    5  C   UNL     1      -7.935   7.057  68.009  1.00  0.00    -0.115 C  
HETATM    6  C   UNL     1      -8.992   6.128  68.693  1.00  0.00    -0.126 C  
HETATM    7  C   UNL     1      -8.723   5.381  69.995  1.00  0.00    -0.122 C  
HETATM    8  N   UNL     1      -7.327   4.973  70.145  1.00  0.00    -0.057 NA 
HETATM    9  C   UNL     1      -6.793   3.973  69.242  1.00  0.00    -0.046 C  
HETATM   10  C   UNL     1      -7.249   4.847  71.543  1.00  0.00    -0.068 A  
HETATM   11  C   UNL     1      -6.419   3.978  72.232  1.00  0.00    -0.021 A  
HETATM   12  C   UNL     1      -6.555   3.889  73.613  1.00  0.00    -0.046 A  
HETATM   13  C   UNL     1      -7.494   4.684  74.288  1.00  0.00    -0.078 A  
HETATM   14  C   UNL     1      -8.309   5.598  73.602  1.00  0.00    -0.111 A  
HETATM   15  C   UNL     1      -8.183   5.680  72.229  1.00  0.00    -0.108 A  
HETATM   16  C   UNL     1      -8.969   6.471  71.227  1.00  0.00    -0.141 C  
HETATM   17  C   UNL     1     -10.467   6.751  71.206  1.00  0.00    -0.237 C  
HETATM   18  C   UNL     1     -10.610   7.569  69.869  1.00  0.00    -0.237 C  
HETATM   19  N   UNL     1     -10.489   6.614  68.726  1.00  0.00    -0.197 NA 
HETATM   20  C   UNL     1      -9.394   8.568  69.689  1.00  0.00    -0.157 C  
HETATM   21  C   UNL     1      -8.476   8.021  70.924  1.00  0.00    -0.124 C  
HETATM   22  C   UNL     1     -10.914   7.379  67.549  1.00  0.00    -0.106 C  
HETATM   23  O   UNL     1     -11.517   6.457  66.676  1.00  0.00    -0.700 OA 
HETATM   24  O   UNL     1      -8.785   8.862  72.048  1.00  0.00    -0.365 OA 
HETATM   25  H   UNL     1      -8.502   9.751  71.874  1.00  0.00     0.000 HD 
HETATM   26  H   UNL     1     -12.263   6.018  67.068  1.00  0.00     0.000 HD 
ENDBRANCH   2   3
TORSDOF 1
ENDMDL
MODEL      119
REMARK 921   NORMALIZED FREE ENERGY PREDICTED BY IDOCK:   -3.68 KCAL/MOL
REMARK 922        TOTAL FREE ENERGY PREDICTED BY IDOCK:   -4.03 KCAL/MOL
REMARK 923 INTER-LIGAND FREE ENERGY PREDICTED BY IDOCK:   -3.85 KCAL/MOL
REMARK 924 INTRA-LIGAND FREE ENERGY PREDICTED BY IDOCK:   -0.18 KCAL/MOL
REMARK 927      BINDING AFFINITY PREDICTED BY RF-SCORE:    0.00 PKD
ROOT
HETATM    1  C   UNL     1      -9.329  14.745  66.510  1.00  0.00    -0.316 C  
HETATM    2  C   UNL     1      -8.025  14.300  67.170  1.00  0.00    -0.128 C  
ENDROOT
BRANCH   2   3
HETATM    3  C   UNL     1      -7.980  12.803  67.440  1.00  0.00    -0.179 C  
HETATM    4  C   UNL     1      -9.076  11.925  66.738  1.00  0.00    -0.197 C  
HETATM    5  C   UNL     1      -9.497  11.140  68.028  1.00  0.00    -0.174 C  
HETATM    6  C   UNL     1      -8.268  10.181  68.148  1.00  0.00    -0.113 C  
HETATM    7  C   UNL     1      -8.386   8.662  68.062  1.00  0.00    -0.123 C  
HETATM    8  N   UNL     1      -9.644   8.153  68.607  1.00  0.00    -0.148 NA 
HETATM    9  C   UNL     1      -9.889   8.281  70.030  1.00  0.00    -0.182 C  
HETATM   10  C   UNL     1      -9.733   6.923  67.933  1.00  0.00    -0.122 A  
HETATM   11  C   UNL     1     -10.346   5.779  68.414  1.00  0.00    -0.269 A  
HETATM   12  C   UNL     1     -10.237   4.608  67.673  1.00  0.00    -0.048 A  
HETATM   13  C   UNL     1      -9.542   4.600  66.454  1.00  0.00    -0.188 A  
HETATM   14  C   UNL     1      -8.954   5.765  65.938  1.00  0.00    -0.158 A  
HETATM   15  C   UNL     1      -9.053   6.927  66.678  1.00  0.00    -0.172 A  
HETATM   16  C   UNL     1      -8.453   8.281  66.445  1.00  0.00    -0.125 C  
HETATM   17  C   UNL     1      -7.068   8.624  65.907  1.00  0.00    -0.076 C  
HETATM   18  C   UNL     1      -7.088  10.196  65.983  1.00  0.00    -0.118 C  
HETATM   19  N   UNL     1      -6.936  10.593  67.416  1.00  0.00    -0.080 NA 
HETATM   20  C   UNL     1      -8.505  10.761  65.557  1.00  0.00    -0.153 C  
HETATM   21  C   UNL     1      -9.300   9.336  65.493  1.00  0.00    -0.238 C  
HETATM   22  C   UNL     1      -6.674  12.035  67.381  1.00  0.00    -0.131 C  
HETATM   23  O   UNL     1      -5.837  12.310  68.477  1.00  0.00    -0.052 OA 
HETATM   24  O   UNL     1      -9.240   8.913  64.120  1.00  0.00    -0.361 OA 
HETATM   25  H   UNL     1      -9.727   9.518  63.574  1.00  0.00     0.000 HD 
HETATM   26  H   UNL     1      -5.019  11.829  68.440  1.00  0.00     0.000 HD 
ENDBRANCH   2   3
TORSDOF 1
ENDMDL
MODEL      120
REMARK 921   NORMALIZED FREE ENERGY PREDICTED BY IDOCK:   -3.67 KCAL/MOL
REMARK 922        TOTAL FREE ENERGY PREDICTED BY IDOCK:   -4.01 KCAL/MOL
REMARK 923 INTER-LIGAND FREE ENERGY PREDICTED BY IDOCK:   -3.85 KCAL/MOL
REMARK 924 INTRA-LIGAND FREE ENERGY PREDICTED BY IDOCK:   -0.16 KCAL/MOL
REMARK 927      BINDING AFFINITY PREDICTED BY RF-SCORE:    0.00 PKD
ROOT
HETATM    1  C   UNL     1      -9.279   9.488  65.282  1.00  0.00    -0.307 C  
HETATM    2  C   UNL     1     -10.070   9.944  66.506  1.00  0.00    -0.298 C  
ENDROOT
BRANCH   2   3
HETATM    3  C   UNL     1      -9.812   9.080  67.732  1.00  0.00    -0.209 C  
HETATM    4  C   UNL     1      -9.985   7.530  67.552  1.00  0.00    -0.228 C  
HETATM    5  C   UNL     1     -10.877   7.324  68.825  1.00  0.00    -0.121 C  
HETATM    6  C   UNL     1      -9.775   7.454  69.926  1.00  0.00    -0.171 C  
HETATM    7  C   UNL     1      -9.418   6.321  70.883  1.00  0.00    -0.172 C  
HETATM    8  N   UNL     1     -10.562   5.478  71.226  1.00  0.00    -0.245 NA 
HETATM    9  C   UNL     1     -11.641   6.051  72.008  1.00  0.00    -0.276 C  
HETATM   10  C   UNL     1      -9.902   4.296  71.604  1.00  0.00    -0.187 A  
HETATM   11  C   UNL     1     -10.358   3.375  72.533  1.00  0.00    -0.190 A  
HETATM   12  C   UNL     1      -9.524   2.320  72.883  1.00  0.00    -0.128 A  
HETATM   13  C   UNL     1      -8.261   2.183  72.285  1.00  0.00    -0.054 A  
HETATM   14  C   UNL     1      -7.809   3.087  71.312  1.00  0.00    -0.051 A  
HETATM   15  C   UNL     1      -8.633   4.142  70.970  1.00  0.00    -0.113 A  
HETATM   16  C   UNL     1      -8.392   5.306  70.057  1.00  0.00    -0.098 C  
HETATM   17  C   UNL     1      -7.113   6.115  69.870  1.00  0.00    -0.072 C  
HETATM   18  C   UNL     1      -7.582   7.198  68.828  1.00  0.00    -0.108 C  
HETATM   19  N   UNL     1      -8.436   8.191  69.547  1.00  0.00    -0.126 NA 
HETATM   20  C   UNL     1      -8.538   6.556  67.742  1.00  0.00    -0.117 C  
HETATM   21  C   UNL     1      -8.728   5.097  68.451  1.00  0.00    -0.101 C  
HETATM   22  C   UNL     1      -8.593   9.305  68.605  1.00  0.00    -0.127 C  
HETATM   23  O   UNL     1      -8.696  10.469  69.385  1.00  0.00    -0.272 OA 
HETATM   24  O   UNL     1      -7.744   4.237  67.852  1.00  0.00    -0.078 OA 
HETATM   25  H   UNL     1      -7.937   4.117  66.930  1.00  0.00     0.000 HD 
HETATM   26  H   UNL     1      -7.932  10.610  69.933  1.00  0.00     0.000 HD 
ENDBRANCH   2   3
TORSDOF 1
ENDMDL
MODEL      121
REMARK 921   NORMALIZED FREE ENERGY PREDICTED BY IDOCK:   -3.66 KCAL/MOL
REMARK 922        TOTAL FREE ENERGY PREDICTED BY IDOCK:   -4.00 KCAL/MOL
REMARK 923 INTER-LIGAND FREE ENERGY PREDICTED BY IDOCK:   -3.86 KCAL/MOL
REMARK 924 INTRA-LIGAND FREE ENERGY PREDICTED BY IDOCK:   -0.14 KCAL/MOL
REMARK 927      BINDING AFFINITY PREDICTED BY RF-SCORE:    0.00 PKD
ROOT
HETATM    1  C   UNL     1      -7.251  15.239  68.197  1.00  0.00    -0.126 C  
HETATM    2  C   UNL     1      -6.755  14.142  69.136  1.00  0.00    -0.118 C  
ENDROOT
BRANCH   2   3
HETATM    3  C   UNL     1      -6.977  12.743  68.580  1.00  0.00    -0.101 C  
HETATM    4  C   UNL     1      -8.174  11.926  69.183  1.00  0.00     0.336 C  
HETATM    5  C   UNL     1      -7.353  10.616  69.442  1.00  0.00    -0.133 C  
HETATM    6  C   UNL     1      -7.244  10.094  67.972  1.00  0.00    -0.085 C  
HETATM    7  C   UNL     1      -7.840   8.766  67.515  1.00  0.00    -0.102 C  
HETATM    8  N   UNL     1      -7.820   7.739  68.556  1.00  0.00    -0.118 NA 
HETATM    9  C   UNL     1      -6.540   7.227  69.005  1.00  0.00    -0.037 C  
HETATM   10  C   UNL     1      -8.853   6.900  68.104  1.00  0.00    -0.125 A  
HETATM   11  C   UNL     1      -8.934   5.533  68.311  1.00  0.00    -0.109 A  
HETATM   12  C   UNL     1      -9.959   4.830  67.690  1.00  0.00    -0.178 A  
HETATM   13  C   UNL     1     -10.903   5.501  66.895  1.00  0.00    -0.224 A  
HETATM   14  C   UNL     1     -10.852   6.892  66.716  1.00  0.00    -0.270 A  
HETATM   15  C   UNL     1      -9.828   7.591  67.324  1.00  0.00    -0.236 A  
HETATM   16  C   UNL     1      -9.456   9.040  67.238  1.00  0.00    -0.189 C  
HETATM   17  C   UNL     1      -9.492   9.956  66.019  1.00  0.00    -0.258 C  
HETATM   18  C   UNL     1      -8.923  11.294  66.623  1.00  0.00    -0.176 C  
HETATM   19  N   UNL     1      -7.448  11.130  66.804  1.00  0.00    -0.140 NA 
HETATM   20  C   UNL     1      -9.484  11.535  68.084  1.00  0.00    -0.184 C  
HETATM   21  C   UNL     1     -10.198  10.081  68.288  1.00  0.00    -0.173 C  
HETATM   22  C   UNL     1      -6.951  12.481  67.087  1.00  0.00    -0.055 C  
HETATM   23  O   UNL     1      -5.653  12.543  66.551  1.00  0.00    -0.388 OA 
HETATM   24  O   UNL     1     -11.574  10.261  67.908  1.00  0.00    -0.672 OA 
HETATM   25  H   UNL     1     -12.000  10.858  68.511  1.00  0.00     0.000 HD 
HETATM   26  H   UNL     1      -5.637  12.378  65.615  1.00  0.00     0.000 HD 
ENDBRANCH   2   3
TORSDOF 1
ENDMDL
MODEL      122
REMARK 921   NORMALIZED FREE ENERGY PREDICTED BY IDOCK:   -3.64 KCAL/MOL
REMARK 922        TOTAL FREE ENERGY PREDICTED BY IDOCK:   -3.98 KCAL/MOL
REMARK 923 INTER-LIGAND FREE ENERGY PREDICTED BY IDOCK:   -3.84 KCAL/MOL
REMARK 924 INTRA-LIGAND FREE ENERGY PREDICTED BY IDOCK:   -0.14 KCAL/MOL
REMARK 927      BINDING AFFINITY PREDICTED BY RF-SCORE:    0.00 PKD
ROOT
HETATM    1  C   UNL     1      -9.952   7.213  73.514  1.00  0.00    -0.344 C  
HETATM    2  C   UNL     1     -10.669   7.017  72.180  1.00  0.00    -0.247 C  
ENDROOT
BRANCH   2   3
HETATM    3  C   UNL     1      -9.977   7.730  71.027  1.00  0.00    -0.191 C  
HETATM    4  C   UNL     1      -9.383   6.823  69.891  1.00  0.00    -0.157 C  
HETATM    5  C   UNL     1      -7.978   7.518  69.857  1.00  0.00    -0.123 C  
HETATM    6  C   UNL     1      -8.370   8.838  69.117  1.00  0.00    -0.125 C  
HETATM    7  C   UNL     1      -7.793   9.235  67.762  1.00  0.00    -0.092 C  
HETATM    8  N   UNL     1      -6.415   8.785  67.571  1.00  0.00    -0.057 NA 
HETATM    9  C   UNL     1      -5.373   9.365  68.395  1.00  0.00    -0.037 C  
HETATM   10  C   UNL     1      -6.346   8.769  66.167  1.00  0.00    -0.064 A  
HETATM   11  C   UNL     1      -5.207   8.987  65.411  1.00  0.00    -0.037 A  
HETATM   12  C   UNL     1      -5.335   9.060  64.028  1.00  0.00    -0.060 A  
HETATM   13  C   UNL     1      -6.588   8.888  63.420  1.00  0.00    -0.089 A  
HETATM   14  C   UNL     1      -7.740   8.625  64.177  1.00  0.00    -0.129 A  
HETATM   15  C   UNL     1      -7.616   8.562  65.551  1.00  0.00    -0.090 A  
HETATM   16  C   UNL     1      -8.661   8.401  66.614  1.00  0.00    -0.144 C  
HETATM   17  C   UNL     1     -10.059   9.008  66.667  1.00  0.00    -0.355 C  
HETATM   18  C   UNL     1     -10.570   8.483  68.061  1.00  0.00    -0.137 C  
HETATM   19  N   UNL     1      -9.884   9.270  69.131  1.00  0.00    -0.162 NA 
HETATM   20  C   UNL     1     -10.108   6.988  68.303  1.00  0.00    -0.185 C  
HETATM   21  C   UNL     1      -9.100   6.860  67.024  1.00  0.00    -0.136 C  
HETATM   22  C   UNL     1     -10.607   8.939  70.364  1.00  0.00    -0.217 C  
HETATM   23  O   UNL     1     -10.553  10.087  71.172  1.00  0.00    -0.282 OA 
HETATM   24  O   UNL     1      -9.877   6.275  65.966  1.00  0.00    -0.385 OA 
HETATM   25  H   UNL     1     -10.129   5.390  66.201  1.00  0.00     0.000 HD 
HETATM   26  H   UNL     1     -10.947  10.845  70.757  1.00  0.00     0.000 HD 
ENDBRANCH   2   3
TORSDOF 1
ENDMDL
MODEL      123
REMARK 921   NORMALIZED FREE ENERGY PREDICTED BY IDOCK:   -3.63 KCAL/MOL
REMARK 922        TOTAL FREE ENERGY PREDICTED BY IDOCK:   -3.98 KCAL/MOL
REMARK 923 INTER-LIGAND FREE ENERGY PREDICTED BY IDOCK:   -3.81 KCAL/MOL
REMARK 924 INTRA-LIGAND FREE ENERGY PREDICTED BY IDOCK:   -0.16 KCAL/MOL
REMARK 927      BINDING AFFINITY PREDICTED BY RF-SCORE:    0.00 PKD
ROOT
HETATM    1  C   UNL     1      -9.565  13.066  68.029  1.00  0.00    -0.224 C  
HETATM    2  C   UNL     1      -8.620  12.560  66.941  1.00  0.00    -0.158 C  
ENDROOT
BRANCH   2   3
HETATM    3  C   UNL     1      -8.818  11.084  66.626  1.00  0.00    -0.168 C  
HETATM    4  C   UNL     1      -8.126  10.058  67.591  1.00  0.00    -0.110 C  
HETATM    5  C   UNL     1      -7.475   9.192  66.457  1.00  0.00    -0.093 C  
HETATM    6  C   UNL     1      -8.750   8.437  65.957  1.00  0.00    -0.157 C  
HETATM    7  C   UNL     1      -8.901   6.921  66.029  1.00  0.00    -0.136 C  
HETATM    8  N   UNL     1      -7.635   6.210  65.860  1.00  0.00    -0.085 NA 
HETATM    9  C   UNL     1      -6.968   6.271  64.574  1.00  0.00    -0.048 C  
HETATM   10  C   UNL     1      -7.940   4.994  66.495  1.00  0.00    -0.107 A  
HETATM   11  C   UNL     1      -7.400   3.758  66.180  1.00  0.00    -0.072 A  
HETATM   12  C   UNL     1      -7.903   2.633  66.823  1.00  0.00    -0.076 A  
HETATM   13  C   UNL     1      -8.915   2.757  67.787  1.00  0.00    -0.197 A  
HETATM   14  C   UNL     1      -9.438   4.010  68.142  1.00  0.00    -0.215 A  
HETATM   15  C   UNL     1      -8.947   5.128  67.497  1.00  0.00    -0.110 A  
HETATM   16  C   UNL     1      -9.369   6.564  67.585  1.00  0.00    -0.118 C  
HETATM   17  C   UNL     1     -10.780   7.131  67.706  1.00  0.00    -0.282 C  
HETATM   18  C   UNL     1     -10.493   8.679  67.685  1.00  0.00    -0.244 C  
HETATM   19  N   UNL     1     -10.156   9.068  66.282  1.00  0.00    -0.286 NA 
HETATM   20  C   UNL     1      -9.192   9.020  68.520  1.00  0.00    -0.136 C  
HETATM   21  C   UNL     1      -8.683   7.489  68.771  1.00  0.00    -0.128 C  
HETATM   22  C   UNL     1     -10.188  10.534  66.280  1.00  0.00    -0.235 C  
HETATM   23  O   UNL     1     -10.614  10.917  64.997  1.00  0.00    -0.286 OA 
HETATM   24  O   UNL     1      -9.206   7.105  70.055  1.00  0.00    -0.146 OA 
HETATM   25  H   UNL     1      -8.812   7.636  70.736  1.00  0.00     0.000 HD 
HETATM   26  H   UNL     1     -11.473  10.572  64.780  1.00  0.00     0.000 HD 
ENDBRANCH   2   3
TORSDOF 1
ENDMDL
MODEL      124
REMARK 921   NORMALIZED FREE ENERGY PREDICTED BY IDOCK:   -3.59 KCAL/MOL
REMARK 922        TOTAL FREE ENERGY PREDICTED BY IDOCK:   -3.93 KCAL/MOL
REMARK 923 INTER-LIGAND FREE ENERGY PREDICTED BY IDOCK:   -3.79 KCAL/MOL
REMARK 924 INTRA-LIGAND FREE ENERGY PREDICTED BY IDOCK:   -0.14 KCAL/MOL
REMARK 927      BINDING AFFINITY PREDICTED BY RF-SCORE:    0.00 PKD
ROOT
HETATM    1  C   UNL     1      -8.108   9.946  65.813  1.00  0.00    -0.123 C  
HETATM    2  C   UNL     1      -9.199  10.523  66.712  1.00  0.00    -0.175 C  
ENDROOT
BRANCH   2   3
HETATM    3  C   UNL     1      -8.920  11.959  67.133  1.00  0.00    -0.178 C  
HETATM    4  C   UNL     1      -9.877  13.062  66.557  1.00  0.00    -0.263 C  
HETATM    5  C   UNL     1      -8.736  14.027  66.085  1.00  0.00     0.510 C  
HETATM    6  C   UNL     1      -8.301  14.596  67.475  1.00  0.00    -0.190 C  
HETATM    7  C   UNL     1      -8.408  16.074  67.839  1.00  0.00    -0.153 C  
HETATM    8  N   UNL     1      -8.203  16.963  66.697  1.00  0.00    -0.229 NA 
HETATM    9  C   UNL     1      -6.891  17.016  66.082  1.00  0.00    -0.026 C  
HETATM   10  C   UNL     1      -8.873  18.113  67.148  1.00  0.00    -0.259 A  
HETATM   11  C   UNL     1      -8.561  19.418  66.805  1.00  0.00    -0.336 A  
HETATM   12  C   UNL     1      -9.245  20.450  67.437  1.00  0.00    -0.513 A  
HETATM   13  C   UNL     1     -10.245  20.168  68.381  1.00  0.00    -0.438 A  
HETATM   14  C   UNL     1     -10.596  18.848  68.703  1.00  0.00     0.063 A  
HETATM   15  C   UNL     1      -9.911  17.821  68.083  1.00  0.00    -0.326 A  
HETATM   16  C   UNL     1      -9.987  16.338  68.290  1.00  0.00    -0.236 C  
HETATM   17  C   UNL     1     -10.152  15.572  69.598  1.00  0.00    -0.297 C  
HETATM   18  C   UNL     1     -10.090  14.082  69.092  1.00  0.00     0.036 C  
HETATM   19  N   UNL     1      -8.667  13.765  68.761  1.00  0.00    -0.036 NA 
HETATM   20  C   UNL     1     -10.867  13.921  67.722  1.00  0.00    -0.261 C  
HETATM   21  C   UNL     1     -11.128  15.506  67.429  1.00  0.00    -0.285 C  
HETATM   22  C   UNL     1      -8.638  12.309  68.581  1.00  0.00     0.020 C  
HETATM   23  O   UNL     1      -7.366  11.886  69.001  1.00  0.00    -0.201 OA 
HETATM   24  O   UNL     1     -12.438  15.793  67.949  1.00  0.00     0.106 OA 
HETATM   25  H   UNL     1     -13.093  15.316  67.454  1.00  0.00     0.000 HD 
HETATM   26  H   UNL     1      -7.189  12.106  69.908  1.00  0.00     0.000 HD 
ENDBRANCH   2   3
TORSDOF 1
ENDMDL
MODEL      125
REMARK 921   NORMALIZED FREE ENERGY PREDICTED BY IDOCK:   -3.42 KCAL/MOL
REMARK 922        TOTAL FREE ENERGY PREDICTED BY IDOCK:   -3.75 KCAL/MOL
REMARK 923 INTER-LIGAND FREE ENERGY PREDICTED BY IDOCK:   -3.57 KCAL/MOL
REMARK 924 INTRA-LIGAND FREE ENERGY PREDICTED BY IDOCK:   -0.18 KCAL/MOL
REMARK 927      BINDING AFFINITY PREDICTED BY RF-SCORE:    0.00 PKD
ROOT
HETATM    1  C   UNL     1     -11.074   5.287  73.563  1.00  0.00    -0.316 C  
HETATM    2  C   UNL     1     -10.193   4.259  72.857  1.00  0.00    -0.227 C  
ENDROOT
BRANCH   2   3
HETATM    3  C   UNL     1      -9.545   4.805  71.593  1.00  0.00    -0.216 C  
HETATM    4  C   UNL     1     -10.065   6.192  71.075  1.00  0.00    -0.231 C  
HETATM    5  C   UNL     1     -10.261   5.739  69.587  1.00  0.00    -0.299 C  
HETATM    6  C   UNL     1      -8.764   5.709  69.137  1.00  0.00    -0.108 C  
HETATM    7  C   UNL     1      -8.209   6.601  68.031  1.00  0.00    -0.117 C  
HETATM    8  N   UNL     1      -9.183   6.882  66.978  1.00  0.00    -0.137 NA 
HETATM    9  C   UNL     1      -9.629   5.792  66.132  1.00  0.00    -0.099 C  
HETATM   10  C   UNL     1      -8.655   8.075  66.455  1.00  0.00    -0.140 A  
HETATM   11  C   UNL     1      -8.772   8.507  65.144  1.00  0.00    -0.156 A  
HETATM   12  C   UNL     1      -8.083   9.651  64.761  1.00  0.00    -0.139 A  
HETATM   13  C   UNL     1      -7.310  10.363  65.692  1.00  0.00    -0.148 A  
HETATM   14  C   UNL     1      -7.221   9.956  67.032  1.00  0.00    -0.090 A  
HETATM   15  C   UNL     1      -7.896   8.813  67.413  1.00  0.00    -0.098 A  
HETATM   16  C   UNL     1      -7.911   8.084  68.723  1.00  0.00    -0.119 C  
HETATM   17  C   UNL     1      -6.753   7.839  69.684  1.00  0.00    -0.039 C  
HETATM   18  C   UNL     1      -7.453   6.975  70.798  1.00  0.00    -0.082 C  
HETATM   19  N   UNL     1      -7.659   5.598  70.254  1.00  0.00    -0.080 NA 
HETATM   20  C   UNL     1      -8.913   7.514  71.092  1.00  0.00    -0.144 C  
HETATM   21  C   UNL     1      -9.007   8.580  69.858  1.00  0.00    -0.145 C  
HETATM   22  C   UNL     1      -8.039   4.787  71.416  1.00  0.00    -0.102 C  
HETATM   23  O   UNL     1      -7.539   3.496  71.175  1.00  0.00    -0.043 OA 
HETATM   24  O   UNL     1      -8.607   9.849  70.403  1.00  0.00    -0.299 OA 
HETATM   25  H   UNL     1      -9.236  10.134  71.055  1.00  0.00     0.000 HD 
HETATM   26  H   UNL     1      -6.595   3.485  71.063  1.00  0.00     0.000 HD 
ENDBRANCH   2   3
TORSDOF 1
ENDMDL
MODEL      126
REMARK 921   NORMALIZED FREE ENERGY PREDICTED BY IDOCK:   -3.40 KCAL/MOL
REMARK 922        TOTAL FREE ENERGY PREDICTED BY IDOCK:   -3.73 KCAL/MOL
REMARK 923 INTER-LIGAND FREE ENERGY PREDICTED BY IDOCK:   -3.59 KCAL/MOL
REMARK 924 INTRA-LIGAND FREE ENERGY PREDICTED BY IDOCK:   -0.13 KCAL/MOL
REMARK 927      BINDING AFFINITY PREDICTED BY RF-SCORE:    0.00 PKD
ROOT
HETATM    1  C   UNL     1     -12.124  15.360  69.397  1.00  0.00    -0.308 C  
HETATM    2  C   UNL     1     -11.990  15.048  67.908  1.00  0.00    -0.140 C  
ENDROOT
BRANCH   2   3
HETATM    3  C   UNL     1     -11.045  13.889  67.630  1.00  0.00    -0.295 C  
HETATM    4  C   UNL     1     -11.615  12.701  66.776  1.00  0.00    -0.438 C  
HETATM    5  C   UNL     1     -11.129  11.567  67.743  1.00  0.00    -0.319 C  
HETATM    6  C   UNL     1      -9.604  11.580  67.396  1.00  0.00    -0.168 C  
HETATM    7  C   UNL     1      -8.878  10.381  66.795  1.00  0.00    -0.130 C  
HETATM    8  N   UNL     1      -9.415   9.099  67.248  1.00  0.00    -0.144 NA 
HETATM    9  C   UNL     1      -9.260   8.732  68.642  1.00  0.00    -0.141 C  
HETATM   10  C   UNL     1      -8.998   8.264  66.197  1.00  0.00    -0.181 A  
HETATM   11  C   UNL     1      -8.698   6.916  66.304  1.00  0.00    -0.149 A  
HETATM   12  C   UNL     1      -8.179   6.263  65.192  1.00  0.00    -0.138 A  
HETATM   13  C   UNL     1      -7.991   6.954  63.985  1.00  0.00    -0.070 A  
HETATM   14  C   UNL     1      -8.332   8.309  63.856  1.00  0.00    -0.032 A  
HETATM   15  C   UNL     1      -8.838   8.962  64.963  1.00  0.00    -0.183 A  
HETATM   16  C   UNL     1      -9.192  10.405  65.162  1.00  0.00    -0.250 C  
HETATM   17  C   UNL     1      -8.462  11.639  64.644  1.00  0.00     0.907 C  
HETATM   18  C   UNL     1      -9.329  12.796  65.268  1.00  0.00     0.385 C  
HETATM   19  N   UNL     1      -9.011  12.876  66.726  1.00  0.00    -0.208 NA 
HETATM   20  C   UNL     1     -10.870  12.436  65.211  1.00  0.00    -0.324 C  
HETATM   21  C   UNL     1     -10.715  10.883  64.731  1.00  0.00    -0.178 C  
HETATM   22  C   UNL     1      -9.619  14.134  67.175  1.00  0.00    -0.244 C  
HETATM   23  O   UNL     1      -8.799  14.620  68.208  1.00  0.00    -0.163 OA 
HETATM   24  O   UNL     1     -10.836  10.900  63.298  1.00  0.00    -0.680 OA 
HETATM   25  H   UNL     1     -11.711  11.174  63.050  1.00  0.00     0.000 HD 
HETATM   26  H   UNL     1      -7.906  14.773  67.924  1.00  0.00     0.000 HD 
ENDBRANCH   2   3
TORSDOF 1
ENDMDL
MODEL      127
REMARK 921   NORMALIZED FREE ENERGY PREDICTED BY IDOCK:   -3.25 KCAL/MOL
REMARK 922        TOTAL FREE ENERGY PREDICTED BY IDOCK:   -3.57 KCAL/MOL
REMARK 923 INTER-LIGAND FREE ENERGY PREDICTED BY IDOCK:   -3.42 KCAL/MOL
REMARK 924 INTRA-LIGAND FREE ENERGY PREDICTED BY IDOCK:   -0.14 KCAL/MOL
REMARK 927      BINDING AFFINITY PREDICTED BY RF-SCORE:    0.00 PKD
ROOT
HETATM    1  C   UNL     1     -11.619   3.902  73.435  1.00  0.00    -0.101 C  
HETATM    2  C   UNL     1     -10.202   3.609  72.946  1.00  0.00    -0.236 C  
ENDROOT
BRANCH   2   3
HETATM    3  C   UNL     1      -9.695   4.642  71.950  1.00  0.00    -0.224 C  
HETATM    4  C   UNL     1      -9.693   6.138  72.424  1.00  0.00    -0.169 C  
HETATM    5  C   UNL     1     -10.397   6.708  71.144  1.00  0.00    -0.232 C  
HETATM    6  C   UNL     1      -9.198   6.629  70.144  1.00  0.00    -0.155 C  
HETATM    7  C   UNL     1      -8.593   7.858  69.473  1.00  0.00    -0.137 C  
HETATM    8  N   UNL     1      -9.574   8.908  69.205  1.00  0.00    -0.160 NA 
HETATM    9  C   UNL     1     -10.616   8.655  68.229  1.00  0.00    -0.128 C  
HETATM   10  C   UNL     1      -8.732  10.031  69.137  1.00  0.00    -0.167 A  
HETATM   11  C   UNL     1      -8.957  11.166  68.377  1.00  0.00    -0.165 A  
HETATM   12  C   UNL     1      -7.962  12.136  68.325  1.00  0.00    -0.163 A  
HETATM   13  C   UNL     1      -6.771  11.973  69.050  1.00  0.00    -0.100 A  
HETATM   14  C   UNL     1      -6.553  10.845  69.856  1.00  0.00    -0.148 A  
HETATM   15  C   UNL     1      -7.536   9.876  69.901  1.00  0.00    -0.167 A  
HETATM   16  C   UNL     1      -7.552   8.538  70.577  1.00  0.00    -0.074 C  
HETATM   17  C   UNL     1      -6.414   7.531  70.711  1.00  0.00    -0.039 C  
HETATM   18  C   UNL     1      -7.134   6.351  71.464  1.00  0.00    -0.078 C  
HETATM   19  N   UNL     1      -8.016   5.646  70.484  1.00  0.00    -0.102 NA 
HETATM   20  C   UNL     1      -8.124   6.909  72.567  1.00  0.00    -0.105 C  
HETATM   21  C   UNL     1      -8.046   8.487  72.155  1.00  0.00    -0.101 C  
HETATM   22  C   UNL     1      -8.419   4.410  71.163  1.00  0.00    -0.094 C  
HETATM   23  O   UNL     1      -8.575   3.441  70.157  1.00  0.00    -0.058 OA 
HETATM   24  O   UNL     1      -7.039   9.067  73.002  1.00  0.00    -0.324 OA 
HETATM   25  H   UNL     1      -7.322   9.038  73.908  1.00  0.00     0.000 HD 
HETATM   26  H   UNL     1      -7.776   3.296  69.663  1.00  0.00     0.000 HD 
ENDBRANCH   2   3
TORSDOF 1
ENDMDL
MODEL      128
REMARK 921   NORMALIZED FREE ENERGY PREDICTED BY IDOCK:   -3.20 KCAL/MOL
REMARK 922        TOTAL FREE ENERGY PREDICTED BY IDOCK:   -3.51 KCAL/MOL
REMARK 923 INTER-LIGAND FREE ENERGY PREDICTED BY IDOCK:   -3.62 KCAL/MOL
REMARK 924 INTRA-LIGAND FREE ENERGY PREDICTED BY IDOCK:    0.11 KCAL/MOL
REMARK 927      BINDING AFFINITY PREDICTED BY RF-SCORE:    0.00 PKD
ROOT
HETATM    1  C   UNL     1     -12.097   6.334  72.195  1.00  0.00    -0.304 C  
HETATM    2  C   UNL     1     -12.262   6.642  70.708  1.00  0.00    -0.302 C  
ENDROOT
BRANCH   2   3
HETATM    3  C   UNL     1     -10.932   6.768  69.979  1.00  0.00    -0.344 C  
HETATM    4  C   UNL     1     -10.979   6.725  68.411  1.00  0.00    -0.257 C  
HETATM    5  C   UNL     1      -9.835   5.666  68.249  1.00  0.00    -0.177 C  
HETATM    6  C   UNL     1      -8.604   6.578  68.563  1.00  0.00    -0.123 C  
HETATM    7  C   UNL     1      -7.498   6.858  67.551  1.00  0.00    -0.097 C  
HETATM    8  N   UNL     1      -7.241   5.732  66.654  1.00  0.00    -0.073 NA 
HETATM    9  C   UNL     1      -6.685   4.513  67.208  1.00  0.00    -0.051 C  
HETATM   10  C   UNL     1      -6.657   6.403  65.566  1.00  0.00    -0.043 A  
HETATM   11  C   UNL     1      -5.717   5.872  64.699  1.00  0.00    -0.024 A  
HETATM   12  C   UNL     1      -5.146   6.711  63.748  1.00  0.00    -0.026 A  
HETATM   13  C   UNL     1      -5.538   8.055  63.658  1.00  0.00    -0.054 A  
HETATM   14  C   UNL     1      -6.521   8.590  64.506  1.00  0.00    -0.066 A  
HETATM   15  C   UNL     1      -7.081   7.761  65.458  1.00  0.00    -0.063 A  
HETATM   16  C   UNL     1      -8.062   8.061  66.552  1.00  0.00    -0.103 C  
HETATM   17  C   UNL     1      -8.141   9.298  67.439  1.00  0.00    -0.110 C  
HETATM   18  C   UNL     1      -9.342   8.923  68.385  1.00  0.00    -0.136 C  
HETATM   19  N   UNL     1      -8.857   7.907  69.367  1.00  0.00    -0.144 NA 
HETATM   20  C   UNL     1     -10.486   8.187  67.575  1.00  0.00    -0.326 C  
HETATM   21  C   UNL     1      -9.670   7.986  66.175  1.00  0.00    -0.046 C  
HETATM   22  C   UNL     1      -9.918   7.823  70.377  1.00  0.00    -0.188 C  
HETATM   23  O   UNL     1      -9.280   7.527  71.594  1.00  0.00    -0.134 OA 
HETATM   24  O   UNL     1     -10.031   9.104  65.345  1.00  0.00    -0.428 OA 
HETATM   25  H   UNL     1     -10.955   9.061  65.129  1.00  0.00     0.000 HD 
HETATM   26  H   UNL     1      -8.645   8.188  71.843  1.00  0.00     0.000 HD 
ENDBRANCH   2   3
TORSDOF 1
ENDMDL
MODEL      129
REMARK 921   NORMALIZED FREE ENERGY PREDICTED BY IDOCK:   -3.07 KCAL/MOL
REMARK 922        TOTAL FREE ENERGY PREDICTED BY IDOCK:   -3.38 KCAL/MOL
REMARK 923 INTER-LIGAND FREE ENERGY PREDICTED BY IDOCK:   -3.24 KCAL/MOL
REMARK 924 INTRA-LIGAND FREE ENERGY PREDICTED BY IDOCK:   -0.14 KCAL/MOL
REMARK 927      BINDING AFFINITY PREDICTED BY RF-SCORE:    0.00 PKD
ROOT
HETATM    1  C   UNL     1      -9.146   3.918  71.184  1.00  0.00    -0.184 C  
HETATM    2  C   UNL     1     -10.234   4.797  71.796  1.00  0.00    -0.258 C  
ENDROOT
BRANCH   2   3
HETATM    3  C   UNL     1     -10.108   6.259  71.393  1.00  0.00    -0.222 C  
HETATM    4  C   UNL     1     -11.222   6.828  70.444  1.00  0.00    -0.378 C  
HETATM    5  C   UNL     1     -10.234   7.492  69.425  1.00  0.00    -0.204 C  
HETATM    6  C   UNL     1      -9.794   8.730  70.273  1.00  0.00    -0.175 C  
HETATM    7  C   UNL     1     -10.059  10.169  69.842  1.00  0.00    -0.222 C  
HETATM    8  N   UNL     1     -10.027  10.350  68.392  1.00  0.00    -0.157 NA 
HETATM    9  C   UNL     1      -8.767  10.175  67.696  1.00  0.00    -0.121 C  
HETATM   10  C   UNL     1     -10.805  11.513  68.264  1.00  0.00    -0.216 A  
HETATM   11  C   UNL     1     -10.673  12.471  67.272  1.00  0.00    -0.259 A  
HETATM   12  C   UNL     1     -11.441  13.626  67.361  1.00  0.00    -0.365 A  
HETATM   13  C   UNL     1     -12.345  13.800  68.420  1.00  0.00     0.016 A  
HETATM   14  C   UNL     1     -12.516  12.816  69.406  1.00  0.00     0.218 A  
HETATM   15  C   UNL     1     -11.747  11.671  69.325  1.00  0.00    -0.396 A  
HETATM   16  C   UNL     1     -11.631  10.510  70.265  1.00  0.00    -0.417 C  
HETATM   17  C   UNL     1     -11.630  10.522  71.790  1.00  0.00     0.768 C  
HETATM   18  C   UNL     1     -11.416   8.996  72.111  1.00  0.00    -0.258 C  
HETATM   19  N   UNL     1      -9.986   8.661  71.834  1.00  0.00    -0.294 NA 
HETATM   20  C   UNL     1     -12.243   8.090  71.109  1.00  0.00    -0.262 C  
HETATM   21  C   UNL     1     -12.709   9.269  70.080  1.00  0.00     0.848 C  
HETATM   22  C   UNL     1      -9.791   7.330  72.419  1.00  0.00    -0.155 C  
HETATM   23  O   UNL     1      -8.455   7.282  72.853  1.00  0.00    -0.107 OA 
HETATM   24  O   UNL     1     -14.013   9.684  70.521  1.00  0.00    -0.442 OA 
HETATM   25  H   UNL     1     -14.632   8.972  70.415  1.00  0.00     0.000 HD 
HETATM   26  H   UNL     1      -8.257   7.953  73.496  1.00  0.00     0.000 HD 
ENDBRANCH   2   3
TORSDOF 1
ENDMDL
MODEL      130
REMARK 921   NORMALIZED FREE ENERGY PREDICTED BY IDOCK:   -2.97 KCAL/MOL
REMARK 922        TOTAL FREE ENERGY PREDICTED BY IDOCK:   -3.27 KCAL/MOL
REMARK 923 INTER-LIGAND FREE ENERGY PREDICTED BY IDOCK:   -3.27 KCAL/MOL
REMARK 924 INTRA-LIGAND FREE ENERGY PREDICTED BY IDOCK:    0.00 KCAL/MOL
REMARK 927      BINDING AFFINITY PREDICTED BY RF-SCORE:    0.00 PKD
ROOT
HETATM    1  C   UNL     1      -6.278  13.426  68.938  1.00  0.00    -0.090 C  
HETATM    2  C   UNL     1      -6.483  12.007  69.464  1.00  0.00    -0.109 C  
ENDROOT
BRANCH   2   3
HETATM    3  C   UNL     1      -7.170  11.097  68.456  1.00  0.00    -0.088 C  
HETATM    4  C   UNL     1      -6.849   9.563  68.556  1.00  0.00    -0.061 C  
HETATM    5  C   UNL     1      -6.544   9.367  67.031  1.00  0.00    -0.068 C  
HETATM    6  C   UNL     1      -8.006   9.410  66.477  1.00  0.00    -0.108 C  
HETATM    7  C   UNL     1      -8.656   8.234  65.755  1.00  0.00    -0.161 C  
HETATM    8  N   UNL     1      -7.705   7.441  64.978  1.00  0.00    -0.107 NA 
HETATM    9  C   UNL     1      -7.075   8.046  63.820  1.00  0.00    -0.078 C  
HETATM   10  C   UNL     1      -8.393   6.217  64.909  1.00  0.00    -0.092 A  
HETATM   11  C   UNL     1      -8.304   5.295  63.880  1.00  0.00    -0.122 A  
HETATM   12  C   UNL     1      -9.146   4.189  63.907  1.00  0.00    -0.140 A  
HETATM   13  C   UNL     1     -10.044   4.005  64.970  1.00  0.00    -0.203 A  
HETATM   14  C   UNL     1     -10.110   4.913  66.039  1.00  0.00    -0.264 A  
HETATM   15  C   UNL     1      -9.282   6.017  66.008  1.00  0.00    -0.129 A  
HETATM   16  C   UNL     1      -9.195   7.193  66.934  1.00  0.00    -0.174 C  
HETATM   17  C   UNL     1     -10.331   7.940  67.624  1.00  0.00    -0.307 C  
HETATM   18  C   UNL     1      -9.540   9.075  68.377  1.00  0.00    -0.152 C  
HETATM   19  N   UNL     1      -9.113  10.089  67.367  1.00  0.00    -0.135 NA 
HETATM   20  C   UNL     1      -8.188   8.513  68.980  1.00  0.00    -0.116 C  
HETATM   21  C   UNL     1      -8.221   7.046  68.263  1.00  0.00    -0.124 C  
HETATM   22  C   UNL     1      -8.650  11.235  68.157  1.00  0.00    -0.150 C  
HETATM   23  O   UNL     1      -8.941  12.381  67.397  1.00  0.00    -0.171 OA 
HETATM   24  O   UNL     1      -8.824   6.154  69.216  1.00  0.00    -0.124 OA 
HETATM   25  H   UNL     1      -8.264   6.070  69.979  1.00  0.00     0.000 HD 
HETATM   26  H   UNL     1      -9.869  12.468  67.209  1.00  0.00     0.000 HD 
ENDBRANCH   2   3
TORSDOF 1
ENDMDL
MODEL      131
REMARK 921   NORMALIZED FREE ENERGY PREDICTED BY IDOCK:   -2.95 KCAL/MOL
REMARK 922        TOTAL FREE ENERGY PREDICTED BY IDOCK:   -3.25 KCAL/MOL
REMARK 923 INTER-LIGAND FREE ENERGY PREDICTED BY IDOCK:   -3.07 KCAL/MOL
REMARK 924 INTRA-LIGAND FREE ENERGY PREDICTED BY IDOCK:   -0.18 KCAL/MOL
REMARK 927      BINDING AFFINITY PREDICTED BY RF-SCORE:    0.00 PKD
ROOT
HETATM    1  C   UNL     1      -8.859   2.205  70.086  1.00  0.00    -0.135 C  
HETATM    2  C   UNL     1      -9.738   3.303  70.680  1.00  0.00    -0.156 C  
ENDROOT
BRANCH   2   3
HETATM    3  C   UNL     1      -9.468   4.671  70.071  1.00  0.00    -0.242 C  
HETATM    4  C   UNL     1      -8.267   4.772  69.066  1.00  0.00    -0.081 C  
HETATM    5  C   UNL     1      -7.618   6.038  69.724  1.00  0.00    -0.081 C  
HETATM    6  C   UNL     1      -8.623   7.124  69.219  1.00  0.00    -0.137 C  
HETATM    7  C   UNL     1      -8.212   8.280  68.312  1.00  0.00    -0.128 C  
HETATM    8  N   UNL     1      -6.846   8.742  68.555  1.00  0.00    -0.063 NA 
HETATM    9  C   UNL     1      -6.541   9.380  69.821  1.00  0.00    -0.045 C  
HETATM   10  C   UNL     1      -6.559   9.344  67.318  1.00  0.00    -0.071 A  
HETATM   11  C   UNL     1      -5.701  10.413  67.118  1.00  0.00    -0.045 A  
HETATM   12  C   UNL     1      -5.624  10.970  65.846  1.00  0.00    -0.128 A  
HETATM   13  C   UNL     1      -6.379  10.438  64.789  1.00  0.00    -0.074 A  
HETATM   14  C   UNL     1      -7.218   9.328  64.974  1.00  0.00    -0.098 A  
HETATM   15  C   UNL     1      -7.304   8.780  66.239  1.00  0.00    -0.087 A  
HETATM   16  C   UNL     1      -8.174   7.677  66.763  1.00  0.00    -0.124 C  
HETATM   17  C   UNL     1      -9.630   7.378  66.426  1.00  0.00    -0.181 C  
HETATM   18  C   UNL     1      -9.917   6.146  67.362  1.00  0.00    -0.141 C  
HETATM   19  N   UNL     1     -10.054   6.651  68.762  1.00  0.00    -0.151 NA 
HETATM   20  C   UNL     1      -8.670   5.171  67.406  1.00  0.00    -0.103 C  
HETATM   21  C   UNL     1      -7.615   6.128  66.609  1.00  0.00    -0.095 C  
HETATM   22  C   UNL     1     -10.598   5.519  69.520  1.00  0.00    -0.296 C  
HETATM   23  O   UNL     1     -11.401   6.072  70.532  1.00  0.00    -0.323 OA 
HETATM   24  O   UNL     1      -7.676   5.721  65.231  1.00  0.00    -0.085 OA 
HETATM   25  H   UNL     1      -7.355   4.831  65.142  1.00  0.00     0.000 HD 
HETATM   26  H   UNL     1     -12.109   6.604  70.186  1.00  0.00     0.000 HD 
ENDBRANCH   2   3
TORSDOF 1
ENDMDL
MODEL      132
REMARK 921   NORMALIZED FREE ENERGY PREDICTED BY IDOCK:   -0.69 KCAL/MOL
REMARK 922        TOTAL FREE ENERGY PREDICTED BY IDOCK:   -0.86 KCAL/MOL
REMARK 923 INTER-LIGAND FREE ENERGY PREDICTED BY IDOCK:   -1.01 KCAL/MOL
REMARK 924 INTRA-LIGAND FREE ENERGY PREDICTED BY IDOCK:    0.15 KCAL/MOL
REMARK 927      BINDING AFFINITY PREDICTED BY RF-SCORE:    0.00 PKD
ROOT
HETATM    1  C   UNL     1      -5.759  14.534  71.884  1.00  0.00     0.003 C  
HETATM    2  C   UNL     1      -5.948  13.054  71.556  1.00  0.00     0.709 C  
ENDROOT
BRANCH   2   3
HETATM    3  C   UNL     1      -6.149  12.799  70.069  1.00  0.00    -0.112 C  
HETATM    4  C   UNL     1      -7.117  11.626  69.679  1.00  0.00     0.128 C  
HETATM    5  C   UNL     1      -6.143  10.958  68.648  1.00  0.00    -0.043 C  
HETATM    6  C   UNL     1      -6.291  11.975  67.469  1.00  0.00    -0.118 C  
HETATM    7  C   UNL     1      -6.842  11.587  66.101  1.00  0.00     0.249 C  
HETATM    8  N   UNL     1      -6.514  10.214  65.718  1.00  0.00    -0.099 NA 
HETATM    9  C   UNL     1      -5.128   9.874  65.465  1.00  0.00    -0.041 C  
HETATM   10  C   UNL     1      -7.536   9.960  64.787  1.00  0.00    -0.139 A  
HETATM   11  C   UNL     1      -7.447   9.107  63.700  1.00  0.00    -0.106 A  
HETATM   12  C   UNL     1      -8.509   9.064  62.804  1.00  0.00    -0.206 A  
HETATM   13  C   UNL     1      -9.652   9.849  63.018  1.00  0.00     0.041 A  
HETATM   14  C   UNL     1      -9.769  10.684  64.140  1.00  0.00    -0.378 A  
HETATM   15  C   UNL     1      -8.710  10.736  65.026  1.00  0.00    -0.160 A  
HETATM   16  C   UNL     1      -8.499  11.592  66.238  1.00  0.00    -0.066 C  
HETATM   17  C   UNL     1      -8.868  13.058  66.438  1.00  0.00     0.083 C  
HETATM   18  C   UNL     1      -8.314  13.321  67.887  1.00  0.00    -0.163 C  
HETATM   19  N   UNL     1      -6.825  13.418  67.802  1.00  0.00    -0.145 NA 
HETATM   20  C   UNL     1      -8.583  12.075  68.827  1.00  0.00     0.076 C  
HETATM   21  C   UNL     1      -9.103  11.040  67.675  1.00  0.00    -0.145 C  
HETATM   22  C   UNL     1      -6.407  13.943  69.107  1.00  0.00    -0.107 C  
HETATM   23  O   UNL     1      -5.258  14.717  68.870  1.00  0.00    -0.085 OA 
HETATM   24  O   UNL     1     -10.537  11.140  67.674  1.00  0.00    -0.190 OA 
HETATM   25  H   UNL     1     -10.884  10.822  68.500  1.00  0.00     0.000 HD 
HETATM   26  H   UNL     1      -5.419  15.433  68.266  1.00  0.00     0.000 HD 
ENDBRANCH   2   3
TORSDOF 1
ENDMDL
MODEL      133
REMARK 921   NORMALIZED FREE ENERGY PREDICTED BY IDOCK:    0.41 KCAL/MOL
REMARK 922        TOTAL FREE ENERGY PREDICTED BY IDOCK:    0.31 KCAL/MOL
REMARK 923 INTER-LIGAND FREE ENERGY PREDICTED BY IDOCK:    0.48 KCAL/MOL
REMARK 924 INTRA-LIGAND FREE ENERGY PREDICTED BY IDOCK:   -0.18 KCAL/MOL
REMARK 927      BINDING AFFINITY PREDICTED BY RF-SCORE:    0.00 PKD
ROOT
HETATM    1  C   UNL     1     -12.792  15.694  71.350  1.00  0.00    -0.546 C  
HETATM    2  C   UNL     1     -13.011  15.347  69.879  1.00  0.00     0.111 C  
ENDROOT
BRANCH   2   3
HETATM    3  C   UNL     1     -12.208  14.133  69.433  1.00  0.00    -0.329 C  
HETATM    4  C   UNL     1     -11.552  13.266  70.564  1.00  0.00     0.104 C  
HETATM    5  C   UNL     1     -10.129  13.207  69.910  1.00  0.00     1.763 C  
HETATM    6  C   UNL     1     -10.421  12.177  68.770  1.00  0.00    -0.176 C  
HETATM    7  C   UNL     1      -9.726  10.823  68.673  1.00  0.00    -0.186 C  
HETATM    8  N   UNL     1      -8.351  10.848  69.169  1.00  0.00    -0.114 NA 
HETATM    9  C   UNL     1      -7.361  11.618  68.442  1.00  0.00    -0.096 C  
HETATM   10  C   UNL     1      -8.170   9.489  69.481  1.00  0.00    -0.134 A  
HETATM   11  C   UNL     1      -6.968   8.802  69.440  1.00  0.00    -0.053 A  
HETATM   12  C   UNL     1      -6.982   7.430  69.658  1.00  0.00    -0.053 A  
HETATM   13  C   UNL     1      -8.187   6.766  69.938  1.00  0.00    -0.127 A  
HETATM   14  C   UNL     1      -9.403   7.461  70.023  1.00  0.00    -0.151 A  
HETATM   15  C   UNL     1      -9.392   8.824  69.797  1.00  0.00    -0.163 A  
HETATM   16  C   UNL     1     -10.523   9.805  69.718  1.00  0.00    -0.278 C  
HETATM   17  C   UNL     1     -11.902   9.612  69.097  1.00  0.00     0.528 C  
HETATM   18  C   UNL     1     -12.538  11.036  69.311  1.00  0.00     0.273 C  
HETATM   19  N   UNL     1     -11.918  11.973  68.326  1.00  0.00    -0.463 NA 
HETATM   20  C   UNL     1     -12.142  11.622  70.728  1.00  0.00    -0.383 C  
HETATM   21  C   UNL     1     -11.039  10.488  71.134  1.00  0.00     0.478 C  
HETATM   22  C   UNL     1     -12.747  13.182  68.382  1.00  0.00     1.159 C  
HETATM   23  O   UNL     1     -12.724  13.736  67.090  1.00  0.00    -0.307 OA 
HETATM   24  O   UNL     1     -11.746   9.513  71.919  1.00  0.00    -0.374 OA 
HETATM   25  H   UNL     1     -12.042   9.905  72.731  1.00  0.00     0.000 HD 
HETATM   26  H   UNL     1     -13.061  13.139  66.432  1.00  0.00     0.000 HD 
ENDBRANCH   2   3
TORSDOF 1
ENDMDL
MODEL      134
REMARK 921   NORMALIZED FREE ENERGY PREDICTED BY IDOCK:    1.17 KCAL/MOL
REMARK 922        TOTAL FREE ENERGY PREDICTED BY IDOCK:    1.10 KCAL/MOL
REMARK 923 INTER-LIGAND FREE ENERGY PREDICTED BY IDOCK:    1.28 KCAL/MOL
REMARK 924 INTRA-LIGAND FREE ENERGY PREDICTED BY IDOCK:   -0.18 KCAL/MOL
REMARK 927      BINDING AFFINITY PREDICTED BY RF-SCORE:    0.00 PKD
ROOT
HETATM    1  C   UNL     1     -13.540  11.613  72.183  1.00  0.00    -0.124 C  
HETATM    2  C   UNL     1     -13.049  10.695  71.065  1.00  0.00    -0.376 C  
ENDROOT
BRANCH   2   3
HETATM    3  C   UNL     1     -12.427  11.458  69.905  1.00  0.00    -0.190 C  
HETATM    4  C   UNL     1     -12.116  12.979  70.145  1.00  0.00    -0.377 C  
HETATM    5  C   UNL     1     -12.786  13.485  68.821  1.00  0.00     0.888 C  
HETATM    6  C   UNL     1     -11.691  13.035  67.799  1.00  0.00    -0.359 C  
HETATM    7  C   UNL     1     -10.914  14.016  66.927  1.00  0.00    -0.298 C  
HETATM    8  N   UNL     1     -11.700  15.187  66.540  1.00  0.00    -0.123 NA 
HETATM    9  C   UNL     1     -12.833  15.004  65.654  1.00  0.00     0.606 C  
HETATM   10  C   UNL     1     -10.671  16.105  66.270  1.00  0.00    -0.213 A  
HETATM   11  C   UNL     1     -10.732  17.143  65.354  1.00  0.00    -0.097 A  
HETATM   12  C   UNL     1      -9.580  17.884  65.118  1.00  0.00     1.950 A  
HETATM   13  C   UNL     1      -8.395  17.600  65.814  1.00  0.00     0.205 A  
HETATM   14  C   UNL     1      -8.337  16.577  66.774  1.00  0.00    -0.274 A  
HETATM   15  C   UNL     1      -9.477  15.833  67.002  1.00  0.00    -0.235 A  
HETATM   16  C   UNL     1      -9.695  14.633  67.874  1.00  0.00    -0.216 C  
HETATM   17  C   UNL     1      -8.757  13.455  68.117  1.00  0.00    -0.179 C  
HETATM   18  C   UNL     1      -9.632  12.555  69.068  1.00  0.00     0.378 C  
HETATM   19  N   UNL     1     -10.691  11.902  68.241  1.00  0.00    -0.213 NA 
HETATM   20  C   UNL     1     -10.426  13.445  70.110  1.00  0.00     1.547 C  
HETATM   21  C   UNL     1     -10.085  14.903  69.459  1.00  0.00    -0.108 C  
HETATM   22  C   UNL     1     -11.271  10.876  69.114  1.00  0.00    -0.256 C  
HETATM   23  O   UNL     1     -11.669   9.822  68.274  1.00  0.00    -0.427 OA 
HETATM   24  O   UNL     1      -8.934  15.392  70.169  1.00  0.00    -0.230 OA 
HETATM   25  H   UNL     1      -9.157  15.547  71.079  1.00  0.00     0.000 HD 
HETATM   26  H   UNL     1     -10.945   9.457  67.778  1.00  0.00     0.000 HD 
ENDBRANCH   2   3
TORSDOF 1
ENDMDL
MODEL      135
REMARK 921   NORMALIZED FREE ENERGY PREDICTED BY IDOCK:    1.45 KCAL/MOL
REMARK 922        TOTAL FREE ENERGY PREDICTED BY IDOCK:    1.40 KCAL/MOL
REMARK 923 INTER-LIGAND FREE ENERGY PREDICTED BY IDOCK:    1.54 KCAL/MOL
REMARK 924 INTRA-LIGAND FREE ENERGY PREDICTED BY IDOCK:   -0.14 KCAL/MOL
REMARK 927      BINDING AFFINITY PREDICTED BY RF-SCORE:    0.00 PKD
ROOT
HETATM    1  C   UNL     1     -12.852  16.794  73.865  1.00  0.00     0.152 C  
HETATM    2  C   UNL     1     -13.641  15.775  73.046  1.00  0.00    -0.638 C  
ENDROOT
BRANCH   2   3
HETATM    3  C   UNL     1     -12.907  15.330  71.790  1.00  0.00    -0.457 C  
HETATM    4  C   UNL     1     -11.906  14.131  71.944  1.00  0.00     0.284 C  
HETATM    5  C   UNL     1     -10.716  14.823  71.196  1.00  0.00     0.487 C  
HETATM    6  C   UNL     1     -11.235  14.692  69.726  1.00  0.00    -0.259 C  
HETATM    7  C   UNL     1     -10.498  13.900  68.652  1.00  0.00    -0.246 C  
HETATM    8  N   UNL     1      -9.045  13.930  68.811  1.00  0.00    -0.072 NA 
HETATM    9  C   UNL     1      -8.349  15.188  68.626  1.00  0.00    -0.160 C  
HETATM   10  C   UNL     1      -8.689  12.761  68.116  1.00  0.00    -0.193 A  
HETATM   11  C   UNL     1      -7.499  12.551  67.441  1.00  0.00    -0.153 A  
HETATM   12  C   UNL     1      -7.355  11.385  66.699  1.00  0.00    -0.107 A  
HETATM   13  C   UNL     1      -8.387  10.434  66.661  1.00  0.00    -0.127 A  
HETATM   14  C   UNL     1      -9.580  10.619  67.377  1.00  0.00    -0.180 A  
HETATM   15  C   UNL     1      -9.728  11.783  68.107  1.00  0.00    -0.192 A  
HETATM   16  C   UNL     1     -10.905  12.303  68.877  1.00  0.00    -0.238 C  
HETATM   17  C   UNL     1     -12.384  12.223  68.515  1.00  0.00     0.363 C  
HETATM   18  C   UNL     1     -13.037  13.009  69.713  1.00  0.00     1.223 C  
HETATM   19  N   UNL     1     -12.777  14.467  69.506  1.00  0.00     0.006 NA 
HETATM   20  C   UNL     1     -12.310  12.661  71.076  1.00  0.00    -0.307 C  
HETATM   21  C   UNL     1     -11.061  11.817  70.450  1.00  0.00     0.855 C  
HETATM   22  C   UNL     1     -13.643  15.144  70.477  1.00  0.00     0.022 C  
HETATM   23  O   UNL     1     -14.014  16.366  69.889  1.00  0.00     1.777 OA 
HETATM   24  O   UNL     1     -11.455  10.435  70.498  1.00  0.00    -0.304 OA 
HETATM   25  H   UNL     1     -11.544  10.155  71.402  1.00  0.00     0.000 HD 
HETATM   26  H   UNL     1     -14.475  16.250  69.066  1.00  0.00     0.000 HD 
ENDBRANCH   2   3
TORSDOF 1
ENDMDL
MODEL      136
REMARK 921   NORMALIZED FREE ENERGY PREDICTED BY IDOCK:    2.87 KCAL/MOL
REMARK 922        TOTAL FREE ENERGY PREDICTED BY IDOCK:    2.91 KCAL/MOL
REMARK 923 INTER-LIGAND FREE ENERGY PREDICTED BY IDOCK:    3.05 KCAL/MOL
REMARK 924 INTRA-LIGAND FREE ENERGY PREDICTED BY IDOCK:   -0.13 KCAL/MOL
REMARK 927      BINDING AFFINITY PREDICTED BY RF-SCORE:    0.00 PKD
ROOT
HETATM    1  C   UNL     1     -11.966  11.584  69.368  1.00  0.00    -0.392 C  
HETATM    2  C   UNL     1     -11.317  11.859  68.014  1.00  0.00    -0.352 C  
ENDROOT
BRANCH   2   3
HETATM    3  C   UNL     1     -10.512  13.150  67.996  1.00  0.00    -0.245 C  
HETATM    4  C   UNL     1     -11.142  14.365  67.226  1.00  0.00    -0.318 C  
HETATM    5  C   UNL     1      -9.852  14.716  66.407  1.00  0.00    -0.302 C  
HETATM    6  C   UNL     1      -9.011  15.386  67.542  1.00  0.00    -0.183 C  
HETATM    7  C   UNL     1      -8.560  16.842  67.493  1.00  0.00    -0.203 C  
HETATM    8  N   UNL     1      -8.285  17.313  66.136  1.00  0.00    -0.482 NA 
HETATM    9  C   UNL     1      -7.162  16.745  65.416  1.00  0.00     2.391 C  
HETATM   10  C   UNL     1      -8.447  18.698  66.310  1.00  0.00    -0.224 A  
HETATM   11  C   UNL     1      -7.792  19.686  65.594  1.00  0.00    -0.072 A  
HETATM   12  C   UNL     1      -7.974  21.010  65.976  1.00  0.00     0.833 A  
HETATM   13  C   UNL     1      -8.823  21.332  67.046  1.00  0.00     0.490 A  
HETATM   14  C   UNL     1      -9.523  20.340  67.750  1.00  0.00    -0.453 A  
HETATM   15  C   UNL     1      -9.336  19.023  67.378  1.00  0.00    -0.345 A  
HETATM   16  C   UNL     1      -9.856  17.758  67.992  1.00  0.00    -0.317 C  
HETATM   17  C   UNL     1     -10.024  17.421  69.469  1.00  0.00     0.101 C  
HETATM   18  C   UNL     1     -10.546  15.938  69.390  1.00  0.00    -0.263 C  
HETATM   19  N   UNL     1      -9.391  15.059  69.034  1.00  0.00    -0.207 NA 
HETATM   20  C   UNL     1     -11.568  15.765  68.192  1.00  0.00    -0.259 C  
HETATM   21  C   UNL     1     -11.342  17.226  67.498  1.00  0.00     0.402 C  
HETATM   22  C   UNL     1      -9.874  13.693  69.260  1.00  0.00     0.437 C  
HETATM   23  O   UNL     1      -8.757  12.942  69.666  1.00  0.00     0.806 OA 
HETATM   24  O   UNL     1     -12.369  18.079  68.033  1.00  0.00     2.202 OA 
HETATM   25  H   UNL     1     -13.223  17.774  67.750  1.00  0.00     0.000 HD 
HETATM   26  H   UNL     1      -8.357  13.282  70.458  1.00  0.00     0.000 HD 
ENDBRANCH   2   3
TORSDOF 1
ENDMDL
MODEL      137
REMARK 921   NORMALIZED FREE ENERGY PREDICTED BY IDOCK:    8.94 KCAL/MOL
REMARK 922        TOTAL FREE ENERGY PREDICTED BY IDOCK:    9.33 KCAL/MOL
REMARK 923 INTER-LIGAND FREE ENERGY PREDICTED BY IDOCK:    9.50 KCAL/MOL
REMARK 924 INTRA-LIGAND FREE ENERGY PREDICTED BY IDOCK:   -0.17 KCAL/MOL
REMARK 927      BINDING AFFINITY PREDICTED BY RF-SCORE:    0.00 PKD
ROOT
HETATM    1  C   UNL     1      -8.894   6.188  62.662  1.00  0.00     0.372 C  
HETATM    2  C   UNL     1      -8.232   7.527  62.343  1.00  0.00    -0.089 C  
ENDROOT
BRANCH   2   3
HETATM    3  C   UNL     1      -8.102   8.428  63.562  1.00  0.00    -0.143 C  
HETATM    4  C   UNL     1      -8.002   7.717  64.958  1.00  0.00    -0.131 C  
HETATM    5  C   UNL     1      -9.093   8.597  65.659  1.00  0.00    -0.221 C  
HETATM    6  C   UNL     1      -8.270   9.912  65.848  1.00  0.00    -0.124 C  
HETATM    7  C   UNL     1      -7.951  10.504  67.217  1.00  0.00    -0.114 C  
HETATM    8  N   UNL     1      -9.002  10.266  68.205  1.00  0.00    -0.128 NA 
HETATM    9  C   UNL     1     -10.290  10.906  68.019  1.00  0.00    -0.185 C  
HETATM   10  C   UNL     1      -8.264  10.386  69.395  1.00  0.00    -0.151 A  
HETATM   11  C   UNL     1      -8.757  10.825  70.612  1.00  0.00     2.710 A  
HETATM   12  C   UNL     1      -7.864  11.003  71.662  1.00  0.00     7.199 A  
HETATM   13  C   UNL     1      -6.500  10.718  71.492  1.00  0.00     1.442 A  
HETATM   14  C   UNL     1      -5.999  10.232  70.274  1.00  0.00    -0.088 A  
HETATM   15  C   UNL     1      -6.884  10.064  69.227  1.00  0.00    -0.059 A  
HETATM   16  C   UNL     1      -6.638   9.667  67.802  1.00  0.00    -0.065 C  
HETATM   17  C   UNL     1      -5.483  10.070  66.893  1.00  0.00    -0.045 C  
HETATM   18  C   UNL     1      -5.887   9.357  65.548  1.00  0.00    -0.058 C  
HETATM   19  N   UNL     1      -7.008  10.131  64.933  1.00  0.00    -0.136 NA 
HETATM   20  C   UNL     1      -6.496   7.923  65.832  1.00  0.00    -0.042 C  
HETATM   21  C   UNL     1      -6.606   8.050  67.457  1.00  0.00    -0.058 C  
HETATM   22  C   UNL     1      -7.133   9.595  63.573  1.00  0.00    -0.108 C  
HETATM   23  O   UNL     1      -7.566  10.662  62.767  1.00  0.00    -0.256 OA 
HETATM   24  O   UNL     1      -5.404   7.461  67.981  1.00  0.00    -0.023 OA 
HETATM   25  H   UNL     1      -5.385   6.533  67.783  1.00  0.00     0.000 HD 
HETATM   26  H   UNL     1      -6.959  11.394  62.775  1.00  0.00     0.000 HD 
ENDBRANCH   2   3
TORSDOF 1
ENDMDL
MODEL      138
REMARK 921   NORMALIZED FREE ENERGY PREDICTED BY IDOCK:   11.89 KCAL/MOL
REMARK 922        TOTAL FREE ENERGY PREDICTED BY IDOCK:   12.45 KCAL/MOL
REMARK 923 INTER-LIGAND FREE ENERGY PREDICTED BY IDOCK:   12.25 KCAL/MOL
REMARK 924 INTRA-LIGAND FREE ENERGY PREDICTED BY IDOCK:    0.20 KCAL/MOL
REMARK 927      BINDING AFFINITY PREDICTED BY RF-SCORE:    0.00 PKD
ROOT
HETATM    1  C   UNL     1      -6.341  15.231  72.268  1.00  0.00     1.676 C  
HETATM    2  C   UNL     1      -6.759  14.877  70.842  1.00  0.00     0.499 C  
ENDROOT
BRANCH   2   3
HETATM    3  C   UNL     1      -6.742  16.077  69.907  1.00  0.00    -0.031 C  
HETATM    4  C   UNL     1      -7.681  16.006  68.650  1.00  0.00    -0.176 C  
HETATM    5  C   UNL     1      -6.586  16.438  67.614  1.00  0.00    -0.172 C  
HETATM    6  C   UNL     1      -6.518  17.965  67.946  1.00  0.00    -0.183 C  
HETATM    7  C   UNL     1      -6.869  19.052  66.935  1.00  0.00    -0.198 C  
HETATM    8  N   UNL     1      -6.536  18.686  65.559  1.00  0.00    -0.372 NA 
HETATM    9  C   UNL     1      -5.140  18.536  65.196  1.00  0.00    -0.170 C  
HETATM   10  C   UNL     1      -7.414  19.527  64.854  1.00  0.00     0.951 A  
HETATM   11  C   UNL     1      -7.191  20.054  63.592  1.00  0.00     2.242 A  
HETATM   12  C   UNL     1      -8.106  20.970  63.087  1.00  0.00     2.952 A  
HETATM   13  C   UNL     1      -9.240  21.328  63.833  1.00  0.00     3.822 A  
HETATM   14  C   UNL     1      -9.495  20.766  65.094  1.00  0.00     1.325 A  
HETATM   15  C   UNL     1      -8.582  19.863  65.601  1.00  0.00     0.173 A  
HETATM   16  C   UNL     1      -8.526  19.185  66.937  1.00  0.00    -0.309 C  
HETATM   17  C   UNL     1      -8.869  19.760  68.307  1.00  0.00    -0.329 C  
HETATM   18  C   UNL     1      -8.531  18.543  69.246  1.00  0.00     0.222 C  
HETATM   19  N   UNL     1      -7.044  18.439  69.352  1.00  0.00    -0.125 NA 
HETATM   20  C   UNL     1      -8.984  17.178  68.582  1.00  0.00    -0.267 C  
HETATM   21  C   UNL     1      -9.360  17.766  67.106  1.00  0.00    -0.264 C  
HETATM   22  C   UNL     1      -6.810  17.492  70.448  1.00  0.00     1.485 C  
HETATM   23  O   UNL     1      -5.611  17.892  71.064  1.00  0.00    -0.142 OA 
HETATM   24  O   UNL     1     -10.773  18.030  67.135  1.00  0.00    -0.356 OA 
HETATM   25  H   UNL     1     -11.252  17.215  67.232  1.00  0.00     0.000 HD 
HETATM   26  H   UNL     1      -5.653  18.779  71.402  1.00  0.00     0.000 HD 
ENDBRANCH   2   3
TORSDOF 1
ENDMDL
MODEL      139
REMARK 921   NORMALIZED FREE ENERGY PREDICTED BY IDOCK:   15.99 KCAL/MOL
REMARK 922        TOTAL FREE ENERGY PREDICTED BY IDOCK:   16.79 KCAL/MOL
REMARK 923 INTER-LIGAND FREE ENERGY PREDICTED BY IDOCK:   16.96 KCAL/MOL
REMARK 924 INTRA-LIGAND FREE ENERGY PREDICTED BY IDOCK:   -0.16 KCAL/MOL
REMARK 927      BINDING AFFINITY PREDICTED BY RF-SCORE:    0.00 PKD
ROOT
HETATM    1  C   UNL     1     -12.328  15.659  73.392  1.00  0.00    -0.633 C  
HETATM    2  C   UNL     1     -13.236  14.603  72.766  1.00  0.00    -0.591 C  
ENDROOT
BRANCH   2   3
HETATM    3  C   UNL     1     -12.884  14.304  71.316  1.00  0.00    -0.422 C  
HETATM    4  C   UNL     1     -12.568  15.537  70.398  1.00  0.00    -0.421 C  
HETATM    5  C   UNL     1     -13.507  15.099  69.221  1.00  0.00     2.142 C  
HETATM    6  C   UNL     1     -12.633  13.950  68.620  1.00  0.00     0.535 C  
HETATM    7  C   UNL     1     -12.076  13.985  67.200  1.00  0.00    -0.401 C  
HETATM    8  N   UNL     1     -12.953  14.676  66.256  1.00  0.00     0.482 NA 
HETATM    9  C   UNL     1     -14.239  14.085  65.939  1.00  0.00     5.184 C  
HETATM   10  C   UNL     1     -12.024  15.038  65.266  1.00  0.00    -0.086 A  
HETATM   11  C   UNL     1     -12.296  15.188  63.917  1.00  0.00     0.156 A  
HETATM   12  C   UNL     1     -11.236  15.430  63.051  1.00  0.00     4.621 A  
HETATM   13  C   UNL     1      -9.927  15.545  63.543  1.00  0.00     7.471 A  
HETATM   14  C   UNL     1      -9.648  15.436  64.915  1.00  0.00     0.697 A  
HETATM   15  C   UNL     1     -10.699  15.186  65.775  1.00  0.00    -0.359 A  
HETATM   16  C   UNL     1     -10.704  14.923  67.251  1.00  0.00    -0.294 C  
HETATM   17  C   UNL     1      -9.708  14.111  68.072  1.00  0.00    -0.226 C  
HETATM   18  C   UNL     1     -10.347  14.200  69.508  1.00  0.00     0.185 C  
HETATM   19  N   UNL     1     -11.537  13.296  69.542  1.00  0.00    -0.293 NA 
HETATM   20  C   UNL     1     -10.933  15.647  69.774  1.00  0.00    -0.307 C  
HETATM   21  C   UNL     1     -10.767  16.233  68.259  1.00  0.00    -0.322 C  
HETATM   22  C   UNL     1     -11.901  13.206  70.960  1.00  0.00     0.422 C  
HETATM   23  O   UNL     1     -12.437  11.920  71.148  1.00  0.00    -0.348 OA 
HETATM   24  O   UNL     1      -9.508  16.926  68.239  1.00  0.00    -0.236 OA 
HETATM   25  H   UNL     1      -9.544  17.678  68.818  1.00  0.00     0.000 HD 
HETATM   26  H   UNL     1     -11.821  11.232  70.924  1.00  0.00     0.000 HD 
ENDBRANCH   2   3
TORSDOF 1
ENDMDL
MODEL      140
REMARK 921   NORMALIZED FREE ENERGY PREDICTED BY IDOCK:   26.53 KCAL/MOL
REMARK 922        TOTAL FREE ENERGY PREDICTED BY IDOCK:   27.95 KCAL/MOL
REMARK 923 INTER-LIGAND FREE ENERGY PREDICTED BY IDOCK:   27.85 KCAL/MOL
REMARK 924 INTRA-LIGAND FREE ENERGY PREDICTED BY IDOCK:    0.10 KCAL/MOL
REMARK 927      BINDING AFFINITY PREDICTED BY RF-SCORE:    0.00 PKD
ROOT
HETATM    1  C   UNL     1     -11.691  17.316  73.012  1.00  0.00     0.765 C  
HETATM    2  C   UNL     1     -10.294  17.918  72.877  1.00  0.00     5.553 C  
ENDROOT
BRANCH   2   3
HETATM    3  C   UNL     1      -9.912  18.206  71.432  1.00  0.00     4.814 C  
HETATM    4  C   UNL     1      -8.441  17.860  71.009  1.00  0.00     7.109 C  
HETATM    5  C   UNL     1      -8.150  19.236  70.317  1.00  0.00     1.421 C  
HETATM    6  C   UNL     1      -8.975  19.036  69.005  1.00  0.00    -0.182 C  
HETATM    7  C   UNL     1      -8.342  19.028  67.617  1.00  0.00    -0.287 C  
HETATM    8  N   UNL     1      -7.184  19.914  67.510  1.00  0.00    -0.259 NA 
HETATM    9  C   UNL     1      -7.390  21.346  67.614  1.00  0.00     0.331 C  
HETATM   10  C   UNL     1      -6.514  19.325  66.424  1.00  0.00    -0.187 A  
HETATM   11  C   UNL     1      -5.710  19.988  65.512  1.00  0.00    -0.201 A  
HETATM   12  C   UNL     1      -5.221  19.278  64.422  1.00  0.00    -0.234 A  
HETATM   13  C   UNL     1      -5.516  17.914  64.270  1.00  0.00     0.801 A  
HETATM   14  C   UNL     1      -6.294  17.224  65.213  1.00  0.00     1.383 A  
HETATM   15  C   UNL     1      -6.790  17.931  66.291  1.00  0.00    -0.299 A  
HETATM   16  C   UNL     1      -7.718  17.504  67.389  1.00  0.00    -0.213 C  
HETATM   17  C   UNL     1      -8.937  16.594  67.297  1.00  0.00    -0.211 C  
HETATM   18  C   UNL     1      -9.460  16.629  68.782  1.00  0.00    -0.258 C  
HETATM   19  N   UNL     1     -10.117  17.952  69.009  1.00  0.00    -0.340 NA 
HETATM   20  C   UNL     1      -8.252  16.599  69.805  1.00  0.00     0.834 C  
HETATM   21  C   UNL     1      -7.044  16.797  68.724  1.00  0.00    -0.202 C  
HETATM   22  C   UNL     1     -10.823  17.807  70.287  1.00  0.00     1.539 C  
HETATM   23  O   UNL     1     -11.966  18.620  70.200  1.00  0.00     6.285 OA 
HETATM   24  O   UNL     1      -6.586  15.473  68.397  1.00  0.00    -0.109 OA 
HETATM   25  H   UNL     1      -6.199  15.067  69.164  1.00  0.00     0.000 HD 
HETATM   26  H   UNL     1     -12.537  18.370  69.482  1.00  0.00     0.000 HD 
ENDBRANCH   2   3
TORSDOF 1
ENDMDL
MODEL      141
REMARK 921   NORMALIZED FREE ENERGY PREDICTED BY IDOCK:   49.12 KCAL/MOL
REMARK 922        TOTAL FREE ENERGY PREDICTED BY IDOCK:   51.86 KCAL/MOL
REMARK 923 INTER-LIGAND FREE ENERGY PREDICTED BY IDOCK:   51.89 KCAL/MOL
REMARK 924 INTRA-LIGAND FREE ENERGY PREDICTED BY IDOCK:   -0.03 KCAL/MOL
REMARK 927      BINDING AFFINITY PREDICTED BY RF-SCORE:    0.00 PKD
ROOT
HETATM    1  C   UNL     1     -13.476  14.997  66.669  1.00  0.00     3.908 C  
HETATM    2  C   UNL     1     -13.885  13.601  66.203  1.00  0.00     3.978 C  
ENDROOT
BRANCH   2   3
HETATM    3  C   UNL     1     -13.422  12.503  67.149  1.00  0.00     6.595 C  
HETATM    4  C   UNL     1     -12.514  11.378  66.536  1.00  0.00     2.716 C  
HETATM    5  C   UNL     1     -13.328  10.179  67.132  1.00  0.00    14.094 C  
HETATM    6  C   UNL     1     -12.855  10.272  68.620  1.00  0.00     3.146 C  
HETATM    7  C   UNL     1     -12.087   9.156  69.320  1.00  0.00     1.506 C  
HETATM    8  N   UNL     1     -12.463   7.822  68.857  1.00  0.00     3.394 NA 
HETATM    9  C   UNL     1     -13.800   7.336  69.142  1.00  0.00    10.092 C  
HETATM   10  C   UNL     1     -11.308   7.099  69.201  1.00  0.00     0.135 A  
HETATM   11  C   UNL     1     -11.265   5.757  69.542  1.00  0.00    -0.139 A  
HETATM   12  C   UNL     1     -10.057   5.224  69.978  1.00  0.00    -0.336 A  
HETATM   13  C   UNL     1      -8.908   6.026  70.043  1.00  0.00    -0.139 A  
HETATM   14  C   UNL     1      -8.934   7.376  69.659  1.00  0.00    -0.141 A  
HETATM   15  C   UNL     1     -10.135   7.910  69.236  1.00  0.00    -0.197 A  
HETATM   16  C   UNL     1     -10.496   9.317  68.865  1.00  0.00    -0.235 C  
HETATM   17  C   UNL     1     -10.034  10.616  69.517  1.00  0.00    -0.138 C  
HETATM   18  C   UNL     1     -10.834  11.682  68.679  1.00  0.00    -0.213 C  
HETATM   19  N   UNL     1     -12.261  11.642  69.121  1.00  0.00    -0.286 NA 
HETATM   20  C   UNL     1     -10.874  11.279  67.148  1.00  0.00    -0.321 C  
HETATM   21  C   UNL     1     -10.241   9.782  67.298  1.00  0.00    -0.232 C  
HETATM   22  C   UNL     1     -12.874  12.833  68.524  1.00  0.00     1.791 C  
HETATM   23  O   UNL     1     -13.874  13.251  69.418  1.00  0.00     3.046 OA 
HETATM   24  O   UNL     1      -8.831   9.924  67.053  1.00  0.00    -0.133 OA 
HETATM   25  H   UNL     1      -8.684  10.190  66.154  1.00  0.00     0.000 HD 
HETATM   26  H   UNL     1     -13.531  13.458  70.279  1.00  0.00     0.000 HD 
ENDBRANCH   2   3
TORSDOF 1
ENDMDL
MODEL      142
REMARK 921   NORMALIZED FREE ENERGY PREDICTED BY IDOCK:   51.45 KCAL/MOL
REMARK 922        TOTAL FREE ENERGY PREDICTED BY IDOCK:   54.33 KCAL/MOL
REMARK 923 INTER-LIGAND FREE ENERGY PREDICTED BY IDOCK:   54.47 KCAL/MOL
REMARK 924 INTRA-LIGAND FREE ENERGY PREDICTED BY IDOCK:   -0.14 KCAL/MOL
REMARK 927      BINDING AFFINITY PREDICTED BY RF-SCORE:    0.00 PKD
ROOT
HETATM    1  C   UNL     1     -11.299  19.512  73.621  1.00  0.00     6.250 C  
HETATM    2  C   UNL     1     -11.967  18.717  72.501  1.00  0.00     8.124 C  
ENDROOT
BRANCH   2   3
HETATM    3  C   UNL     1     -11.157  18.718  71.212  1.00  0.00     4.225 C  
HETATM    4  C   UNL     1     -10.294  17.440  70.920  1.00  0.00     2.223 C  
HETATM    5  C   UNL     1      -8.975  18.216  70.580  1.00  0.00     4.506 C  
HETATM    6  C   UNL     1      -9.356  18.745  69.159  1.00  0.00    -0.073 C  
HETATM    7  C   UNL     1      -8.594  18.357  67.896  1.00  0.00    -0.272 C  
HETATM    8  N   UNL     1      -7.168  18.138  68.130  1.00  0.00    -0.238 NA 
HETATM    9  C   UNL     1      -6.342  19.268  68.507  1.00  0.00    -0.247 C  
HETATM   10  C   UNL     1      -6.857  17.306  67.041  1.00  0.00    -0.190 A  
HETATM   11  C   UNL     1      -5.630  17.232  66.403  1.00  0.00    -0.208 A  
HETATM   12  C   UNL     1      -5.524  16.447  65.260  1.00  0.00     4.535 A  
HETATM   13  C   UNL     1      -6.632  15.728  64.787  1.00  0.00    12.321 A  
HETATM   14  C   UNL     1      -7.868  15.763  65.452  1.00  0.00     3.877 A  
HETATM   15  C   UNL     1      -7.977  16.550  66.581  1.00  0.00    -0.320 A  
HETATM   16  C   UNL     1      -9.170  16.866  67.433  1.00  0.00    -0.224 C  
HETATM   17  C   UNL     1     -10.606  17.124  66.993  1.00  0.00    -0.227 C  
HETATM   18  C   UNL     1     -11.298  17.446  68.370  1.00  0.00     0.436 C  
HETATM   19  N   UNL     1     -10.884  18.821  68.785  1.00  0.00     0.481 NA 
HETATM   20  C   UNL     1     -10.746  16.498  69.512  1.00  0.00    -0.321 C  
HETATM   21  C   UNL     1      -9.526  15.821  68.664  1.00  0.00    -0.208 C  
HETATM   22  C   UNL     1     -11.774  19.162  69.900  1.00  0.00     7.054 C  
HETATM   23  O   UNL     1     -11.968  20.553  69.838  1.00  0.00     3.177 OA 
HETATM   24  O   UNL     1     -10.051  14.594  68.128  1.00  0.00    -0.217 OA 
HETATM   25  H   UNL     1     -10.255  13.994  68.834  1.00  0.00     0.000 HD 
HETATM   26  H   UNL     1     -12.354  20.831  69.016  1.00  0.00     0.000 HD 
ENDBRANCH   2   3
TORSDOF 1
ENDMDL
MODEL      143
REMARK 921   NORMALIZED FREE ENERGY PREDICTED BY IDOCK:   57.82 KCAL/MOL
REMARK 922        TOTAL FREE ENERGY PREDICTED BY IDOCK:   61.07 KCAL/MOL
REMARK 923 INTER-LIGAND FREE ENERGY PREDICTED BY IDOCK:   61.04 KCAL/MOL
REMARK 924 INTRA-LIGAND FREE ENERGY PREDICTED BY IDOCK:    0.03 KCAL/MOL
REMARK 927      BINDING AFFINITY PREDICTED BY RF-SCORE:    0.00 PKD
ROOT
HETATM    1  C   UNL     1     -11.782  14.987  62.630  1.00  0.00     4.756 C  
HETATM    2  C   UNL     1     -12.223  13.676  63.277  1.00  0.00    -0.096 C  
ENDROOT
BRANCH   2   3
HETATM    3  C   UNL     1     -12.191  13.727  64.797  1.00  0.00    -0.438 C  
HETATM    4  C   UNL     1     -11.448  12.552  65.528  1.00  0.00    -0.389 C  
HETATM    5  C   UNL     1     -12.597  12.255  66.552  1.00  0.00     1.240 C  
HETATM    6  C   UNL     1     -12.401  13.476  67.509  1.00  0.00    -0.040 C  
HETATM    7  C   UNL     1     -12.035  13.328  68.982  1.00  0.00    -0.293 C  
HETATM    8  N   UNL     1     -12.597  12.125  69.595  1.00  0.00     0.195 NA 
HETATM    9  C   UNL     1     -14.035  12.028  69.749  1.00  0.00     5.714 C  
HETATM   10  C   UNL     1     -11.709  11.950  70.671  1.00  0.00     0.144 A  
HETATM   11  C   UNL     1     -12.019  11.373  71.891  1.00  0.00     1.341 A  
HETATM   12  C   UNL     1     -11.057  11.390  72.894  1.00  0.00    11.320 A  
HETATM   13  C   UNL     1      -9.795  11.956  72.660  1.00  0.00    20.383 A  
HETATM   14  C   UNL     1      -9.458  12.505  71.413  1.00  0.00    14.083 A  
HETATM   15  C   UNL     1     -10.416  12.499  70.418  1.00  0.00     2.857 A  
HETATM   16  C   UNL     1     -10.390  13.091  69.041  1.00  0.00     0.035 C  
HETATM   17  C   UNL     1      -9.790  14.418  68.592  1.00  0.00    -0.231 C  
HETATM   18  C   UNL     1     -10.171  14.428  67.065  1.00  0.00    -0.263 C  
HETATM   19  N   UNL     1     -11.630  14.731  66.954  1.00  0.00    -0.353 NA 
HETATM   20  C   UNL     1     -10.011  12.984  66.436  1.00  0.00    -0.277 C  
HETATM   21  C   UNL     1      -9.754  12.166  67.826  1.00  0.00    -0.197 C  
HETATM   22  C   UNL     1     -11.850  15.009  65.531  1.00  0.00    -0.071 C  
HETATM   23  O   UNL     1     -12.887  15.957  65.470  1.00  0.00     1.765 OA 
HETATM   24  O   UNL     1      -8.326  12.080  67.974  1.00  0.00    -0.145 OA 
HETATM   25  H   UNL     1      -7.961  11.549  67.276  1.00  0.00     0.000 HD 
HETATM   26  H   UNL     1     -12.673  16.761  65.930  1.00  0.00     0.000 HD 
ENDBRANCH   2   3
TORSDOF 1
ENDMDL
MODEL      144
REMARK 921   NORMALIZED FREE ENERGY PREDICTED BY IDOCK:   59.92 KCAL/MOL
REMARK 922        TOTAL FREE ENERGY PREDICTED BY IDOCK:   63.29 KCAL/MOL
REMARK 923 INTER-LIGAND FREE ENERGY PREDICTED BY IDOCK:   63.44 KCAL/MOL
REMARK 924 INTRA-LIGAND FREE ENERGY PREDICTED BY IDOCK:   -0.14 KCAL/MOL
REMARK 927      BINDING AFFINITY PREDICTED BY RF-SCORE:    0.00 PKD
ROOT
HETATM    1  C   UNL     1     -10.425  14.731  73.770  1.00  0.00     4.555 C  
HETATM    2  C   UNL     1      -9.094  14.662  73.025  1.00  0.00     8.666 C  
ENDROOT
BRANCH   2   3
HETATM    3  C   UNL     1      -8.996  13.459  72.099  1.00  0.00    15.404 C  
HETATM    4  C   UNL     1     -10.142  13.288  71.040  1.00  0.00     6.406 C  
HETATM    5  C   UNL     1     -10.417  11.776  71.349  1.00  0.00     6.844 C  
HETATM    6  C   UNL     1      -9.166  11.148  70.654  1.00  0.00     4.029 C  
HETATM    7  C   UNL     1      -9.266  10.177  69.482  1.00  0.00    -0.204 C  
HETATM    8  N   UNL     1     -10.454   9.326  69.541  1.00  0.00    -0.214 NA 
HETATM    9  C   UNL     1     -10.557   8.346  70.605  1.00  0.00    -0.208 C  
HETATM   10  C   UNL     1     -10.588   8.984  68.185  1.00  0.00    -0.171 A  
HETATM   11  C   UNL     1     -11.130   7.806  67.697  1.00  0.00     0.167 A  
HETATM   12  C   UNL     1     -11.076   7.570  66.328  1.00  0.00     1.849 A  
HETATM   13  C   UNL     1     -10.507   8.519  65.464  1.00  0.00     2.196 A  
HETATM   14  C   UNL     1      -9.994   9.734  65.946  1.00  0.00    -0.345 A  
HETATM   15  C   UNL     1     -10.038   9.965  67.307  1.00  0.00    -0.264 A  
HETATM   16  C   UNL     1      -9.488  11.101  68.117  1.00  0.00    -0.180 C  
HETATM   17  C   UNL     1      -8.171  11.845  67.933  1.00  0.00    -0.150 C  
HETATM   18  C   UNL     1      -8.210  12.848  69.146  1.00  0.00     0.565 C  
HETATM   19  N   UNL     1      -7.922  12.077  70.393  1.00  0.00     2.923 NA 
HETATM   20  C   UNL     1      -9.672  13.419  69.355  1.00  0.00     0.794 C  
HETATM   21  C   UNL     1     -10.445  12.437  68.304  1.00  0.00    -0.225 C  
HETATM   22  C   UNL     1      -7.689  13.097  71.421  1.00  0.00     7.881 C  
HETATM   23  O   UNL     1      -6.752  12.550  72.314  1.00  0.00     3.364 OA 
HETATM   24  O   UNL     1     -10.516  13.164  67.065  1.00  0.00    -0.246 OA 
HETATM   25  H   UNL     1     -11.065  13.931  67.172  1.00  0.00     0.000 HD 
HETATM   26  H   UNL     1      -5.933  12.323  71.889  1.00  0.00     0.000 HD 
ENDBRANCH   2   3
TORSDOF 1
ENDMDL
