MODEL        1
REMARK 921   NORMALIZED FREE ENERGY PREDICTED BY IDOCK:   -7.18 KCAL/MOL
REMARK 922        TOTAL FREE ENERGY PREDICTED BY IDOCK:   -7.38 KCAL/MOL
REMARK 923 INTER-LIGAND FREE ENERGY PREDICTED BY IDOCK:   -8.02 KCAL/MOL
REMARK 924 INTRA-LIGAND FREE ENERGY PREDICTED BY IDOCK:    0.64 KCAL/MOL
REMARK 927      BINDING AFFINITY PREDICTED BY RF-SCORE:    0.00 PKD
ROOT
HETATM    1  C   UNL     1     -10.877  10.229  66.578  1.00  0.00    -0.066 C  
HETATM    2  C   UNL     1      -9.876   9.825  65.693  1.00  0.00    -0.371 C  
HETATM    3  C   UNL     1      -9.429  10.690  66.821  1.00  0.00    -0.189 C  
HETATM    4  C   UNL     1     -10.703  10.658  68.475  1.00  0.00    -0.217 C  
HETATM    5  C   UNL     1      -8.000  10.959  65.929  1.00  0.00    -0.105 C  
HETATM    6  O   UNL     1     -12.024   9.974  68.356  1.00  0.00    -0.477 OA 
HETATM    7  O   UNL     1     -10.556  17.998  65.794  1.00  0.00    -0.528 OA 
HETATM    8  C   UNL     1      -9.676   9.836  68.086  1.00  0.00    -0.163 C  
HETATM    9  C   UNL     1      -8.761  11.242  68.896  1.00  0.00    -0.053 C  
HETATM   10  C   UNL     1      -9.547   8.372  68.312  1.00  0.00    -0.156 C  
HETATM   11  C   UNL     1      -8.845  16.304  66.001  1.00  0.00    -0.308 C  
HETATM   12  C   UNL     1     -11.772  15.006  67.797  1.00  0.00    -0.294 C  
HETATM   13  H   UNL     1     -12.604   9.960  69.108  1.00  0.00     0.000 HD 
HETATM   14  C   UNL     1      -9.553  12.809  68.556  1.00  0.00    -0.110 C  
HETATM   15  C   UNL     1     -10.665  14.633  66.816  1.00  0.00    -0.301 C  
HETATM   16  C   UNL     1      -9.390  15.546  66.949  1.00  0.00    -0.252 C  
HETATM   17  O   UNL     1     -10.572  12.958  69.542  1.00  0.00    -0.412 OA 
HETATM   18  C   UNL     1     -10.205  13.143  67.024  1.00  0.00    -0.250 C  
HETATM   19  C   UNL     1     -11.299  12.009  66.412  1.00  0.00    -0.411 C  
HETATM   20  H   UNL     1     -10.993  13.791  69.361  1.00  0.00     0.000 HD 
HETATM   21  C   UNL     1     -11.746  12.397  64.954  1.00  0.00    -0.365 C  
HETATM   22  C   UNL     1     -12.259  13.838  64.887  1.00  0.00    -0.443 C  
HETATM   23 CL   UNL     1     -10.476  12.285  63.691  1.00  0.00    -0.466 Cl 
HETATM   24  C   UNL     1     -11.258  14.830  65.406  1.00  0.00    -0.347 C  
HETATM   25  C   UNL     1     -10.967  15.937  64.707  1.00  0.00    -0.392 C  
HETATM   26  C   UNL     1     -10.170  16.875  65.504  1.00  0.00    -0.126 C  
ENDROOT
BRANCH   4  27
HETATM   27  C   UNL     1     -10.670  10.214  70.184  1.00  0.00    -0.300 C  
HETATM   28  O   UNL     1      -9.665   9.775  70.769  1.00  0.00    -0.192 OA 
BRANCH  27  29
HETATM   29  C   UNL     1     -11.950  10.230  71.070  1.00  0.00    -0.385 C  
HETATM   30  O   UNL     1     -12.747  11.396  70.852  1.00  0.00    -0.346 OA 
HETATM   31  H   UNL     1     -13.528  11.406  71.392  1.00  0.00     0.000 HD 
ENDBRANCH  27  29
ENDBRANCH   4  27
TORSDOF 2
ENDMDL
MODEL        2
REMARK 921   NORMALIZED FREE ENERGY PREDICTED BY IDOCK:   -7.07 KCAL/MOL
REMARK 922        TOTAL FREE ENERGY PREDICTED BY IDOCK:   -7.26 KCAL/MOL
REMARK 923 INTER-LIGAND FREE ENERGY PREDICTED BY IDOCK:   -8.10 KCAL/MOL
REMARK 924 INTRA-LIGAND FREE ENERGY PREDICTED BY IDOCK:    0.84 KCAL/MOL
REMARK 927      BINDING AFFINITY PREDICTED BY RF-SCORE:    0.00 PKD
ROOT
HETATM    1  C   UNL     1      -9.180  12.969  67.215  1.00  0.00    -0.213 C  
HETATM    2  C   UNL     1      -9.553  12.627  68.516  1.00  0.00    -0.112 C  
HETATM    3  C   UNL     1     -10.359  13.705  67.876  1.00  0.00    -0.249 C  
HETATM    4  C   UNL     1     -10.307  13.681  65.789  1.00  0.00    -0.298 C  
HETATM    5  C   UNL     1     -10.915  14.095  69.440  1.00  0.00    -0.216 C  
HETATM    6  O   UNL     1      -9.350  12.766  65.100  1.00  0.00    -0.389 OA 
HETATM    7  O   UNL     1      -7.247  20.489  68.108  1.00  0.00    -0.244 OA 
HETATM    8  C   UNL     1     -11.079  13.006  66.700  1.00  0.00    -0.318 C  
HETATM    9  C   UNL     1     -11.949  14.650  66.598  1.00  0.00    -0.293 C  
HETATM   10  C   UNL     1     -11.637  11.633  66.581  1.00  0.00    -0.194 C  
HETATM   11  C   UNL     1      -9.094  19.166  68.934  1.00  0.00    -0.350 C  
HETATM   12  C   UNL     1      -8.104  17.637  65.746  1.00  0.00     0.133 C  
HETATM   13  H   UNL     1      -9.326  12.755  64.151  1.00  0.00     0.000 HD 
HETATM   14  C   UNL     1     -10.780  15.991  66.420  1.00  0.00    -0.232 C  
HETATM   15  C   UNL     1      -8.499  17.331  67.188  1.00  0.00    -0.223 C  
HETATM   16  C   UNL     1      -9.377  18.463  67.840  1.00  0.00    -0.291 C  
HETATM   17  O   UNL     1     -10.507  16.094  65.025  1.00  0.00    -0.595 OA 
HETATM   18  C   UNL     1      -9.314  15.989  67.277  1.00  0.00    -0.218 C  
HETATM   19  C   UNL     1      -8.354  14.607  67.117  1.00  0.00    -0.236 C  
HETATM   20  H   UNL     1      -9.886  16.807  64.930  1.00  0.00     0.000 HD 
HETATM   21  C   UNL     1      -7.080  14.704  68.035  1.00  0.00    -0.138 C  
HETATM   22  C   UNL     1      -6.315  16.009  67.800  1.00  0.00    -0.166 C  
HETATM   23 CL   UNL     1      -7.384  14.642  69.803  1.00  0.00    -0.077 Cl 
HETATM   24  C   UNL     1      -7.180  17.223  67.980  1.00  0.00    -0.192 C  
HETATM   25  C   UNL     1      -6.762  18.256  68.726  1.00  0.00    -0.256 C  
HETATM   26  C   UNL     1      -7.637  19.421  68.560  1.00  0.00    -0.334 C  
ENDROOT
BRANCH   4  27
HETATM   27  C   UNL     1     -11.411  13.492  64.423  1.00  0.00    -0.394 C  
HETATM   28  O   UNL     1     -12.459  14.146  64.280  1.00  0.00    -0.650 OA 
BRANCH  27  29
HETATM   29  C   UNL     1     -11.211  12.390  63.341  1.00  0.00    -0.422 C  
HETATM   30  O   UNL     1     -12.386  11.602  63.145  1.00  0.00    -0.937 OA 
HETATM   31  H   UNL     1     -12.264  10.929  62.485  1.00  0.00     0.000 HD 
ENDBRANCH  27  29
ENDBRANCH   4  27
TORSDOF 2
ENDMDL
MODEL        3
REMARK 921   NORMALIZED FREE ENERGY PREDICTED BY IDOCK:   -7.06 KCAL/MOL
REMARK 922        TOTAL FREE ENERGY PREDICTED BY IDOCK:   -7.24 KCAL/MOL
REMARK 923 INTER-LIGAND FREE ENERGY PREDICTED BY IDOCK:   -7.86 KCAL/MOL
REMARK 924 INTRA-LIGAND FREE ENERGY PREDICTED BY IDOCK:    0.62 KCAL/MOL
REMARK 927      BINDING AFFINITY PREDICTED BY RF-SCORE:    0.00 PKD
ROOT
HETATM    1  C   UNL     1     -10.144   9.537  66.129  1.00  0.00    -0.326 C  
HETATM    2  C   UNL     1      -9.090   9.352  65.233  1.00  0.00    -0.287 C  
HETATM    3  C   UNL     1      -8.765  10.135  66.459  1.00  0.00    -0.139 C  
HETATM    4  C   UNL     1     -10.050   9.773  68.065  1.00  0.00    -0.171 C  
HETATM    5  C   UNL     1      -7.367  10.666  65.640  1.00  0.00    -0.087 C  
HETATM    6  O   UNL     1     -11.278   8.956  67.838  1.00  0.00    -0.450 OA 
HETATM    7  O   UNL     1     -10.746  17.329  66.190  1.00  0.00    -0.236 OA 
HETATM    8  C   UNL     1      -8.926   9.125  67.618  1.00  0.00    -0.130 C  
HETATM    9  C   UNL     1      -8.198  10.532  68.598  1.00  0.00    -0.130 C  
HETATM   10  C   UNL     1      -8.626   7.671  67.689  1.00  0.00    -0.116 C  
HETATM   11  C   UNL     1      -8.846  15.835  66.260  1.00  0.00    -0.378 C  
HETATM   12  C   UNL     1     -11.622  14.013  67.828  1.00  0.00    -0.378 C  
HETATM   13  H   UNL     1     -11.862   8.791  68.568  1.00  0.00     0.000 HD 
HETATM   14  C   UNL     1      -9.167  12.023  68.407  1.00  0.00    -0.160 C  
HETATM   15  C   UNL     1     -10.464  13.883  66.842  1.00  0.00    -0.276 C  
HETATM   16  C   UNL     1      -9.310  14.919  67.107  1.00  0.00    -0.227 C  
HETATM   17  O   UNL     1     -10.210  11.942  69.375  1.00  0.00    -0.409 OA 
HETATM   18  C   UNL     1      -9.833  12.443  66.902  1.00  0.00    -0.219 C  
HETATM   19  C   UNL     1     -10.775  11.262  66.143  1.00  0.00    -0.307 C  
HETATM   20  H   UNL     1     -10.725  12.734  69.273  1.00  0.00     0.000 HD 
HETATM   21  C   UNL     1     -11.244  11.752  64.723  1.00  0.00    -0.271 C  
HETATM   22  C   UNL     1     -11.924  13.122  64.797  1.00  0.00    -0.435 C  
HETATM   23 CL   UNL     1      -9.952  11.929  63.491  1.00  0.00    -0.420 Cl 
HETATM   24  C   UNL     1     -11.057  14.161  65.446  1.00  0.00    -0.321 C  
HETATM   25  C   UNL     1     -10.891  15.365  64.877  1.00  0.00    -0.445 C  
HETATM   26  C   UNL     1     -10.223  16.297  65.792  1.00  0.00    -0.367 C  
ENDROOT
BRANCH   4  27
HETATM   27  C   UNL     1      -9.988   9.152  69.717  1.00  0.00    -0.193 C  
HETATM   28  O   UNL     1      -9.117   9.467  70.546  1.00  0.00    -0.247 OA 
BRANCH  27  29
HETATM   29  C   UNL     1     -10.967   8.055  70.228  1.00  0.00    -0.242 C  
HETATM   30  O   UNL     1     -12.242   8.590  70.587  1.00  0.00    -0.497 OA 
HETATM   31  H   UNL     1     -12.840   7.921  70.899  1.00  0.00     0.000 HD 
ENDBRANCH  27  29
ENDBRANCH   4  27
TORSDOF 2
ENDMDL
MODEL        4
REMARK 921   NORMALIZED FREE ENERGY PREDICTED BY IDOCK:   -6.70 KCAL/MOL
REMARK 922        TOTAL FREE ENERGY PREDICTED BY IDOCK:   -6.84 KCAL/MOL
REMARK 923 INTER-LIGAND FREE ENERGY PREDICTED BY IDOCK:   -7.46 KCAL/MOL
REMARK 924 INTRA-LIGAND FREE ENERGY PREDICTED BY IDOCK:    0.62 KCAL/MOL
REMARK 927      BINDING AFFINITY PREDICTED BY RF-SCORE:    0.00 PKD
ROOT
HETATM    1  C   UNL     1     -12.179  13.540  67.436  1.00  0.00    -0.278 C  
HETATM    2  C   UNL     1     -11.733  14.606  68.218  1.00  0.00    -0.359 C  
HETATM    3  C   UNL     1     -10.667  13.788  67.574  1.00  0.00    -0.262 C  
HETATM    4  C   UNL     1     -11.304  12.736  65.886  1.00  0.00    -0.324 C  
HETATM    5  C   UNL     1      -9.578  14.503  68.674  1.00  0.00    -0.219 C  
HETATM    6  O   UNL     1     -12.762  12.700  65.565  1.00  0.00    -0.597 OA 
HETATM    7  O   UNL     1      -8.976   7.465  71.167  1.00  0.00    -0.142 OA 
HETATM    8  C   UNL     1     -10.861  14.023  66.057  1.00  0.00    -0.295 C  
HETATM    9  C   UNL     1      -9.262  13.070  65.971  1.00  0.00     0.066 C  
HETATM   10  C   UNL     1     -11.277  15.237  65.307  1.00  0.00    -0.338 C  
HETATM   11  C   UNL     1      -8.121   9.639  70.546  1.00  0.00    -0.145 C  
HETATM   12  C   UNL     1     -10.663   8.801  68.034  1.00  0.00    -0.151 C  
HETATM   13  H   UNL     1     -13.052  12.222  64.798  1.00  0.00     0.000 HD 
HETATM   14  C   UNL     1      -9.411  11.483  66.781  1.00  0.00    -0.189 C  
HETATM   15  C   UNL     1     -10.139   9.920  68.930  1.00  0.00    -0.194 C  
HETATM   16  C   UNL     1      -8.625   9.740  69.319  1.00  0.00    -0.158 C  
HETATM   17  O   UNL     1      -9.949  10.591  65.807  1.00  0.00    -0.231 OA 
HETATM   18  C   UNL     1     -10.285  11.320  68.228  1.00  0.00    -0.198 C  
HETATM   19  C   UNL     1     -11.871  11.905  68.215  1.00  0.00    -0.343 C  
HETATM   20  H   UNL     1     -10.027   9.748  66.237  1.00  0.00     0.000 HD 
HETATM   21  C   UNL     1     -12.524  11.776  69.641  1.00  0.00     0.044 C  
HETATM   22  C   UNL     1     -12.403  10.351  70.188  1.00  0.00    -0.281 C  
HETATM   23 CL   UNL     1     -11.835  12.835  70.915  1.00  0.00     0.052 Cl 
HETATM   24  C   UNL     1     -10.983   9.866  70.220  1.00  0.00    -0.366 C  
HETATM   25  C   UNL     1     -10.484   9.283  71.321  1.00  0.00    -0.408 C  
HETATM   26  C   UNL     1      -9.181   8.665  71.052  1.00  0.00    -0.203 C  
ENDROOT
BRANCH   4  27
HETATM   27  C   UNL     1     -10.960  12.642  64.156  1.00  0.00    -0.387 C  
HETATM   28  O   UNL     1      -9.814  12.644  63.674  1.00  0.00    -0.310 OA 
BRANCH  27  29
HETATM   29  C   UNL     1     -12.088  12.668  63.083  1.00  0.00    -0.271 C  
HETATM   30  O   UNL     1     -12.650  11.375  62.854  1.00  0.00    -0.970 OA 
HETATM   31  H   UNL     1     -13.338  11.391  62.199  1.00  0.00     0.000 HD 
ENDBRANCH  27  29
ENDBRANCH   4  27
TORSDOF 2
ENDMDL
MODEL        5
REMARK 921   NORMALIZED FREE ENERGY PREDICTED BY IDOCK:   -6.66 KCAL/MOL
REMARK 922        TOTAL FREE ENERGY PREDICTED BY IDOCK:   -6.79 KCAL/MOL
REMARK 923 INTER-LIGAND FREE ENERGY PREDICTED BY IDOCK:   -7.43 KCAL/MOL
REMARK 924 INTRA-LIGAND FREE ENERGY PREDICTED BY IDOCK:    0.64 KCAL/MOL
REMARK 927      BINDING AFFINITY PREDICTED BY RF-SCORE:    0.00 PKD
ROOT
HETATM    1  C   UNL     1      -9.040  15.892  69.080  1.00  0.00    -0.255 C  
HETATM    2  C   UNL     1      -8.000  15.007  69.370  1.00  0.00    -0.170 C  
HETATM    3  C   UNL     1      -8.039  15.521  67.972  1.00  0.00    -0.140 C  
HETATM    4  C   UNL     1      -9.063  17.328  67.757  1.00  0.00    -0.235 C  
HETATM    5  C   UNL     1      -6.986  14.242  67.568  1.00  0.00    -0.177 C  
HETATM    6  O   UNL     1      -9.836  17.863  68.917  1.00  0.00    -0.338 OA 
HETATM    7  O   UNL     1     -12.843  11.992  63.476  1.00  0.00    -0.749 OA 
HETATM    8  C   UNL     1      -7.769  17.038  68.108  1.00  0.00    -0.197 C  
HETATM    9  C   UNL     1      -7.701  16.927  66.250  1.00  0.00    -0.332 C  
HETATM   10  C   UNL     1      -6.889  17.789  69.041  1.00  0.00    -0.244 C  
HETATM   11  C   UNL     1     -10.493  12.384  63.889  1.00  0.00    -0.469 C  
HETATM   12  C   UNL     1     -12.262  15.279  65.292  1.00  0.00     0.292 C  
HETATM   13  H   UNL     1     -10.302  18.684  68.819  1.00  0.00     0.000 HD 
HETATM   14  C   UNL     1      -9.203  16.217  65.588  1.00  0.00     0.013 C  
HETATM   15  C   UNL     1     -11.151  14.268  65.558  1.00  0.00    -0.323 C  
HETATM   16  C   UNL     1     -10.536  13.667  64.240  1.00  0.00    -0.245 C  
HETATM   17  O   UNL     1     -10.123  17.297  65.450  1.00  0.00    -0.574 OA 
HETATM   18  C   UNL     1      -9.976  14.924  66.373  1.00  0.00    -0.290 C  
HETATM   19  C   UNL     1     -10.334  15.147  68.010  1.00  0.00    -0.240 C  
HETATM   20  H   UNL     1     -10.921  16.920  65.098  1.00  0.00     0.000 HD 
HETATM   21  C   UNL     1     -10.957  13.840  68.627  1.00  0.00    -0.266 C  
HETATM   22  C   UNL     1     -12.148  13.342  67.803  1.00  0.00    -0.299 C  
HETATM   23 CL   UNL     1      -9.851  12.434  68.760  1.00  0.00    -0.078 Cl 
HETATM   24  C   UNL     1     -11.798  13.121  66.360  1.00  0.00    -0.455 C  
HETATM   25  C   UNL     1     -12.146  11.985  65.738  1.00  0.00    -0.011 C  
HETATM   26  C   UNL     1     -11.935  12.084  64.290  1.00  0.00    -0.335 C  
ENDROOT
BRANCH   4  27
HETATM   27  C   UNL     1      -8.756  18.990  67.244  1.00  0.00    -0.278 C  
HETATM   28  O   UNL     1      -7.674  19.385  66.776  1.00  0.00    -0.240 OA 
BRANCH  27  29
HETATM   29  C   UNL     1      -9.797  20.129  67.455  1.00  0.00    -0.434 C  
HETATM   30  O   UNL     1     -11.088  19.785  66.947  1.00  0.00    -0.365 OA 
HETATM   31  H   UNL     1     -11.723  20.480  67.076  1.00  0.00     0.000 HD 
ENDBRANCH  27  29
ENDBRANCH   4  27
TORSDOF 2
ENDMDL
MODEL        6
REMARK 921   NORMALIZED FREE ENERGY PREDICTED BY IDOCK:   -6.59 KCAL/MOL
REMARK 922        TOTAL FREE ENERGY PREDICTED BY IDOCK:   -6.71 KCAL/MOL
REMARK 923 INTER-LIGAND FREE ENERGY PREDICTED BY IDOCK:   -7.35 KCAL/MOL
REMARK 924 INTRA-LIGAND FREE ENERGY PREDICTED BY IDOCK:    0.64 KCAL/MOL
REMARK 927      BINDING AFFINITY PREDICTED BY RF-SCORE:    0.00 PKD
ROOT
HETATM    1  C   UNL     1      -9.581  13.081  67.558  1.00  0.00    -0.204 C  
HETATM    2  C   UNL     1     -10.351  12.920  68.710  1.00  0.00    -0.143 C  
HETATM    3  C   UNL     1     -10.960  13.757  67.639  1.00  0.00    -0.278 C  
HETATM    4  C   UNL     1     -10.199  13.385  65.731  1.00  0.00    -0.295 C  
HETATM    5  C   UNL     1     -12.042  14.331  68.826  1.00  0.00    -0.300 C  
HETATM    6  O   UNL     1      -9.005  12.500  65.589  1.00  0.00    -0.391 OA 
HETATM    7  O   UNL     1      -8.577  20.831  67.466  1.00  0.00    -0.264 OA 
HETATM    8  C   UNL     1     -11.188  12.779  66.463  1.00  0.00    -0.349 C  
HETATM    9  C   UNL     1     -12.079  14.252  65.752  1.00  0.00    -0.414 C  
HETATM   10  C   UNL     1     -11.578  11.345  66.454  1.00  0.00     0.080 C  
HETATM   11  C   UNL     1     -10.502  19.436  67.906  1.00  0.00    -0.536 C  
HETATM   12  C   UNL     1      -8.384  17.531  65.590  1.00  0.00     0.501 C  
HETATM   13  H   UNL     1      -8.658  12.331  64.722  1.00  0.00     0.000 HD 
HETATM   14  C   UNL     1     -11.012  15.685  65.690  1.00  0.00    -0.272 C  
HETATM   15  C   UNL     1      -9.226  17.426  66.859  1.00  0.00    -0.266 C  
HETATM   16  C   UNL     1     -10.347  18.527  66.947  1.00  0.00    -0.431 C  
HETATM   17  O   UNL     1     -10.287  15.584  64.466  1.00  0.00    -0.550 OA 
HETATM   18  C   UNL     1      -9.930  16.023  66.954  1.00  0.00    -0.255 C  
HETATM   19  C   UNL     1      -8.882  14.772  67.397  1.00  0.00    -0.203 C  
HETATM   20  H   UNL     1      -9.720  16.346  64.433  1.00  0.00     0.000 HD 
HETATM   21  C   UNL     1      -8.007  15.192  68.637  1.00  0.00    -0.151 C  
HETATM   22  C   UNL     1      -7.298  16.528  68.398  1.00  0.00    -0.179 C  
HETATM   23 CL   UNL     1      -8.892  15.392  70.185  1.00  0.00     0.305 Cl 
HETATM   24  C   UNL     1      -8.252  17.629  68.038  1.00  0.00    -0.242 C  
HETATM   25  C   UNL     1      -8.184  18.820  68.651  1.00  0.00    -0.363 C  
HETATM   26  C   UNL     1      -9.026  19.814  67.977  1.00  0.00    -0.311 C  
ENDROOT
BRANCH   4  27
HETATM   27  C   UNL     1     -10.755  12.822  64.151  1.00  0.00    -0.412 C  
HETATM   28  O   UNL     1     -11.787  13.231  63.592  1.00  0.00    -0.473 OA 
BRANCH  27  29
HETATM   29  C   UNL     1     -10.045  11.667  63.386  1.00  0.00    -0.440 C  
HETATM   30  O   UNL     1      -8.808  12.080  62.804  1.00  0.00    -0.514 OA 
HETATM   31  H   UNL     1      -8.375  11.376  62.337  1.00  0.00     0.000 HD 
ENDBRANCH  27  29
ENDBRANCH   4  27
TORSDOF 2
ENDMDL
MODEL        7
REMARK 921   NORMALIZED FREE ENERGY PREDICTED BY IDOCK:   -6.55 KCAL/MOL
REMARK 922        TOTAL FREE ENERGY PREDICTED BY IDOCK:   -6.67 KCAL/MOL
REMARK 923 INTER-LIGAND FREE ENERGY PREDICTED BY IDOCK:   -7.30 KCAL/MOL
REMARK 924 INTRA-LIGAND FREE ENERGY PREDICTED BY IDOCK:    0.63 KCAL/MOL
REMARK 927      BINDING AFFINITY PREDICTED BY RF-SCORE:    0.00 PKD
ROOT
HETATM    1  C   UNL     1     -10.034   9.084  66.176  1.00  0.00    -0.311 C  
HETATM    2  C   UNL     1      -8.962   9.193  65.288  1.00  0.00    -0.246 C  
HETATM    3  C   UNL     1      -8.699   9.664  66.678  1.00  0.00    -0.146 C  
HETATM    4  C   UNL     1      -9.970   8.835  68.112  1.00  0.00    -0.173 C  
HETATM    5  C   UNL     1      -7.332  10.467  66.051  1.00  0.00    -0.137 C  
HETATM    6  O   UNL     1     -11.141   8.026  67.660  1.00  0.00    -0.495 OA 
HETATM    7  O   UNL     1     -11.143  16.562  68.156  1.00  0.00    -0.354 OA 
HETATM    8  C   UNL     1      -8.803   8.389  67.546  1.00  0.00    -0.139 C  
HETATM    9  C   UNL     1      -8.177   9.549  68.862  1.00  0.00    -0.116 C  
HETATM   10  C   UNL     1      -8.409   6.984  67.261  1.00  0.00    -0.122 C  
HETATM   11  C   UNL     1      -9.151  15.217  67.899  1.00  0.00    -0.179 C  
HETATM   12  C   UNL     1     -11.815  12.896  68.898  1.00  0.00    -0.352 C  
HETATM   13  H   UNL     1     -11.719   7.649  68.312  1.00  0.00     0.000 HD 
HETATM   14  C   UNL     1      -9.239  10.978  69.023  1.00  0.00    -0.064 C  
HETATM   15  C   UNL     1     -10.643  13.086  67.939  1.00  0.00    -0.239 C  
HETATM   16  C   UNL     1      -9.561  14.092  68.480  1.00  0.00    -0.214 C  
HETATM   17  O   UNL     1     -10.283  10.595  69.915  1.00  0.00    -0.430 OA 
HETATM   18  C   UNL     1      -9.919  11.719  67.655  1.00  0.00    -0.204 C  
HETATM   19  C   UNL     1     -10.775  10.709  66.603  1.00  0.00    -0.246 C  
HETATM   20  H   UNL     1     -10.848  11.354  70.002  1.00  0.00     0.000 HD 
HETATM   21  C   UNL     1     -11.265  11.508  65.339  1.00  0.00    -0.140 C  
HETATM   22  C   UNL     1     -12.034  12.772  65.734  1.00  0.00    -0.502 C  
HETATM   23 CL   UNL     1      -9.977  12.065  64.220  1.00  0.00    -0.284 Cl 
HETATM   24  C   UNL     1     -11.241  13.667  66.641  1.00  0.00    -0.324 C  
HETATM   25  C   UNL     1     -11.149  14.982  66.394  1.00  0.00    -0.329 C  
HETATM   26  C   UNL     1     -10.551  15.697  67.527  1.00  0.00    -0.297 C  
ENDROOT
BRANCH   4  27
HETATM   27  C   UNL     1      -9.881   7.826  69.560  1.00  0.00    -0.179 C  
HETATM   28  O   UNL     1      -9.039   7.977  70.461  1.00  0.00    -0.150 OA 
BRANCH  27  29
HETATM   29  C   UNL     1     -10.792   6.579  69.759  1.00  0.00    -0.295 C  
HETATM   30  O   UNL     1     -12.152   6.935  70.014  1.00  0.00    -0.637 OA 
HETATM   31  H   UNL     1     -12.707   6.174  70.136  1.00  0.00     0.000 HD 
ENDBRANCH  27  29
ENDBRANCH   4  27
TORSDOF 2
ENDMDL
MODEL        8
REMARK 921   NORMALIZED FREE ENERGY PREDICTED BY IDOCK:   -6.44 KCAL/MOL
REMARK 922        TOTAL FREE ENERGY PREDICTED BY IDOCK:   -6.54 KCAL/MOL
REMARK 923 INTER-LIGAND FREE ENERGY PREDICTED BY IDOCK:   -7.17 KCAL/MOL
REMARK 924 INTRA-LIGAND FREE ENERGY PREDICTED BY IDOCK:    0.63 KCAL/MOL
REMARK 927      BINDING AFFINITY PREDICTED BY RF-SCORE:    0.00 PKD
ROOT
HETATM    1  C   UNL     1      -9.943   8.928  66.089  1.00  0.00    -0.290 C  
HETATM    2  C   UNL     1      -8.851   8.818  65.226  1.00  0.00    -0.205 C  
HETATM    3  C   UNL     1      -8.586   9.518  66.514  1.00  0.00    -0.142 C  
HETATM    4  C   UNL     1      -9.928   9.031  68.039  1.00  0.00    -0.176 C  
HETATM    5  C   UNL     1      -7.165  10.121  65.791  1.00  0.00    -0.128 C  
HETATM    6  O   UNL     1     -11.134   8.217  67.707  1.00  0.00    -0.481 OA 
HETATM    7  O   UNL     1     -10.659  16.689  66.658  1.00  0.00    -0.286 OA 
HETATM    8  C   UNL     1      -8.778   8.429  67.595  1.00  0.00    -0.137 C  
HETATM    9  C   UNL     1      -8.110   9.773  68.697  1.00  0.00    -0.105 C  
HETATM   10  C   UNL     1      -8.460   6.977  67.579  1.00  0.00    -0.122 C  
HETATM   11  C   UNL     1      -8.743  15.216  66.703  1.00  0.00    -0.308 C  
HETATM   12  C   UNL     1     -11.551  13.259  68.029  1.00  0.00    -0.371 C  
HETATM   13  H   UNL     1     -11.744   7.996  68.400  1.00  0.00     0.000 HD 
HETATM   14  C   UNL     1      -9.092  11.262  68.569  1.00  0.00    -0.173 C  
HETATM   15  C   UNL     1     -10.354  13.210  67.085  1.00  0.00    -0.247 C  
HETATM   16  C   UNL     1      -9.226  14.239  67.466  1.00  0.00    -0.197 C  
HETATM   17  O   UNL     1     -10.172  11.103  69.486  1.00  0.00    -0.429 OA 
HETATM   18  C   UNL     1      -9.704  11.778  67.072  1.00  0.00    -0.198 C  
HETATM   19  C   UNL     1     -10.598  10.641  66.196  1.00  0.00    -0.211 C  
HETATM   20  H   UNL     1     -10.694  11.894  69.419  1.00  0.00     0.000 HD 
HETATM   21  C   UNL     1     -11.018  11.222  64.795  1.00  0.00    -0.192 C  
HETATM   22  C   UNL     1     -11.721  12.575  64.935  1.00  0.00    -0.409 C  
HETATM   23 CL   UNL     1      -9.681  11.498  63.631  1.00  0.00    -0.321 Cl 
HETATM   24  C   UNL     1     -10.895  13.577  65.688  1.00  0.00    -0.292 C  
HETATM   25  C   UNL     1     -10.724  14.819  65.210  1.00  0.00    -0.406 C  
HETATM   26  C   UNL     1     -10.106  15.694  66.212  1.00  0.00    -0.299 C  
ENDROOT
BRANCH   4  27
HETATM   27  C   UNL     1      -9.922   8.298  69.646  1.00  0.00    -0.193 C  
HETATM   28  O   UNL     1      -9.085   8.562  70.527  1.00  0.00    -0.143 OA 
BRANCH  27  29
HETATM   29  C   UNL     1     -10.911   7.163  70.044  1.00  0.00    -0.254 C  
HETATM   30  O   UNL     1     -12.243   7.644  70.229  1.00  0.00    -0.457 OA 
HETATM   31  H   UNL     1     -12.847   6.951  70.472  1.00  0.00     0.000 HD 
ENDBRANCH  27  29
ENDBRANCH   4  27
TORSDOF 2
ENDMDL
MODEL        9
REMARK 921   NORMALIZED FREE ENERGY PREDICTED BY IDOCK:   -6.22 KCAL/MOL
REMARK 922        TOTAL FREE ENERGY PREDICTED BY IDOCK:   -6.31 KCAL/MOL
REMARK 923 INTER-LIGAND FREE ENERGY PREDICTED BY IDOCK:   -7.17 KCAL/MOL
REMARK 924 INTRA-LIGAND FREE ENERGY PREDICTED BY IDOCK:    0.87 KCAL/MOL
REMARK 927      BINDING AFFINITY PREDICTED BY RF-SCORE:    0.00 PKD
ROOT
HETATM    1  C   UNL     1     -10.699   6.141  70.447  1.00  0.00    -0.347 C  
HETATM    2  C   UNL     1      -9.569   5.611  71.073  1.00  0.00    -0.210 C  
HETATM    3  C   UNL     1      -9.564   7.088  70.878  1.00  0.00    -0.167 C  
HETATM    4  C   UNL     1     -11.466   7.924  70.663  1.00  0.00    -0.238 C  
HETATM    5  C   UNL     1      -7.886   7.031  71.171  1.00  0.00    -0.099 C  
HETATM    6  O   UNL     1     -12.641   7.017  70.511  1.00  0.00    -0.618 OA 
HETATM    7  O   UNL     1      -7.541   9.339  64.053  1.00  0.00    -0.106 OA 
HETATM    8  C   UNL     1     -10.721   7.600  71.768  1.00  0.00    -0.252 C  
HETATM    9  C   UNL     1     -10.008   9.253  71.292  1.00  0.00    -0.341 C  
HETATM   10  C   UNL     1     -11.212   7.130  73.090  1.00  0.00    -0.228 C  
HETATM   11  C   UNL     1      -6.871   9.325  66.376  1.00  0.00    -0.083 C  
HETATM   12  C   UNL     1     -10.533   9.063  66.380  1.00  0.00    -0.110 C  
HETATM   13  H   UNL     1     -13.506   7.397  70.413  1.00  0.00     0.000 HD 
HETATM   14  C   UNL     1      -9.934   9.438  69.514  1.00  0.00    -0.191 C  
HETATM   15  C   UNL     1      -9.259   8.509  67.010  1.00  0.00    -0.187 C  
HETATM   16  C   UNL     1      -8.054   9.520  66.954  1.00  0.00    -0.109 C  
HETATM   17  O   UNL     1     -11.214   9.920  69.114  1.00  0.00    -0.365 OA 
HETATM   18  C   UNL     1      -9.493   8.135  68.519  1.00  0.00    -0.144 C  
HETATM   19  C   UNL     1     -10.366   6.702  68.730  1.00  0.00    -0.214 C  
HETATM   20  H   UNL     1     -11.175  10.019  68.170  1.00  0.00     0.000 HD 
HETATM   21  C   UNL     1      -9.790   5.559  67.815  1.00  0.00    -0.138 C  
HETATM   22  C   UNL     1      -9.689   6.004  66.354  1.00  0.00    -0.158 C  
HETATM   23 CL   UNL     1      -8.152   4.965  68.245  1.00  0.00    -0.086 Cl 
HETATM   24  C   UNL     1      -8.882   7.259  66.189  1.00  0.00    -0.181 C  
HETATM   25  C   UNL     1      -7.921   7.336  65.257  1.00  0.00    -0.127 C  
HETATM   26  C   UNL     1      -7.441   8.714  65.100  1.00  0.00    -0.090 C  
ENDROOT
BRANCH   4  27
HETATM   27  C   UNL     1     -12.518   9.089  71.472  1.00  0.00    -0.331 C  
HETATM   28  O   UNL     1     -12.167  10.239  71.789  1.00  0.00    -0.351 OA 
BRANCH  27  29
HETATM   29  C   UNL     1     -13.947   8.715  71.963  1.00  0.00    -0.446 C  
HETATM   30  O   UNL     1     -14.105   8.903  73.370  1.00  0.00    -1.256 OA 
HETATM   31  H   UNL     1     -14.977   8.674  73.670  1.00  0.00     0.000 HD 
ENDBRANCH  27  29
ENDBRANCH   4  27
TORSDOF 2
ENDMDL
MODEL       10
REMARK 921   NORMALIZED FREE ENERGY PREDICTED BY IDOCK:   -6.17 KCAL/MOL
REMARK 922        TOTAL FREE ENERGY PREDICTED BY IDOCK:   -6.24 KCAL/MOL
REMARK 923 INTER-LIGAND FREE ENERGY PREDICTED BY IDOCK:   -6.87 KCAL/MOL
REMARK 924 INTRA-LIGAND FREE ENERGY PREDICTED BY IDOCK:    0.63 KCAL/MOL
REMARK 927      BINDING AFFINITY PREDICTED BY RF-SCORE:    0.00 PKD
ROOT
HETATM    1  C   UNL     1      -8.362  11.576  67.555  1.00  0.00    -0.143 C  
HETATM    2  C   UNL     1      -8.254  10.991  66.292  1.00  0.00    -0.164 C  
HETATM    3  C   UNL     1      -9.605  10.931  66.917  1.00  0.00    -0.203 C  
HETATM    4  C   UNL     1      -9.937  12.394  68.370  1.00  0.00    -0.210 C  
HETATM    5  C   UNL     1      -9.982   9.724  65.773  1.00  0.00    -0.349 C  
HETATM    6  O   UNL     1      -8.789  13.234  68.824  1.00  0.00    -0.373 OA 
HETATM    7  O   UNL     1     -10.511   5.443  71.897  1.00  0.00    -0.212 OA 
HETATM    8  C   UNL     1     -10.058  12.408  67.003  1.00  0.00    -0.223 C  
HETATM    9  C   UNL     1     -11.659  11.613  67.527  1.00  0.00    -0.345 C  
HETATM   10  C   UNL     1      -9.829  13.550  66.081  1.00  0.00    -0.292 C  
HETATM   11  C   UNL     1     -11.206   6.229  69.719  1.00  0.00    -0.499 C  
HETATM   12  C   UNL     1     -10.174   9.216  71.587  1.00  0.00    -0.372 C  
HETATM   13  H   UNL     1      -8.940  13.899  69.485  1.00  0.00     0.000 HD 
HETATM   14  C   UNL     1     -11.418  10.539  68.937  1.00  0.00    -0.226 C  
HETATM   15  C   UNL     1     -10.076   8.514  70.235  1.00  0.00    -0.199 C  
HETATM   16  C   UNL     1     -11.277   7.535  69.962  1.00  0.00    -0.173 C  
HETATM   17  O   UNL     1     -11.503  11.375  70.088  1.00  0.00    -0.425 OA 
HETATM   18  C   UNL     1     -10.038   9.558  69.060  1.00  0.00    -0.201 C  
HETATM   19  C   UNL     1      -8.547  10.339  68.901  1.00  0.00    -0.150 C  
HETATM   20  H   UNL     1     -11.375  10.805  70.837  1.00  0.00     0.000 HD 
HETATM   21  C   UNL     1      -7.366   9.299  68.940  1.00  0.00    -0.074 C  
HETATM   22  C   UNL     1      -7.454   8.395  70.173  1.00  0.00    -0.063 C  
HETATM   23 CL   UNL     1      -7.261   8.183  67.538  1.00  0.00    -0.090 Cl 
HETATM   24  C   UNL     1      -8.775   7.688  70.275  1.00  0.00    -0.144 C  
HETATM   25  C   UNL     1      -8.827   6.369  70.515  1.00  0.00    -0.144 C  
HETATM   26  C   UNL     1     -10.195   5.939  70.825  1.00  0.00    -0.211 C  
ENDROOT
BRANCH   4  27
HETATM   27  C   UNL     1     -11.010  13.764  68.673  1.00  0.00    -0.266 C  
HETATM   28  O   UNL     1     -12.205  13.799  68.332  1.00  0.00    -0.340 OA 
BRANCH  27  29
HETATM   29  C   UNL     1     -10.498  15.097  69.294  1.00  0.00    -0.260 C  
HETATM   30  O   UNL     1     -10.502  15.067  70.722  1.00  0.00    -0.521 OA 
HETATM   31  H   UNL     1     -10.190  15.881  71.101  1.00  0.00     0.000 HD 
ENDBRANCH  27  29
ENDBRANCH   4  27
TORSDOF 2
ENDMDL
MODEL       11
REMARK 921   NORMALIZED FREE ENERGY PREDICTED BY IDOCK:   -6.10 KCAL/MOL
REMARK 922        TOTAL FREE ENERGY PREDICTED BY IDOCK:   -6.17 KCAL/MOL
REMARK 923 INTER-LIGAND FREE ENERGY PREDICTED BY IDOCK:   -6.85 KCAL/MOL
REMARK 924 INTRA-LIGAND FREE ENERGY PREDICTED BY IDOCK:    0.67 KCAL/MOL
REMARK 927      BINDING AFFINITY PREDICTED BY RF-SCORE:    0.00 PKD
ROOT
HETATM    1  C   UNL     1     -10.065   7.021  68.931  1.00  0.00    -0.174 C  
HETATM    2  C   UNL     1      -8.712   6.681  68.972  1.00  0.00    -0.129 C  
HETATM    3  C   UNL     1      -9.121   7.806  69.860  1.00  0.00    -0.147 C  
HETATM    4  C   UNL     1     -11.151   7.807  70.352  1.00  0.00    -0.251 C  
HETATM    5  C   UNL     1      -7.466   8.202  69.972  1.00  0.00    -0.065 C  
HETATM    6  O   UNL     1     -12.064   6.856  69.653  1.00  0.00    -0.551 OA 
HETATM    7  O   UNL     1      -9.701  14.424  66.452  1.00  0.00    -0.277 OA 
HETATM    8  C   UNL     1     -10.071   7.159  70.894  1.00  0.00    -0.200 C  
HETATM    9  C   UNL     1      -9.944   8.845  71.677  1.00  0.00    -0.397 C  
HETATM   10  C   UNL     1     -10.042   5.817  71.534  1.00  0.00    -0.246 C  
HETATM   11  C   UNL     1      -8.426  13.183  68.087  1.00  0.00    -0.173 C  
HETATM   12  C   UNL     1     -11.762  11.650  68.035  1.00  0.00    -0.351 C  
HETATM   13  H   UNL     1     -12.987   6.856  69.876  1.00  0.00     0.000 HD 
HETATM   14  C   UNL     1     -10.418  10.129  70.526  1.00  0.00    -0.105 C  
HETATM   15  C   UNL     1     -10.267  11.345  68.059  1.00  0.00    -0.201 C  
HETATM   16  C   UNL     1      -9.410  12.510  68.679  1.00  0.00     0.005 C  
HETATM   17  O   UNL     1     -11.836  10.237  70.618  1.00  0.00    -0.294 OA 
HETATM   18  C   UNL     1      -9.970  10.043  68.890  1.00  0.00    -0.198 C  
HETATM   19  C   UNL     1     -10.374   8.618  68.076  1.00  0.00    -0.277 C  
HETATM   20  H   UNL     1     -12.088  10.920  70.007  1.00  0.00     0.000 HD 
HETATM   21  C   UNL     1      -9.817   8.639  66.604  1.00  0.00    -0.266 C  
HETATM   22  C   UNL     1     -10.241   9.909  65.861  1.00  0.00    -0.264 C  
HETATM   23 CL   UNL     1      -8.031   8.569  66.444  1.00  0.00    -0.097 Cl 
HETATM   24  C   UNL     1      -9.843  11.161  66.587  1.00  0.00    -0.231 C  
HETATM   25  C   UNL     1      -9.230  12.162  65.938  1.00  0.00    -0.069 C  
HETATM   26  C   UNL     1      -9.164  13.371  66.765  1.00  0.00    -0.236 C  
ENDROOT
BRANCH   4  27
HETATM   27  C   UNL     1     -12.184   7.691  71.779  1.00  0.00    -0.311 C  
HETATM   28  O   UNL     1     -11.767   7.775  72.948  1.00  0.00    -0.315 OA 
BRANCH  27  29
HETATM   29  C   UNL     1     -13.700   7.352  71.680  1.00  0.00    -0.373 C  
HETATM   30  O   UNL     1     -14.405   8.258  70.830  1.00  0.00    -0.653 OA 
HETATM   31  H   UNL     1     -15.330   8.051  70.770  1.00  0.00     0.000 HD 
ENDBRANCH  27  29
ENDBRANCH   4  27
TORSDOF 2
ENDMDL
MODEL       12
REMARK 921   NORMALIZED FREE ENERGY PREDICTED BY IDOCK:   -6.04 KCAL/MOL
REMARK 922        TOTAL FREE ENERGY PREDICTED BY IDOCK:   -6.11 KCAL/MOL
REMARK 923 INTER-LIGAND FREE ENERGY PREDICTED BY IDOCK:   -6.74 KCAL/MOL
REMARK 924 INTRA-LIGAND FREE ENERGY PREDICTED BY IDOCK:    0.63 KCAL/MOL
REMARK 927      BINDING AFFINITY PREDICTED BY RF-SCORE:    0.00 PKD
ROOT
HETATM    1  C   UNL     1      -8.325  12.339  68.215  1.00  0.00    -0.174 C  
HETATM    2  C   UNL     1      -7.368  12.072  67.234  1.00  0.00    -0.151 C  
HETATM    3  C   UNL     1      -8.747  11.595  66.935  1.00  0.00    -0.185 C  
HETATM    4  C   UNL     1     -10.244  12.611  67.979  1.00  0.00    -0.230 C  
HETATM    5  C   UNL     1      -8.049  10.606  65.735  1.00  0.00    -0.158 C  
HETATM    6  O   UNL     1      -9.852  13.560  69.063  1.00  0.00    -0.423 OA 
HETATM    7  O   UNL     1     -10.580   5.111  70.151  1.00  0.00    -0.272 OA 
HETATM    8  C   UNL     1      -9.586  12.888  66.808  1.00  0.00    -0.246 C  
HETATM    9  C   UNL     1     -10.886  11.679  66.245  1.00  0.00    -0.333 C  
HETATM   10  C   UNL     1      -9.236  14.223  66.254  1.00  0.00    -0.181 C  
HETATM   11  C   UNL     1     -10.148   6.174  68.023  1.00  0.00    -0.178 C  
HETATM   12  C   UNL     1     -11.266   8.846  70.279  1.00  0.00    -0.219 C  
HETATM   13  H   UNL     1     -10.532  14.022  69.537  1.00  0.00     0.000 HD 
HETATM   14  C   UNL     1     -11.160  10.406  67.472  1.00  0.00    -0.267 C  
HETATM   15  C   UNL     1     -10.233   8.485  69.215  1.00  0.00    -0.211 C  
HETATM   16  C   UNL     1     -10.726   7.353  68.238  1.00  0.00    -0.151 C  
HETATM   17  O   UNL     1     -12.111  10.941  68.389  1.00  0.00    -0.776 OA 
HETATM   18  C   UNL     1      -9.863   9.738  68.340  1.00  0.00    -0.168 C  
HETATM   19  C   UNL     1      -8.846  10.834  69.131  1.00  0.00    -0.098 C  
HETATM   20  H   UNL     1     -12.257  10.265  69.041  1.00  0.00     0.000 HD 
HETATM   21  C   UNL     1      -7.641  10.085  69.811  1.00  0.00    -0.164 C  
HETATM   22  C   UNL     1      -8.123   8.942  70.708  1.00  0.00    -0.179 C  
HETATM   23 CL   UNL     1      -6.451   9.341  68.691  1.00  0.00    -0.052 Cl 
HETATM   24  C   UNL     1      -8.997   7.965  69.976  1.00  0.00    -0.145 C  
HETATM   25  C   UNL     1      -8.780   6.645  70.076  1.00  0.00    -0.141 C  
HETATM   26  C   UNL     1      -9.888   5.878  69.497  1.00  0.00    -0.169 C  
ENDROOT
BRANCH   4  27
HETATM   27  C   UNL     1     -11.653  13.625  67.654  1.00  0.00    -0.346 C  
HETATM   28  O   UNL     1     -12.421  13.459  66.690  1.00  0.00    -0.308 OA 
BRANCH  27  29
HETATM   29  C   UNL     1     -11.975  14.894  68.497  1.00  0.00    -0.241 C  
HETATM   30  O   UNL     1     -12.762  14.594  69.651  1.00  0.00    -0.569 OA 
HETATM   31  H   UNL     1     -12.959  15.368  70.165  1.00  0.00     0.000 HD 
ENDBRANCH  27  29
ENDBRANCH   4  27
TORSDOF 2
ENDMDL
MODEL       13
REMARK 921   NORMALIZED FREE ENERGY PREDICTED BY IDOCK:   -6.04 KCAL/MOL
REMARK 922        TOTAL FREE ENERGY PREDICTED BY IDOCK:   -6.10 KCAL/MOL
REMARK 923 INTER-LIGAND FREE ENERGY PREDICTED BY IDOCK:   -6.74 KCAL/MOL
REMARK 924 INTRA-LIGAND FREE ENERGY PREDICTED BY IDOCK:    0.64 KCAL/MOL
REMARK 927      BINDING AFFINITY PREDICTED BY RF-SCORE:    0.00 PKD
ROOT
HETATM    1  C   UNL     1     -11.167  11.544  68.008  1.00  0.00    -0.335 C  
HETATM    2  C   UNL     1     -11.652  11.407  66.706  1.00  0.00    -0.038 C  
HETATM    3  C   UNL     1     -10.185  11.638  66.826  1.00  0.00    -0.248 C  
HETATM    4  C   UNL     1      -9.388  11.100  68.680  1.00  0.00    -0.184 C  
HETATM    5  C   UNL     1     -10.204  12.043  65.170  1.00  0.00    -0.308 C  
HETATM    6  O   UNL     1     -10.318  10.735  69.788  1.00  0.00    -0.417 OA 
HETATM    7  O   UNL     1      -8.210  18.775  67.781  1.00  0.00    -0.257 OA 
HETATM    8  C   UNL     1      -9.651  10.377  67.545  1.00  0.00    -0.178 C  
HETATM    9  C   UNL     1      -8.010  11.157  67.134  1.00  0.00    -0.139 C  
HETATM   10  C   UNL     1     -10.069   8.954  67.450  1.00  0.00    -0.288 C  
HETATM   11  C   UNL     1      -8.110  16.918  66.236  1.00  0.00    -0.351 C  
HETATM   12  C   UNL     1      -8.426  15.433  69.579  1.00  0.00    -0.213 C  
HETATM   13  H   UNL     1      -9.956  10.491  70.631  1.00  0.00     0.000 HD 
HETATM   14  C   UNL     1      -7.904  12.819  67.785  1.00  0.00    -0.156 C  
HETATM   15  C   UNL     1      -8.933  15.350  68.142  1.00  0.00    -0.176 C  
HETATM   16  C   UNL     1      -7.907  15.921  67.093  1.00  0.00    -0.249 C  
HETATM   17  O   UNL     1      -7.458  12.688  69.133  1.00  0.00    -0.314 OA 
HETATM   18  C   UNL     1      -9.243  13.862  67.739  1.00  0.00    -0.197 C  
HETATM   19  C   UNL     1     -10.678  13.268  68.410  1.00  0.00    -0.273 C  
HETATM   20  H   UNL     1      -7.401  13.571  69.479  1.00  0.00     0.000 HD 
HETATM   21  C   UNL     1     -11.852  14.297  68.213  1.00  0.00    -0.335 C  
HETATM   22  C   UNL     1     -11.470  15.690  68.721  1.00  0.00    -0.382 C  
HETATM   23 CL   UNL     1     -12.402  14.541  66.522  1.00  0.00    -0.288 Cl 
HETATM   24  C   UNL     1     -10.212  16.209  68.087  1.00  0.00    -0.247 C  
HETATM   25  C   UNL     1     -10.162  17.451  67.583  1.00  0.00    -0.342 C  
HETATM   26  C   UNL     1      -8.787  17.835  67.251  1.00  0.00    -0.238 C  
ENDROOT
BRANCH   4  27
HETATM   27  C   UNL     1      -8.203   9.977  69.355  1.00  0.00    -0.155 C  
HETATM   28  O   UNL     1      -7.162   9.631  68.771  1.00  0.00    -0.070 OA 
BRANCH  27  29
HETATM   29  C   UNL     1      -8.439   9.234  70.703  1.00  0.00    -0.217 C  
HETATM   30  O   UNL     1      -9.078   7.969  70.520  1.00  0.00    -0.150 OA 
HETATM   31  H   UNL     1      -9.222   7.515  71.342  1.00  0.00     0.000 HD 
ENDBRANCH  27  29
ENDBRANCH   4  27
TORSDOF 2
ENDMDL
MODEL       14
REMARK 921   NORMALIZED FREE ENERGY PREDICTED BY IDOCK:   -6.04 KCAL/MOL
REMARK 922        TOTAL FREE ENERGY PREDICTED BY IDOCK:   -6.10 KCAL/MOL
REMARK 923 INTER-LIGAND FREE ENERGY PREDICTED BY IDOCK:   -7.46 KCAL/MOL
REMARK 924 INTRA-LIGAND FREE ENERGY PREDICTED BY IDOCK:    1.36 KCAL/MOL
REMARK 927      BINDING AFFINITY PREDICTED BY RF-SCORE:    0.00 PKD
ROOT
HETATM    1  C   UNL     1     -11.553  11.976  67.429  1.00  0.00    -0.388 C  
HETATM    2  C   UNL     1     -10.999  12.252  68.681  1.00  0.00    -0.276 C  
HETATM    3  C   UNL     1     -10.210  12.723  67.508  1.00  0.00    -0.216 C  
HETATM    4  C   UNL     1     -11.339  12.985  65.771  1.00  0.00    -0.301 C  
HETATM    5  C   UNL     1      -8.889  12.881  68.575  1.00  0.00    -0.044 C  
HETATM    6  O   UNL     1     -12.753  12.508  65.750  1.00  0.00    -0.455 OA 
HETATM    7  O   UNL     1      -5.998   7.481  64.263  1.00  0.00    -0.037 OA 
HETATM    8  C   UNL     1     -11.101  13.801  66.848  1.00  0.00    -0.311 C  
HETATM    9  C   UNL     1      -9.571  14.062  65.818  1.00  0.00    -0.138 C  
HETATM   10  C   UNL     1     -12.017  14.806  67.448  1.00  0.00    -0.236 C  
HETATM   11  C   UNL     1      -5.912   9.530  65.543  1.00  0.00    -0.064 C  
HETATM   12  C   UNL     1      -9.118   9.593  63.755  1.00  0.00    -0.220 C  
HETATM   13  H   UNL     1     -13.267  12.627  64.961  1.00  0.00     0.000 HD 
HETATM   14  C   UNL     1      -9.057  12.543  65.026  1.00  0.00     0.782 C  
HETATM   15  C   UNL     1      -8.455   9.856  65.104  1.00  0.00    -0.158 C  
HETATM   16  C   UNL     1      -6.922  10.190  64.983  1.00  0.00    -0.135 C  
HETATM   17  O   UNL     1      -9.807  12.456  63.817  1.00  0.00    -0.587 OA 
HETATM   18  C   UNL     1      -9.145  11.059  65.846  1.00  0.00    -0.214 C  
HETATM   19  C   UNL     1     -10.644  10.663  66.521  1.00  0.00    -0.257 C  
HETATM   20  H   UNL     1      -9.534  11.649  63.396  1.00  0.00     0.000 HD 
HETATM   21  C   UNL     1     -10.554   9.314  67.327  1.00  0.00    -0.233 C  
HETATM   22  C   UNL     1      -9.950   8.192  66.478  1.00  0.00    -0.302 C  
HETATM   23 CL   UNL     1      -9.566   9.363  68.824  1.00  0.00    -0.152 Cl 
HETATM   24  C   UNL     1      -8.605   8.554  65.917  1.00  0.00    -0.183 C  
HETATM   25  C   UNL     1      -7.572   7.705  66.017  1.00  0.00    -0.088 C  
HETATM   26  C   UNL     1      -6.442   8.143  65.191  1.00  0.00    -0.052 C  
ENDROOT
BRANCH   4  27
HETATM   27  C   UNL     1     -11.797  14.272  64.651  1.00  0.00    -0.448 C  
HETATM   28  O   UNL     1     -12.527  14.103  63.659  1.00  0.00    -0.819 OA 
BRANCH  27  29
HETATM   29  C   UNL     1     -11.213  15.711  64.758  1.00  0.00    -0.382 C  
HETATM   30  O   UNL     1     -11.737  16.585  63.757  1.00  0.00    -1.548 OA 
HETATM   31  H   UNL     1     -11.381  17.464  63.822  1.00  0.00     0.000 HD 
ENDBRANCH  27  29
ENDBRANCH   4  27
TORSDOF 2
ENDMDL
MODEL       15
REMARK 921   NORMALIZED FREE ENERGY PREDICTED BY IDOCK:   -5.85 KCAL/MOL
REMARK 922        TOTAL FREE ENERGY PREDICTED BY IDOCK:   -5.89 KCAL/MOL
REMARK 923 INTER-LIGAND FREE ENERGY PREDICTED BY IDOCK:   -6.78 KCAL/MOL
REMARK 924 INTRA-LIGAND FREE ENERGY PREDICTED BY IDOCK:    0.89 KCAL/MOL
REMARK 927      BINDING AFFINITY PREDICTED BY RF-SCORE:    0.00 PKD
ROOT
HETATM    1  C   UNL     1      -8.052  13.741  67.117  1.00  0.00    -0.094 C  
HETATM    2  C   UNL     1      -7.333  13.615  68.307  1.00  0.00    -0.119 C  
HETATM    3  C   UNL     1      -8.755  14.036  68.454  1.00  0.00    -0.179 C  
HETATM    4  C   UNL     1      -9.971  13.505  66.842  1.00  0.00    -0.256 C  
HETATM    5  C   UNL     1      -8.351  14.529  70.036  1.00  0.00     0.834 C  
HETATM    6  O   UNL     1      -9.336  12.954  65.609  1.00  0.00    -0.462 OA 
HETATM    7  O   UNL     1     -10.002  21.307  67.307  1.00  0.00    -0.076 OA 
HETATM    8  C   UNL     1      -9.572  12.819  67.961  1.00  0.00    -0.217 C  
HETATM    9  C   UNL     1     -10.989  13.837  68.615  1.00  0.00    -0.287 C  
HETATM   10  C   UNL     1      -9.319  11.360  68.092  1.00  0.00    -0.181 C  
HETATM   11  C   UNL     1     -10.010  19.573  68.992  1.00  0.00    -0.490 C  
HETATM   12  C   UNL     1     -10.562  17.869  65.787  1.00  0.00    -0.175 C  
HETATM   13  H   UNL     1      -9.889  12.713  64.876  1.00  0.00     0.000 HD 
HETATM   14  C   UNL     1     -11.023  15.458  67.860  1.00  0.00    -0.310 C  
HETATM   15  C   UNL     1      -9.788  17.801  67.101  1.00  0.00    -0.311 C  
HETATM   16  C   UNL     1     -10.503  18.565  68.277  1.00  0.00    -0.326 C  
HETATM   17  O   UNL     1     -11.745  15.310  66.640  1.00  0.00    -0.140 OA 
HETATM   18  C   UNL     1      -9.585  16.310  67.558  1.00  0.00    -0.230 C  
HETATM   19  C   UNL     1      -8.400  15.490  66.675  1.00  0.00    -0.286 C  
HETATM   20  H   UNL     1     -11.763  16.172  66.239  1.00  0.00     0.000 HD 
HETATM   21  C   UNL     1      -7.094  16.360  66.554  1.00  0.00    -0.032 C  
HETATM   22  C   UNL     1      -7.399  17.760  66.015  1.00  0.00    -0.307 C  
HETATM   23 CL   UNL     1      -6.187  16.625  68.080  1.00  0.00    -0.130 Cl 
HETATM   24  C   UNL     1      -8.430  18.481  66.834  1.00  0.00    -0.277 C  
HETATM   25  C   UNL     1      -8.225  19.745  67.233  1.00  0.00    -0.341 C  
HETATM   26  C   UNL     1      -9.448  20.331  67.793  1.00  0.00    -0.322 C  
ENDROOT
BRANCH   4  27
HETATM   27  C   UNL     1     -11.395  12.515  66.505  1.00  0.00    -0.334 C  
HETATM   28  O   UNL     1     -11.967  11.809  67.354  1.00  0.00    -0.617 OA 
BRANCH  27  29
HETATM   29  C   UNL     1     -11.976  12.360  65.070  1.00  0.00    -0.402 C  
HETATM   30  O   UNL     1     -13.032  13.287  64.809  1.00  0.00    -0.710 OA 
HETATM   31  H   UNL     1     -13.387  13.192  63.933  1.00  0.00     0.000 HD 
ENDBRANCH  27  29
ENDBRANCH   4  27
TORSDOF 2
ENDMDL
MODEL       16
REMARK 921   NORMALIZED FREE ENERGY PREDICTED BY IDOCK:   -5.75 KCAL/MOL
REMARK 922        TOTAL FREE ENERGY PREDICTED BY IDOCK:   -5.78 KCAL/MOL
REMARK 923 INTER-LIGAND FREE ENERGY PREDICTED BY IDOCK:   -6.39 KCAL/MOL
REMARK 924 INTRA-LIGAND FREE ENERGY PREDICTED BY IDOCK:    0.62 KCAL/MOL
REMARK 927      BINDING AFFINITY PREDICTED BY RF-SCORE:    0.00 PKD
ROOT
HETATM    1  C   UNL     1      -8.234   9.464  70.554  1.00  0.00    -0.221 C  
HETATM    2  C   UNL     1      -6.882   9.115  70.560  1.00  0.00    -0.074 C  
HETATM    3  C   UNL     1      -7.770   8.243  69.742  1.00  0.00    -0.098 C  
HETATM    4  C   UNL     1      -9.548   9.160  69.143  1.00  0.00    -0.161 C  
HETATM    5  C   UNL     1      -6.504   7.100  69.749  1.00  0.00    -0.039 C  
HETATM    6  O   UNL     1      -9.902  10.492  69.716  1.00  0.00    -0.408 OA 
HETATM    7  O   UNL     1     -11.479   3.045  73.611  1.00  0.00    -0.217 OA 
HETATM    8  C   UNL     1      -8.283   9.164  68.610  1.00  0.00    -0.114 C  
HETATM    9  C   UNL     1      -8.969   7.555  67.968  1.00  0.00    -0.129 C  
HETATM   10  C   UNL     1      -7.610  10.264  67.872  1.00  0.00    -0.089 C  
HETATM   11  C   UNL     1      -9.748   3.373  71.956  1.00  0.00    -0.234 C  
HETATM   12  C   UNL     1     -11.946   6.303  71.711  1.00  0.00    -0.313 C  
HETATM   13  H   UNL     1     -10.711  10.909  69.444  1.00  0.00     0.000 HD 
HETATM   14  C   UNL     1     -10.012   6.764  69.187  1.00  0.00    -0.159 C  
HETATM   15  C   UNL     1     -10.487   5.858  71.744  1.00  0.00    -0.276 C  
HETATM   16  C   UNL     1     -10.284   4.374  71.263  1.00  0.00    -0.137 C  
HETATM   17  O   UNL     1     -11.309   7.335  69.027  1.00  0.00    -0.450 OA 
HETATM   18  C   UNL     1      -9.595   6.779  70.833  1.00  0.00    -0.173 C  
HETATM   19  C   UNL     1      -9.277   8.294  71.512  1.00  0.00    -0.231 C  
HETATM   20  H   UNL     1     -11.863   6.914  69.674  1.00  0.00     0.000 HD 
HETATM   21  C   UNL     1      -8.814   8.147  73.009  1.00  0.00    -0.248 C  
HETATM   22  C   UNL     1      -9.801   7.307  73.823  1.00  0.00    -0.358 C  
HETATM   23 CL   UNL     1      -7.213   7.375  73.259  1.00  0.00    -0.079 Cl 
HETATM   24  C   UNL     1     -10.043   5.955  73.218  1.00  0.00    -0.202 C  
HETATM   25  C   UNL     1      -9.990   4.848  73.975  1.00  0.00    -0.201 C  
HETATM   26  C   UNL     1     -10.501   3.682  73.247  1.00  0.00    -0.177 C  
ENDROOT
BRANCH   4  27
HETATM   27  C   UNL     1     -10.385   9.620  67.656  1.00  0.00    -0.237 C  
HETATM   28  O   UNL     1     -10.278   9.006  66.580  1.00  0.00    -0.269 OA 
BRANCH  27  29
HETATM   29  C   UNL     1     -11.238  10.917  67.553  1.00  0.00    -0.293 C  
HETATM   30  O   UNL     1     -12.342  10.915  68.460  1.00  0.00    -0.807 OA 
HETATM   31  H   UNL     1     -12.863  11.707  68.396  1.00  0.00     0.000 HD 
ENDBRANCH  27  29
ENDBRANCH   4  27
TORSDOF 2
ENDMDL
MODEL       17
REMARK 921   NORMALIZED FREE ENERGY PREDICTED BY IDOCK:   -5.73 KCAL/MOL
REMARK 922        TOTAL FREE ENERGY PREDICTED BY IDOCK:   -5.76 KCAL/MOL
REMARK 923 INTER-LIGAND FREE ENERGY PREDICTED BY IDOCK:   -6.39 KCAL/MOL
REMARK 924 INTRA-LIGAND FREE ENERGY PREDICTED BY IDOCK:    0.63 KCAL/MOL
REMARK 927      BINDING AFFINITY PREDICTED BY RF-SCORE:    0.00 PKD
ROOT
HETATM    1  C   UNL     1     -10.244  15.831  66.881  1.00  0.00    -0.280 C  
HETATM    2  C   UNL     1     -11.254  15.975  67.835  1.00  0.00    -0.276 C  
HETATM    3  C   UNL     1      -9.919  15.576  68.364  1.00  0.00    -0.214 C  
HETATM    4  C   UNL     1      -8.323  16.086  67.117  1.00  0.00    -0.199 C  
HETATM    5  C   UNL     1     -10.723  15.113  69.794  1.00  0.00    -0.288 C  
HETATM    6  O   UNL     1      -8.612  16.601  65.747  1.00  0.00    -0.464 OA 
HETATM    7  O   UNL     1      -8.364   8.298  67.771  1.00  0.00    -0.125 OA 
HETATM    8  C   UNL     1      -9.008  16.792  68.073  1.00  0.00    -0.217 C  
HETATM    9  C   UNL     1      -7.808  15.808  69.104  1.00  0.00    -0.227 C  
HETATM   10  C   UNL     1      -9.296  18.250  68.096  1.00  0.00    -0.307 C  
HETATM   11  C   UNL     1      -8.813  10.069  69.354  1.00  0.00    -0.200 C  
HETATM   12  C   UNL     1      -7.444  11.707  66.367  1.00  0.00     0.112 C  
HETATM   13  H   UNL     1      -7.887  16.833  65.180  1.00  0.00     0.000 HD 
HETATM   14  C   UNL     1      -7.565  14.171  68.427  1.00  0.00    -0.130 C  
HETATM   15  C   UNL     1      -8.538  11.795  67.427  1.00  0.00    -0.160 C  
HETATM   16  C   UNL     1      -8.156  11.067  68.769  1.00  0.00    -0.145 C  
HETATM   17  O   UNL     1      -6.547  14.300  67.437  1.00  0.00    -0.284 OA 
HETATM   18  C   UNL     1      -8.865  13.293  67.777  1.00  0.00    -0.197 C  
HETATM   19  C   UNL     1      -9.780  14.078  66.591  1.00  0.00    -0.296 C  
HETATM   20  H   UNL     1      -6.417  13.430  67.077  1.00  0.00     0.000 HD 
HETATM   21  C   UNL     1     -11.002  13.188  66.151  1.00  0.00    -0.283 C  
HETATM   22  C   UNL     1     -10.556  11.780  65.747  1.00  0.00    -0.312 C  
HETATM   23 CL   UNL     1     -12.278  12.946  67.389  1.00  0.00    -0.239 Cl 
HETATM   24  C   UNL     1      -9.774  11.092  66.828  1.00  0.00    -0.222 C  
HETATM   25  C   UNL     1     -10.068   9.834  67.190  1.00  0.00    -0.267 C  
HETATM   26  C   UNL     1      -9.033   9.278  68.068  1.00  0.00    -0.128 C  
ENDROOT
BRANCH   4  27
HETATM   27  C   UNL     1      -6.867  17.087  67.144  1.00  0.00    -0.179 C  
HETATM   28  O   UNL     1      -6.210  17.331  68.171  1.00  0.00    -0.142 OA 
BRANCH  27  29
HETATM   29  C   UNL     1      -6.358  17.845  65.883  1.00  0.00    -0.252 C  
HETATM   30  O   UNL     1      -7.163  18.983  65.573  1.00  0.00    -0.466 OA 
HETATM   31  H   UNL     1      -6.853  19.446  64.803  1.00  0.00     0.000 HD 
ENDBRANCH  27  29
ENDBRANCH   4  27
TORSDOF 2
ENDMDL
MODEL       18
REMARK 921   NORMALIZED FREE ENERGY PREDICTED BY IDOCK:   -5.73 KCAL/MOL
REMARK 922        TOTAL FREE ENERGY PREDICTED BY IDOCK:   -5.76 KCAL/MOL
REMARK 923 INTER-LIGAND FREE ENERGY PREDICTED BY IDOCK:   -6.36 KCAL/MOL
REMARK 924 INTRA-LIGAND FREE ENERGY PREDICTED BY IDOCK:    0.61 KCAL/MOL
REMARK 927      BINDING AFFINITY PREDICTED BY RF-SCORE:    0.00 PKD
ROOT
HETATM    1  C   UNL     1      -9.940  14.554  65.214  1.00  0.00    -0.322 C  
HETATM    2  C   UNL     1     -11.202  14.478  64.623  1.00  0.00    -0.359 C  
HETATM    3  C   UNL     1     -11.191  14.570  66.111  1.00  0.00    -0.339 C  
HETATM    4  C   UNL     1      -9.450  15.414  66.897  1.00  0.00    -0.230 C  
HETATM    5  C   UNL     1     -12.809  14.034  66.067  1.00  0.00    -0.258 C  
HETATM    6  O   UNL     1      -8.294  15.667  65.987  1.00  0.00    -0.299 OA 
HETATM    7  O   UNL     1      -9.932   8.109  69.634  1.00  0.00    -0.185 OA 
HETATM    8  C   UNL     1     -10.605  15.970  66.408  1.00  0.00    -0.284 C  
HETATM    9  C   UNL     1     -11.098  15.520  68.147  1.00  0.00    -0.325 C  
HETATM   10  C   UNL     1     -10.759  17.261  65.688  1.00  0.00    -0.123 C  
HETATM   11  C   UNL     1     -11.600   9.811  69.228  1.00  0.00     0.113 C  
HETATM   12  C   UNL     1      -8.348  11.468  68.827  1.00  0.00    -0.069 C  
HETATM   13  H   UNL     1      -7.503  16.051  66.345  1.00  0.00     0.000 HD 
HETATM   14  C   UNL     1     -10.350  13.976  68.652  1.00  0.00    -0.238 C  
HETATM   15  C   UNL     1      -9.741  11.325  68.218  1.00  0.00    -0.199 C  
HETATM   16  C   UNL     1     -10.831  10.896  69.269  1.00  0.00    -0.286 C  
HETATM   17  O   UNL     1      -9.055  14.309  69.149  1.00  0.00    -0.382 OA 
HETATM   18  C   UNL     1     -10.214  12.676  67.568  1.00  0.00    -0.215 C  
HETATM   19  C   UNL     1      -9.467  13.010  66.089  1.00  0.00    -0.159 C  
HETATM   20  H   UNL     1      -8.658  13.489  69.418  1.00  0.00     0.000 HD 
HETATM   21  C   UNL     1      -9.496  11.745  65.152  1.00  0.00    -0.092 C  
HETATM   22  C   UNL     1      -8.930  10.509  65.858  1.00  0.00    -0.185 C  
HETATM   23 CL   UNL     1     -11.115  11.252  64.555  1.00  0.00    -0.308 Cl 
HETATM   24  C   UNL     1      -9.630  10.215  67.153  1.00  0.00    -0.202 C  
HETATM   25  C   UNL     1     -10.053   8.974  67.435  1.00  0.00    -0.291 C  
HETATM   26  C   UNL     1     -10.474   8.860  68.835  1.00  0.00    -0.205 C  
ENDROOT
BRANCH   4  27
HETATM   27  C   UNL     1      -8.953  16.813  67.855  1.00  0.00    -0.219 C  
HETATM   28  O   UNL     1      -9.678  17.374  68.694  1.00  0.00    -0.284 OA 
BRANCH  27  29
HETATM   29  C   UNL     1      -7.589  17.530  67.630  1.00  0.00    -0.195 C  
HETATM   30  O   UNL     1      -7.638  18.462  66.548  1.00  0.00    -0.219 OA 
HETATM   31  H   UNL     1      -6.806  18.899  66.410  1.00  0.00     0.000 HD 
ENDBRANCH  27  29
ENDBRANCH   4  27
TORSDOF 2
ENDMDL
MODEL       19
REMARK 921   NORMALIZED FREE ENERGY PREDICTED BY IDOCK:   -5.66 KCAL/MOL
REMARK 922        TOTAL FREE ENERGY PREDICTED BY IDOCK:   -5.68 KCAL/MOL
REMARK 923 INTER-LIGAND FREE ENERGY PREDICTED BY IDOCK:   -6.35 KCAL/MOL
REMARK 924 INTRA-LIGAND FREE ENERGY PREDICTED BY IDOCK:    0.67 KCAL/MOL
REMARK 927      BINDING AFFINITY PREDICTED BY RF-SCORE:    0.00 PKD
ROOT
HETATM    1  C   UNL     1      -9.694  13.112  65.043  1.00  0.00     0.062 C  
HETATM    2  C   UNL     1     -10.591  12.943  63.986  1.00  0.00    -0.418 C  
HETATM    3  C   UNL     1     -11.107  12.574  65.335  1.00  0.00    -0.337 C  
HETATM    4  C   UNL     1     -10.100  13.499  66.913  1.00  0.00    -0.256 C  
HETATM    5  C   UNL     1     -12.352  11.734  64.529  1.00  0.00    -0.038 C  
HETATM    6  O   UNL     1      -8.854  14.268  66.624  1.00  0.00    -0.383 OA 
HETATM    7  O   UNL     1      -9.086   5.790  67.708  1.00  0.00    -0.109 OA 
HETATM    8  C   UNL     1     -11.138  13.908  66.116  1.00  0.00    -0.299 C  
HETATM    9  C   UNL     1     -12.011  12.848  67.375  1.00  0.00    -0.360 C  
HETATM   10  C   UNL     1     -11.451  15.291  65.667  1.00  0.00    -0.123 C  
HETATM   11  C   UNL     1     -10.976   7.122  67.003  1.00  0.00    -0.304 C  
HETATM   12  C   UNL     1      -8.496   9.498  68.301  1.00  0.00    -0.119 C  
HETATM   13  H   UNL     1      -8.396  14.689  67.342  1.00  0.00     0.000 HD 
HETATM   14  C   UNL     1     -11.019  11.430  67.825  1.00  0.00    -0.247 C  
HETATM   15  C   UNL     1      -9.480   9.244  67.162  1.00  0.00    -0.191 C  
HETATM   16  C   UNL     1     -10.658   8.283  67.568  1.00  0.00    -0.291 C  
HETATM   17  O   UNL     1     -10.146  11.872  68.862  1.00  0.00    -0.370 OA 
HETATM   18  C   UNL     1     -10.117  10.590  66.657  1.00  0.00    -0.275 C  
HETATM   19  C   UNL     1      -9.069  11.518  65.709  1.00  0.00    -0.164 C  
HETATM   20  H   UNL     1      -9.619  11.119  69.101  1.00  0.00     0.000 HD 
HETATM   21  C   UNL     1      -8.375  10.628  64.613  1.00  0.00    -0.056 C  
HETATM   22  C   UNL     1      -7.711   9.393  65.228  1.00  0.00    -0.108 C  
HETATM   23 CL   UNL     1      -9.450   9.997  63.322  1.00  0.00    -0.307 Cl 
HETATM   24  C   UNL     1      -8.669   8.568  66.037  1.00  0.00    -0.188 C  
HETATM   25  C   UNL     1      -8.737   7.239  65.870  1.00  0.00    -0.150 C  
HETATM   26  C   UNL     1      -9.540   6.611  66.924  1.00  0.00    -0.157 C  
ENDROOT
BRANCH   4  27
HETATM   27  C   UNL     1     -10.430  14.610  68.247  1.00  0.00    -0.236 C  
HETATM   28  O   UNL     1     -11.557  14.789  68.739  1.00  0.00    -0.290 OA 
BRANCH  27  29
HETATM   29  C   UNL     1      -9.336  15.548  68.835  1.00  0.00    -0.222 C  
HETATM   30  O   UNL     1      -8.384  14.841  69.631  1.00  0.00    -0.417 OA 
HETATM   31  H   UNL     1      -7.717  15.414  69.990  1.00  0.00     0.000 HD 
ENDBRANCH  27  29
ENDBRANCH   4  27
TORSDOF 2
ENDMDL
MODEL       20
REMARK 921   NORMALIZED FREE ENERGY PREDICTED BY IDOCK:   -5.65 KCAL/MOL
REMARK 922        TOTAL FREE ENERGY PREDICTED BY IDOCK:   -5.67 KCAL/MOL
REMARK 923 INTER-LIGAND FREE ENERGY PREDICTED BY IDOCK:   -6.44 KCAL/MOL
REMARK 924 INTRA-LIGAND FREE ENERGY PREDICTED BY IDOCK:    0.77 KCAL/MOL
REMARK 927      BINDING AFFINITY PREDICTED BY RF-SCORE:    0.00 PKD
ROOT
HETATM    1  C   UNL     1     -10.845  11.851  67.896  1.00  0.00    -0.254 C  
HETATM    2  C   UNL     1      -9.916  12.492  68.717  1.00  0.00    -0.028 C  
HETATM    3  C   UNL     1      -9.349  11.776  67.540  1.00  0.00    -0.174 C  
HETATM    4  C   UNL     1     -10.710  11.491  65.981  1.00  0.00    -0.281 C  
HETATM    5  C   UNL     1      -7.837  11.874  68.321  1.00  0.00    -0.141 C  
HETATM    6  O   UNL     1     -12.149  11.815  66.210  1.00  0.00    -0.446 OA 
HETATM    7  O   UNL     1      -8.509   4.415  68.466  1.00  0.00    -0.091 OA 
HETATM    8  C   UNL     1      -9.899  12.545  66.316  1.00  0.00    -0.260 C  
HETATM    9  C   UNL     1      -8.721  11.422  65.410  1.00  0.00     0.085 C  
HETATM   10  C   UNL     1     -10.162  13.995  66.118  1.00  0.00    -0.308 C  
HETATM   11  C   UNL     1      -7.303   6.490  68.180  1.00  0.00    -0.090 C  
HETATM   12  C   UNL     1     -10.589   7.010  66.627  1.00  0.00    -0.184 C  
HETATM   13  H   UNL     1     -12.768  11.686  65.502  1.00  0.00     0.000 HD 
HETATM   14  C   UNL     1      -9.062   9.703  65.767  1.00  0.00    -0.185 C  
HETATM   15  C   UNL     1      -9.542   7.647  67.537  1.00  0.00    -0.178 C  
HETATM   16  C   UNL     1      -8.091   7.090  67.291  1.00  0.00    -0.115 C  
HETATM   17  O   UNL     1     -10.081   9.306  64.853  1.00  0.00    -0.176 OA 
HETATM   18  C   UNL     1      -9.492   9.206  67.333  1.00  0.00    -0.177 C  
HETATM   19  C   UNL     1     -10.789  10.021  68.048  1.00  0.00    -0.311 C  
HETATM   20  H   UNL     1     -10.262   8.392  65.042  1.00  0.00     0.000 HD 
HETATM   21  C   UNL     1     -11.013   9.524  69.525  1.00  0.00    -0.195 C  
HETATM   22  C   UNL     1     -11.136   8.000  69.592  1.00  0.00    -0.021 C  
HETATM   23 CL   UNL     1      -9.721   9.949  70.696  1.00  0.00    -0.124 Cl 
HETATM   24  C   UNL     1      -9.959   7.299  68.980  1.00  0.00    -0.177 C  
HETATM   25  C   UNL     1      -9.345   6.298  69.630  1.00  0.00    -0.150 C  
HETATM   26  C   UNL     1      -8.398   5.598  68.755  1.00  0.00    -0.103 C  
ENDROOT
BRANCH   4  27
HETATM   27  C   UNL     1     -10.918  11.938  64.285  1.00  0.00    -0.353 C  
HETATM   28  O   UNL     1      -9.979  12.073  63.482  1.00  0.00    -0.399 OA 
BRANCH  27  29
HETATM   29  C   UNL     1     -12.307  12.316  63.692  1.00  0.00    -0.562 C  
HETATM   30  O   UNL     1     -12.320  13.633  63.139  1.00  0.00    -1.045 OA 
HETATM   31  H   UNL     1     -13.168  13.864  62.777  1.00  0.00     0.000 HD 
ENDBRANCH  27  29
ENDBRANCH   4  27
TORSDOF 2
ENDMDL
MODEL       21
REMARK 921   NORMALIZED FREE ENERGY PREDICTED BY IDOCK:   -5.62 KCAL/MOL
REMARK 922        TOTAL FREE ENERGY PREDICTED BY IDOCK:   -5.63 KCAL/MOL
REMARK 923 INTER-LIGAND FREE ENERGY PREDICTED BY IDOCK:   -6.29 KCAL/MOL
REMARK 924 INTRA-LIGAND FREE ENERGY PREDICTED BY IDOCK:    0.66 KCAL/MOL
REMARK 927      BINDING AFFINITY PREDICTED BY RF-SCORE:    0.00 PKD
ROOT
HETATM    1  C   UNL     1     -11.580  13.700  68.051  1.00  0.00    -0.368 C  
HETATM    2  C   UNL     1     -10.962  13.953  69.277  1.00  0.00    -0.222 C  
HETATM    3  C   UNL     1     -10.086  14.066  68.077  1.00  0.00    -0.239 C  
HETATM    4  C   UNL     1     -11.120  14.429  66.299  1.00  0.00    -0.331 C  
HETATM    5  C   UNL     1      -8.761  13.980  69.146  1.00  0.00     0.288 C  
HETATM    6  O   UNL     1     -12.610  14.348  66.301  1.00  0.00    -0.457 OA 
HETATM    7  O   UNL     1      -7.463   7.568  65.498  1.00  0.00    -0.077 OA 
HETATM    8  C   UNL     1     -10.662  15.264  67.287  1.00  0.00    -0.311 C  
HETATM    9  C   UNL     1      -9.128  14.993  66.266  1.00  0.00    -0.288 C  
HETATM   10  C   UNL     1     -11.270  16.536  67.757  1.00  0.00    -0.097 C  
HETATM   11  C   UNL     1      -6.819   9.646  66.553  1.00  0.00    -0.084 C  
HETATM   12  C   UNL     1      -9.907  10.368  64.704  1.00  0.00    -0.405 C  
HETATM   13  H   UNL     1     -13.081  14.513  65.493  1.00  0.00     0.000 HD 
HETATM   14  C   UNL     1      -9.047  13.315  65.652  1.00  0.00     0.613 C  
HETATM   15  C   UNL     1      -9.186  10.590  66.030  1.00  0.00    -0.205 C  
HETATM   16  C   UNL     1      -7.620  10.487  65.904  1.00  0.00    -0.148 C  
HETATM   17  O   UNL     1      -9.804  13.300  64.444  1.00  0.00    -0.625 OA 
HETATM   18  C   UNL     1      -9.522  12.007  66.625  1.00  0.00    -0.222 C  
HETATM   19  C   UNL     1     -11.065  12.102  67.308  1.00  0.00    -0.341 C  
HETATM   20  H   UNL     1      -9.761  12.409  64.118  1.00  0.00     0.000 HD 
HETATM   21  C   UNL     1     -11.332  10.874  68.255  1.00  0.00    -0.308 C  
HETATM   22  C   UNL     1     -11.059   9.545  67.545  1.00  0.00     0.021 C  
HETATM   23 CL   UNL     1     -10.353  10.820  69.758  1.00  0.00    -0.157 Cl 
HETATM   24  C   UNL     1      -9.672   9.472  66.975  1.00  0.00    -0.229 C  
HETATM   25  C   UNL     1      -8.902   8.393  67.186  1.00  0.00    -0.139 C  
HETATM   26  C   UNL     1      -7.704   8.421  66.340  1.00  0.00    -0.094 C  
ENDROOT
BRANCH   4  27
HETATM   27  C   UNL     1     -11.227  15.661  65.038  1.00  0.00    -0.329 C  
HETATM   28  O   UNL     1     -10.568  16.716  65.039  1.00  0.00    -0.683 OA 
BRANCH  27  29
HETATM   29  C   UNL     1     -12.258  15.571  63.875  1.00  0.00     0.262 C  
HETATM   30  O   UNL     1     -12.303  14.269  63.290  1.00  0.00    -1.118 OA 
HETATM   31  H   UNL     1     -12.932  14.213  62.580  1.00  0.00     0.000 HD 
ENDBRANCH  27  29
ENDBRANCH   4  27
TORSDOF 2
ENDMDL
MODEL       22
REMARK 921   NORMALIZED FREE ENERGY PREDICTED BY IDOCK:   -5.62 KCAL/MOL
REMARK 922        TOTAL FREE ENERGY PREDICTED BY IDOCK:   -5.63 KCAL/MOL
REMARK 923 INTER-LIGAND FREE ENERGY PREDICTED BY IDOCK:   -6.46 KCAL/MOL
REMARK 924 INTRA-LIGAND FREE ENERGY PREDICTED BY IDOCK:    0.83 KCAL/MOL
REMARK 927      BINDING AFFINITY PREDICTED BY RF-SCORE:    0.00 PKD
ROOT
HETATM    1  C   UNL     1     -11.506  14.273  67.790  1.00  0.00    -0.354 C  
HETATM    2  C   UNL     1     -11.967  14.565  66.506  1.00  0.00    -0.358 C  
HETATM    3  C   UNL     1     -10.596  13.986  66.582  1.00  0.00    -0.274 C  
HETATM    4  C   UNL     1     -10.229  12.895  68.324  1.00  0.00    -0.245 C  
HETATM    5  C   UNL     1     -10.371  14.539  64.985  1.00  0.00    -0.442 C  
HETATM    6  O   UNL     1     -11.234  12.934  69.427  1.00  0.00    -0.380 OA 
HETATM    7  O   UNL     1      -5.218  18.892  68.239  1.00  0.00    -0.178 OA 
HETATM    8  C   UNL     1     -10.809  12.555  67.128  1.00  0.00    -0.282 C  
HETATM    9  C   UNL     1      -8.994  12.415  66.732  1.00  0.00    -0.205 C  
HETATM   10  C   UNL     1     -11.904  11.578  66.893  1.00  0.00     0.124 C  
HETATM   11  C   UNL     1      -6.069  17.454  66.492  1.00  0.00    -0.250 C  
HETATM   12  C   UNL     1      -7.172  15.958  69.658  1.00  0.00    -0.104 C  
HETATM   13  H   UNL     1     -11.067  12.438  70.219  1.00  0.00     0.000 HD 
HETATM   14  C   UNL     1      -8.052  13.690  67.560  1.00  0.00    -0.184 C  
HETATM   15  C   UNL     1      -7.621  16.323  68.246  1.00  0.00    -0.153 C  
HETATM   16  C   UNL     1      -6.430  16.401  67.222  1.00  0.00    -0.222 C  
HETATM   17  O   UNL     1      -7.765  13.185  68.862  1.00  0.00    -0.292 OA 
HETATM   18  C   UNL     1      -8.653  15.272  67.694  1.00  0.00    -0.178 C  
HETATM   19  C   UNL     1     -10.199  15.432  68.360  1.00  0.00    -0.221 C  
HETATM   20  H   UNL     1      -7.263  13.862  69.302  1.00  0.00     0.000 HD 
HETATM   21  C   UNL     1     -10.664  16.935  68.335  1.00  0.00    -0.368 C  
HETATM   22  C   UNL     1      -9.623  17.856  68.978  1.00  0.00    -0.143 C  
HETATM   23 CL   UNL     1     -10.975  17.630  66.710  1.00  0.00     0.026 Cl 
HETATM   24  C   UNL     1      -8.267  17.720  68.349  1.00  0.00    -0.298 C  
HETATM   25  C   UNL     1      -7.569  18.806  67.986  1.00  0.00    -0.283 C  
HETATM   26  C   UNL     1      -6.188  18.459  67.634  1.00  0.00    -0.180 C  
ENDROOT
BRANCH   4  27
HETATM   27  C   UNL     1      -9.814  11.249  68.812  1.00  0.00    -0.184 C  
HETATM   28  O   UNL     1      -8.887  10.588  68.313  1.00  0.00    -0.130 OA 
BRANCH  27  29
HETATM   29  C   UNL     1     -10.668  10.448  69.838  1.00  0.00    -0.279 C  
HETATM   30  O   UNL     1     -11.103   9.190  69.319  1.00  0.00    -0.424 OA 
HETATM   31  H   UNL     1     -11.625   8.701  69.944  1.00  0.00     0.000 HD 
ENDBRANCH  27  29
ENDBRANCH   4  27
TORSDOF 2
ENDMDL
MODEL       23
REMARK 921   NORMALIZED FREE ENERGY PREDICTED BY IDOCK:   -5.58 KCAL/MOL
REMARK 922        TOTAL FREE ENERGY PREDICTED BY IDOCK:   -5.59 KCAL/MOL
REMARK 923 INTER-LIGAND FREE ENERGY PREDICTED BY IDOCK:   -6.53 KCAL/MOL
REMARK 924 INTRA-LIGAND FREE ENERGY PREDICTED BY IDOCK:    0.94 KCAL/MOL
REMARK 927      BINDING AFFINITY PREDICTED BY RF-SCORE:    0.00 PKD
ROOT
HETATM    1  C   UNL     1     -10.630   6.239  69.380  1.00  0.00    -0.330 C  
HETATM    2  C   UNL     1      -9.666   5.232  69.452  1.00  0.00    -0.241 C  
HETATM    3  C   UNL     1      -9.387   6.451  70.262  1.00  0.00    -0.165 C  
HETATM    4  C   UNL     1     -11.088   7.564  70.740  1.00  0.00    -0.265 C  
HETATM    5  C   UNL     1      -7.774   5.907  70.360  1.00  0.00    -0.096 C  
HETATM    6  O   UNL     1     -12.388   7.208  70.098  1.00  0.00    -0.565 OA 
HETATM    7  O   UNL     1      -6.447  12.146  66.433  1.00  0.00     0.108 OA 
HETATM    8  C   UNL     1     -10.505   6.471  71.330  1.00  0.00    -0.246 C  
HETATM    9  C   UNL     1      -9.476   7.871  72.004  1.00  0.00    -0.230 C  
HETATM   10  C   UNL     1     -11.178   5.361  72.055  1.00  0.00    -0.159 C  
HETATM   11  C   UNL     1      -5.983  10.512  68.154  1.00  0.00    -0.043 C  
HETATM   12  C   UNL     1      -9.622  10.998  68.178  1.00  0.00    -0.175 C  
HETATM   13  H   UNL     1     -13.161   7.714  70.315  1.00  0.00     0.000 HD 
HETATM   14  C   UNL     1      -9.225   9.141  70.770  1.00  0.00    -0.262 C  
HETATM   15  C   UNL     1      -8.520   9.943  68.231  1.00  0.00    -0.111 C  
HETATM   16  C   UNL     1      -7.157  10.504  68.780  1.00  0.00    -0.073 C  
HETATM   17  O   UNL     1     -10.365   9.995  70.846  1.00  0.00    -0.350 OA 
HETATM   18  C   UNL     1      -8.940   8.735  69.146  1.00  0.00    -0.137 C  
HETATM   19  C   UNL     1     -10.065   7.701  68.422  1.00  0.00    -0.208 C  
HETATM   20  H   UNL     1     -10.231  10.670  70.190  1.00  0.00     0.000 HD 
HETATM   21  C   UNL     1      -9.624   7.337  66.956  1.00  0.00    -0.166 C  
HETATM   22  C   UNL     1      -9.328   8.592  66.130  1.00  0.00    -0.279 C  
HETATM   23 CL   UNL     1      -8.156   6.315  66.812  1.00  0.00    -0.108 Cl 
HETATM   24  C   UNL     1      -8.303   9.477  66.776  1.00  0.00    -0.116 C  
HETATM   25  C   UNL     1      -7.269   9.957  66.068  1.00  0.00    -0.106 C  
HETATM   26  C   UNL     1      -6.545  10.989  66.817  1.00  0.00    -0.124 C  
ENDROOT
BRANCH   4  27
HETATM   27  C   UNL     1     -11.983   8.100  72.166  1.00  0.00    -0.359 C  
HETATM   28  O   UNL     1     -11.504   8.140  73.312  1.00  0.00    -0.189 OA 
BRANCH  27  29
HETATM   29  C   UNL     1     -13.498   8.455  72.109  1.00  0.00    -0.315 C  
HETATM   30  O   UNL     1     -13.976   8.992  73.343  1.00  0.00    -1.220 OA 
HETATM   31  H   UNL     1     -14.900   9.209  73.309  1.00  0.00     0.000 HD 
ENDBRANCH  27  29
ENDBRANCH   4  27
TORSDOF 2
ENDMDL
MODEL       24
REMARK 921   NORMALIZED FREE ENERGY PREDICTED BY IDOCK:   -5.56 KCAL/MOL
REMARK 922        TOTAL FREE ENERGY PREDICTED BY IDOCK:   -5.57 KCAL/MOL
REMARK 923 INTER-LIGAND FREE ENERGY PREDICTED BY IDOCK:   -6.41 KCAL/MOL
REMARK 924 INTRA-LIGAND FREE ENERGY PREDICTED BY IDOCK:    0.83 KCAL/MOL
REMARK 927      BINDING AFFINITY PREDICTED BY RF-SCORE:    0.00 PKD
ROOT
HETATM    1  C   UNL     1      -8.939  14.092  67.929  1.00  0.00    -0.185 C  
HETATM    2  C   UNL     1      -8.965  14.260  66.544  1.00  0.00    -0.161 C  
HETATM    3  C   UNL     1     -10.152  13.580  67.133  1.00  0.00    -0.245 C  
HETATM    4  C   UNL     1     -10.454  13.997  69.157  1.00  0.00    -0.086 C  
HETATM    5  C   UNL     1     -10.523  13.054  65.554  1.00  0.00    -0.297 C  
HETATM    6  O   UNL     1      -9.400  14.741  69.906  1.00  0.00    -0.411 OA 
HETATM    7  O   UNL     1      -9.217   6.305  68.528  1.00  0.00    -0.125 OA 
HETATM    8  C   UNL     1     -10.821  14.661  68.014  1.00  0.00    -0.260 C  
HETATM    9  C   UNL     1     -12.147  13.359  68.148  1.00  0.00    -0.267 C  
HETATM   10  C   UNL     1     -10.956  16.128  67.818  1.00  0.00    -0.293 C  
HETATM   11  C   UNL     1     -10.415   7.882  67.142  1.00  0.00    -0.414 C  
HETATM   12  C   UNL     1      -9.574   9.685  70.227  1.00  0.00    -0.307 C  
HETATM   13  H   UNL     1      -9.537  14.931  70.827  1.00  0.00     0.000 HD 
HETATM   14  C   UNL     1     -11.480  11.817  68.761  1.00  0.00    -0.291 C  
HETATM   15  C   UNL     1      -9.607   9.797  68.706  1.00  0.00    -0.155 C  
HETATM   16  C   UNL     1     -10.657   8.834  68.040  1.00  0.00    -0.218 C  
HETATM   17  O   UNL     1     -11.493  11.920  70.183  1.00  0.00    -0.500 OA 
HETATM   18  C   UNL     1      -9.956  11.264  68.256  1.00  0.00    -0.201 C  
HETATM   19  C   UNL     1      -8.669  12.346  68.432  1.00  0.00    -0.132 C  
HETATM   20  H   UNL     1     -11.139  11.100  70.509  1.00  0.00     0.000 HD 
HETATM   21  C   UNL     1      -7.344  11.738  67.838  1.00  0.00    -0.098 C  
HETATM   22  C   UNL     1      -7.057  10.348  68.413  1.00  0.00    -0.078 C  
HETATM   23 CL   UNL     1      -7.309  11.532  66.056  1.00  0.00     0.215 Cl 
HETATM   24  C   UNL     1      -8.201   9.396  68.216  1.00  0.00    -0.118 C  
HETATM   25  C   UNL     1      -7.989   8.164  67.730  1.00  0.00    -0.127 C  
HETATM   26  C   UNL     1      -9.187   7.328  67.858  1.00  0.00    -0.131 C  
ENDROOT
BRANCH   4  27
HETATM   27  C   UNL     1     -11.668  14.734  70.207  1.00  0.00    -0.298 C  
HETATM   28  O   UNL     1     -12.892  14.548  70.092  1.00  0.00    -0.290 OA 
BRANCH  27  29
HETATM   29  C   UNL     1     -11.296  15.781  71.298  1.00  0.00    -0.376 C  
HETATM   30  O   UNL     1     -12.448  16.327  71.942  1.00  0.00    -0.560 OA 
HETATM   31  H   UNL     1     -12.221  16.966  72.607  1.00  0.00     0.000 HD 
ENDBRANCH  27  29
ENDBRANCH   4  27
TORSDOF 2
ENDMDL
MODEL       25
REMARK 921   NORMALIZED FREE ENERGY PREDICTED BY IDOCK:   -5.47 KCAL/MOL
REMARK 922        TOTAL FREE ENERGY PREDICTED BY IDOCK:   -5.47 KCAL/MOL
REMARK 923 INTER-LIGAND FREE ENERGY PREDICTED BY IDOCK:   -6.19 KCAL/MOL
REMARK 924 INTRA-LIGAND FREE ENERGY PREDICTED BY IDOCK:    0.72 KCAL/MOL
REMARK 927      BINDING AFFINITY PREDICTED BY RF-SCORE:    0.00 PKD
ROOT
HETATM    1  C   UNL     1      -7.767  10.009  69.021  1.00  0.00    -0.094 C  
HETATM    2  C   UNL     1      -6.921   9.191  68.269  1.00  0.00    -0.076 C  
HETATM    3  C   UNL     1      -8.369   8.840  68.221  1.00  0.00    -0.126 C  
HETATM    4  C   UNL     1      -9.645  10.425  68.688  1.00  0.00    -0.166 C  
HETATM    5  C   UNL     1      -7.889   7.325  67.603  1.00  0.00    -0.113 C  
HETATM    6  O   UNL     1      -9.060  11.691  69.220  1.00  0.00    -0.359 OA 
HETATM    7  O   UNL     1     -10.812   4.850  74.040  1.00  0.00    -0.294 OA 
HETATM    8  C   UNL     1      -9.037  10.044  67.519  1.00  0.00    -0.144 C  
HETATM    9  C   UNL     1     -10.520   8.917  67.570  1.00  0.00    -0.337 C  
HETATM   10  C   UNL     1      -8.554  10.918  66.418  1.00  0.00    -0.160 C  
HETATM   11  C   UNL     1     -10.390   4.764  71.661  1.00  0.00    -0.215 C  
HETATM   12  C   UNL     1     -10.993   8.298  72.452  1.00  0.00    -0.438 C  
HETATM   13  H   UNL     1      -9.640  12.412  69.432  1.00  0.00     0.000 HD 
HETATM   14  C   UNL     1     -10.874   8.390  69.242  1.00  0.00    -0.054 C  
HETATM   15  C   UNL     1     -10.091   7.348  71.669  1.00  0.00    -0.200 C  
HETATM   16  C   UNL     1     -10.792   5.984  71.315  1.00  0.00    -0.331 C  
HETATM   17  O   UNL     1     -11.683   9.415  69.815  1.00  0.00    -0.443 OA 
HETATM   18  C   UNL     1      -9.620   8.003  70.319  1.00  0.00    -0.171 C  
HETATM   19  C   UNL     1      -8.418   9.174  70.522  1.00  0.00    -0.236 C  
HETATM   20  H   UNL     1     -11.872   9.135  70.703  1.00  0.00     0.000 HD 
HETATM   21  C   UNL     1      -7.277   8.643  71.468  1.00  0.00    -0.098 C  
HETATM   22  C   UNL     1      -7.843   8.113  72.788  1.00  0.00    -0.197 C  
HETATM   23 CL   UNL     1      -6.274   7.309  70.810  1.00  0.00    -0.035 Cl 
HETATM   24  C   UNL     1      -8.885   7.051  72.583  1.00  0.00    -0.140 C  
HETATM   25  C   UNL     1      -8.836   5.902  73.273  1.00  0.00    -0.127 C  
HETATM   26  C   UNL     1     -10.071   5.129  73.108  1.00  0.00    -0.165 C  
ENDROOT
BRANCH   4  27
HETATM   27  C   UNL     1     -10.929  11.379  67.937  1.00  0.00    -0.240 C  
HETATM   28  O   UNL     1     -11.455  11.099  66.846  1.00  0.00    -0.414 OA 
BRANCH  27  29
HETATM   29  C   UNL     1     -11.422  12.727  68.541  1.00  0.00    -0.309 C  
HETATM   30  O   UNL     1     -11.535  12.675  69.964  1.00  0.00    -0.512 OA 
HETATM   31  H   UNL     1     -11.836  13.498  70.332  1.00  0.00     0.000 HD 
ENDBRANCH  27  29
ENDBRANCH   4  27
TORSDOF 2
ENDMDL
MODEL       26
REMARK 921   NORMALIZED FREE ENERGY PREDICTED BY IDOCK:   -5.46 KCAL/MOL
REMARK 922        TOTAL FREE ENERGY PREDICTED BY IDOCK:   -5.45 KCAL/MOL
REMARK 923 INTER-LIGAND FREE ENERGY PREDICTED BY IDOCK:   -6.06 KCAL/MOL
REMARK 924 INTRA-LIGAND FREE ENERGY PREDICTED BY IDOCK:    0.61 KCAL/MOL
REMARK 927      BINDING AFFINITY PREDICTED BY RF-SCORE:    0.00 PKD
ROOT
HETATM    1  C   UNL     1      -9.899  16.398  66.445  1.00  0.00    -0.312 C  
HETATM    2  C   UNL     1     -11.092  16.732  67.089  1.00  0.00     0.123 C  
HETATM    3  C   UNL     1     -10.054  16.091  67.945  1.00  0.00    -0.241 C  
HETATM    4  C   UNL     1      -8.108  16.287  67.215  1.00  0.00    -0.176 C  
HETATM    5  C   UNL     1     -11.298  15.792  69.073  1.00  0.00    -0.354 C  
HETATM    6  O   UNL     1      -7.903  16.843  65.845  1.00  0.00    -0.391 OA 
HETATM    7  O   UNL     1      -9.745   8.648  67.444  1.00  0.00    -0.157 OA 
HETATM    8  C   UNL     1      -8.893  17.112  67.978  1.00  0.00    -0.229 C  
HETATM    9  C   UNL     1      -8.230  15.924  69.250  1.00  0.00    -0.227 C  
HETATM   10  C   UNL     1      -8.907  18.599  67.992  1.00  0.00    -0.329 C  
HETATM   11  C   UNL     1     -10.290  10.478  68.927  1.00  0.00    -0.226 C  
HETATM   12  C   UNL     1      -7.865  11.819  66.519  1.00  0.00     0.020 C  
HETATM   13  H   UNL     1      -7.018  16.932  65.512  1.00  0.00     0.000 HD 
HETATM   14  C   UNL     1      -8.109  14.268  68.585  1.00  0.00    -0.140 C  
HETATM   15  C   UNL     1      -9.177  12.115  67.239  1.00  0.00    -0.185 C  
HETATM   16  C   UNL     1      -9.325  11.332  68.597  1.00  0.00    -0.167 C  
HETATM   17  O   UNL     1      -6.848  14.200  67.923  1.00  0.00    -0.130 OA 
HETATM   18  C   UNL     1      -9.311  13.649  67.559  1.00  0.00    -0.223 C  
HETATM   19  C   UNL     1      -9.699  14.587  66.207  1.00  0.00    -0.330 C  
HETATM   20  H   UNL     1      -6.783  13.320  67.570  1.00  0.00     0.000 HD 
HETATM   21  C   UNL     1     -10.888  13.942  65.404  1.00  0.00    -0.319 C  
HETATM   22  C   UNL     1     -10.610  12.474  65.069  1.00  0.00    -0.329 C  
HETATM   23 CL   UNL     1     -12.483  13.949  66.228  1.00  0.00    -0.480 Cl 
HETATM   24  C   UNL     1     -10.301  11.654  66.289  1.00  0.00    -0.273 C  
HETATM   25  C   UNL     1     -10.908  10.476  66.492  1.00  0.00    -0.128 C  
HETATM   26  C   UNL     1     -10.280   9.737  67.593  1.00  0.00    -0.213 C  
ENDROOT
BRANCH   4  27
HETATM   27  C   UNL     1      -6.562  16.996  67.692  1.00  0.00    -0.144 C  
HETATM   28  O   UNL     1      -6.208  17.162  68.872  1.00  0.00    -0.162 OA 
BRANCH  27  29
HETATM   29  C   UNL     1      -5.562  17.583  66.652  1.00  0.00    -0.182 C  
HETATM   30  O   UNL     1      -5.901  18.916  66.266  1.00  0.00    -0.155 OA 
HETATM   31  H   UNL     1      -5.292  19.274  65.632  1.00  0.00     0.000 HD 
ENDBRANCH  27  29
ENDBRANCH   4  27
TORSDOF 2
ENDMDL
MODEL       27
REMARK 921   NORMALIZED FREE ENERGY PREDICTED BY IDOCK:   -5.35 KCAL/MOL
REMARK 922        TOTAL FREE ENERGY PREDICTED BY IDOCK:   -5.33 KCAL/MOL
REMARK 923 INTER-LIGAND FREE ENERGY PREDICTED BY IDOCK:   -5.98 KCAL/MOL
REMARK 924 INTRA-LIGAND FREE ENERGY PREDICTED BY IDOCK:    0.65 KCAL/MOL
REMARK 927      BINDING AFFINITY PREDICTED BY RF-SCORE:    0.00 PKD
ROOT
HETATM    1  C   UNL     1      -8.275   8.027  67.100  1.00  0.00    -0.117 C  
HETATM    2  C   UNL     1      -8.939   7.046  66.363  1.00  0.00    -0.175 C  
HETATM    3  C   UNL     1      -9.809   7.944  67.173  1.00  0.00    -0.273 C  
HETATM    4  C   UNL     1      -8.938   9.784  67.636  1.00  0.00    -0.128 C  
HETATM    5  C   UNL     1     -11.044   6.786  66.965  1.00  0.00    -0.369 C  
HETATM    6  O   UNL     1      -7.493   9.997  67.326  1.00  0.00    -0.090 OA 
HETATM    7  O   UNL     1     -10.335   6.109  74.391  1.00  0.00    -0.310 OA 
HETATM    8  C   UNL     1      -9.626   9.341  66.536  1.00  0.00    -0.285 C  
HETATM    9  C   UNL     1     -11.007   9.769  67.710  1.00  0.00    -0.242 C  
HETATM   10  C   UNL     1      -9.434   9.744  65.118  1.00  0.00    -0.338 C  
HETATM   11  C   UNL     1     -11.579   6.249  72.324  1.00  0.00    -0.355 C  
HETATM   12  C   UNL     1      -8.859   8.697  72.032  1.00  0.00    -0.264 C  
HETATM   13  H   UNL     1      -7.097  10.834  67.537  1.00  0.00     0.000 HD 
HETATM   14  C   UNL     1     -10.574   9.356  69.396  1.00  0.00    -0.221 C  
HETATM   15  C   UNL     1      -9.612   7.599  71.287  1.00  0.00    -0.171 C  
HETATM   16  C   UNL     1     -11.072   7.375  71.830  1.00  0.00    -0.269 C  
HETATM   17  O   UNL     1      -9.850  10.475  69.902  1.00  0.00    -0.420 OA 
HETATM   18  C   UNL     1      -9.722   7.932  69.753  1.00  0.00    -0.176 C  
HETATM   19  C   UNL     1      -8.280   7.688  68.906  1.00  0.00    -0.128 C  
HETATM   20  H   UNL     1      -9.620  10.256  70.798  1.00  0.00     0.000 HD 
HETATM   21  C   UNL     1      -7.651   6.291  69.267  1.00  0.00    -0.099 C  
HETATM   22  C   UNL     1      -7.508   6.113  70.781  1.00  0.00    -0.091 C  
HETATM   23 CL   UNL     1      -8.565   4.854  68.703  1.00  0.00    -0.096 Cl 
HETATM   24  C   UNL     1      -8.808   6.302  71.508  1.00  0.00    -0.138 C  
HETATM   25  C   UNL     1      -9.212   5.413  72.427  1.00  0.00    -0.152 C  
HETATM   26  C   UNL     1     -10.363   5.917  73.184  1.00  0.00    -0.211 C  
ENDROOT
BRANCH   4  27
HETATM   27  C   UNL     1      -9.213  11.506  67.356  1.00  0.00    -0.166 C  
HETATM   28  O   UNL     1     -10.168  11.960  66.702  1.00  0.00    -0.204 OA 
BRANCH  27  29
HETATM   29  C   UNL     1      -8.198  12.593  67.816  1.00  0.00    -0.171 C  
HETATM   30  O   UNL     1      -7.660  12.321  69.111  1.00  0.00    -0.326 OA 
HETATM   31  H   UNL     1      -7.041  12.985  69.391  1.00  0.00     0.000 HD 
ENDBRANCH  27  29
ENDBRANCH   4  27
TORSDOF 2
ENDMDL
MODEL       28
REMARK 921   NORMALIZED FREE ENERGY PREDICTED BY IDOCK:   -5.33 KCAL/MOL
REMARK 922        TOTAL FREE ENERGY PREDICTED BY IDOCK:   -5.31 KCAL/MOL
REMARK 923 INTER-LIGAND FREE ENERGY PREDICTED BY IDOCK:   -5.97 KCAL/MOL
REMARK 924 INTRA-LIGAND FREE ENERGY PREDICTED BY IDOCK:    0.66 KCAL/MOL
REMARK 927      BINDING AFFINITY PREDICTED BY RF-SCORE:    0.00 PKD
ROOT
HETATM    1  C   UNL     1     -11.085  10.418  68.340  1.00  0.00    -0.322 C  
HETATM    2  C   UNL     1     -10.599  10.205  69.631  1.00  0.00    -0.286 C  
HETATM    3  C   UNL     1      -9.685  10.938  68.711  1.00  0.00    -0.196 C  
HETATM    4  C   UNL     1     -10.656  11.881  67.120  1.00  0.00    -0.231 C  
HETATM    5  C   UNL     1      -8.435  10.586  69.816  1.00  0.00     0.103 C  
HETATM    6  O   UNL     1     -12.104  11.603  66.891  1.00  0.00    -0.512 OA 
HETATM    7  O   UNL     1      -5.779   6.592  64.063  1.00  0.00    -0.029 OA 
HETATM    8  C   UNL     1     -10.418  12.268  68.414  1.00  0.00    -0.244 C  
HETATM    9  C   UNL     1      -8.799  12.672  67.586  1.00  0.00    -0.184 C  
HETATM   10  C   UNL     1     -11.273  13.120  69.281  1.00  0.00    -0.266 C  
HETATM   11  C   UNL     1      -5.587   8.087  65.953  1.00  0.00    -0.036 C  
HETATM   12  C   UNL     1      -8.634   9.099  64.174  1.00  0.00    -0.191 C  
HETATM   13  H   UNL     1     -12.545  12.031  66.168  1.00  0.00     0.000 HD 
HETATM   14  C   UNL     1      -8.380  11.445  66.353  1.00  0.00    -0.140 C  
HETATM   15  C   UNL     1      -8.048   8.829  65.557  1.00  0.00    -0.115 C  
HETATM   16  C   UNL     1      -6.485   9.006  65.608  1.00  0.00    -0.067 C  
HETATM   17  O   UNL     1      -9.045  11.844  65.158  1.00  0.00    -0.421 OA 
HETATM   18  C   UNL     1      -8.670   9.796  66.630  1.00  0.00    -0.142 C  
HETATM   19  C   UNL     1     -10.245   9.377  67.081  1.00  0.00    -0.319 C  
HETATM   20  H   UNL     1      -8.822  11.193  64.503  1.00  0.00     0.000 HD 
HETATM   21  C   UNL     1     -10.344   7.838  67.396  1.00  0.00    -0.284 C  
HETATM   22  C   UNL     1      -9.792   6.992  66.245  1.00  0.00    -0.010 C  
HETATM   23 CL   UNL     1      -9.467   7.282  68.859  1.00  0.00    -0.144 Cl 
HETATM   24  C   UNL     1      -8.382   7.360  65.885  1.00  0.00    -0.140 C  
HETATM   25  C   UNL     1      -7.446   6.412  65.734  1.00  0.00    -0.082 C  
HETATM   26  C   UNL     1      -6.222   6.962  65.142  1.00  0.00    -0.036 C  
ENDROOT
BRANCH   4  27
HETATM   27  C   UNL     1     -10.904  13.506  66.475  1.00  0.00    -0.282 C  
HETATM   28  O   UNL     1      -9.985  14.314  66.253  1.00  0.00    -0.284 OA 
BRANCH  27  29
HETATM   29  C   UNL     1     -12.325  14.098  66.244  1.00  0.00    -0.422 C  
HETATM   30  O   UNL     1     -12.873  13.717  64.981  1.00  0.00    -0.690 OA 
HETATM   31  H   UNL     1     -13.741  14.078  64.839  1.00  0.00     0.000 HD 
ENDBRANCH  27  29
ENDBRANCH   4  27
TORSDOF 2
ENDMDL
MODEL       29
REMARK 921   NORMALIZED FREE ENERGY PREDICTED BY IDOCK:   -5.26 KCAL/MOL
REMARK 922        TOTAL FREE ENERGY PREDICTED BY IDOCK:   -5.23 KCAL/MOL
REMARK 923 INTER-LIGAND FREE ENERGY PREDICTED BY IDOCK:   -5.83 KCAL/MOL
REMARK 924 INTRA-LIGAND FREE ENERGY PREDICTED BY IDOCK:    0.60 KCAL/MOL
REMARK 927      BINDING AFFINITY PREDICTED BY RF-SCORE:    0.00 PKD
ROOT
HETATM    1  C   UNL     1      -8.191  10.481  68.332  1.00  0.00    -0.121 C  
HETATM    2  C   UNL     1      -8.917  10.572  69.520  1.00  0.00    -0.054 C  
HETATM    3  C   UNL     1      -9.655  10.006  68.356  1.00  0.00    -0.153 C  
HETATM    4  C   UNL     1      -8.420   9.198  66.878  1.00  0.00    -0.123 C  
HETATM    5  C   UNL     1     -11.087  10.301  69.233  1.00  0.00    -0.293 C  
HETATM    6  O   UNL     1      -6.946   9.413  66.970  1.00  0.00    -0.083 OA 
HETATM    7  O   UNL     1     -12.397  15.087  63.622  1.00  0.00    -0.568 OA 
HETATM    8  C   UNL     1      -8.926   8.678  68.042  1.00  0.00    -0.141 C  
HETATM    9  C   UNL     1     -10.359   8.471  66.871  1.00  0.00    -0.367 C  
HETATM   10  C   UNL     1      -8.292   7.681  68.944  1.00  0.00    -0.129 C  
HETATM   11  C   UNL     1     -13.016  13.397  65.236  1.00  0.00    -0.258 C  
HETATM   12  C   UNL     1      -9.712  12.419  63.968  1.00  0.00    -0.031 C  
HETATM   13  H   UNL     1      -6.385   9.046  66.298  1.00  0.00     0.000 HD 
HETATM   14  C   UNL     1     -10.481   9.854  65.745  1.00  0.00     0.037 C  
HETATM   15  C   UNL     1     -10.553  12.560  65.234  1.00  0.00    -0.319 C  
HETATM   16  C   UNL     1     -12.100  12.473  64.959  1.00  0.00    -0.504 C  
HETATM   17  O   UNL     1      -9.604   9.558  64.661  1.00  0.00    -0.435 OA 
HETATM   18  C   UNL     1     -10.193  11.441  66.278  1.00  0.00    -0.274 C  
HETATM   19  C   UNL     1      -8.725  11.709  67.074  1.00  0.00    -0.173 C  
HETATM   20  H   UNL     1      -9.669  10.293  64.062  1.00  0.00     0.000 HD 
HETATM   21  C   UNL     1      -8.636  13.192  67.593  1.00  0.00    -0.193 C  
HETATM   22  C   UNL     1      -8.917  14.198  66.473  1.00  0.00    -0.140 C  
HETATM   23 CL   UNL     1      -9.768  13.626  68.916  1.00  0.00    -0.025 Cl 
HETATM   24  C   UNL     1     -10.239  13.959  65.803  1.00  0.00    -0.331 C  
HETATM   25  C   UNL     1     -11.092  14.973  65.593  1.00  0.00    -0.349 C  
HETATM   26  C   UNL     1     -12.192  14.569  64.711  1.00  0.00    -0.431 C  
ENDROOT
BRANCH   4  27
HETATM   27  C   UNL     1      -8.106   7.647  66.094  1.00  0.00    -0.118 C  
HETATM   28  O   UNL     1      -8.972   6.775  65.906  1.00  0.00    -0.147 OA 
BRANCH  27  29
HETATM   29  C   UNL     1      -6.673   7.201  65.681  1.00  0.00    -0.052 C  
HETATM   30  O   UNL     1      -6.203   7.891  64.521  1.00  0.00    -0.051 OA 
HETATM   31  H   UNL     1      -5.329   7.619  64.268  1.00  0.00     0.000 HD 
ENDBRANCH  27  29
ENDBRANCH   4  27
TORSDOF 2
ENDMDL
MODEL       30
REMARK 921   NORMALIZED FREE ENERGY PREDICTED BY IDOCK:   -5.25 KCAL/MOL
REMARK 922        TOTAL FREE ENERGY PREDICTED BY IDOCK:   -5.22 KCAL/MOL
REMARK 923 INTER-LIGAND FREE ENERGY PREDICTED BY IDOCK:   -6.06 KCAL/MOL
REMARK 924 INTRA-LIGAND FREE ENERGY PREDICTED BY IDOCK:    0.84 KCAL/MOL
REMARK 927      BINDING AFFINITY PREDICTED BY RF-SCORE:    0.00 PKD
ROOT
HETATM    1  C   UNL     1     -10.380  10.717  68.507  1.00  0.00    -0.202 C  
HETATM    2  C   UNL     1      -9.448  11.179  69.438  1.00  0.00     0.221 C  
HETATM    3  C   UNL     1      -8.890  10.395  68.300  1.00  0.00    -0.135 C  
HETATM    4  C   UNL     1     -10.109  10.368  66.605  1.00  0.00    -0.224 C  
HETATM    5  C   UNL     1      -7.472  10.223  69.231  1.00  0.00    -0.112 C  
HETATM    6  O   UNL     1     -11.489  10.928  66.699  1.00  0.00    -0.233 OA 
HETATM    7  O   UNL     1      -9.390   2.985  69.067  1.00  0.00    -0.153 OA 
HETATM    8  C   UNL     1      -9.172  11.265  67.053  1.00  0.00    -0.173 C  
HETATM    9  C   UNL     1      -8.110   9.972  66.234  1.00  0.00    -0.117 C  
HETATM   10  C   UNL     1      -9.168  12.741  66.876  1.00  0.00    -0.229 C  
HETATM   11  C   UNL     1      -7.832   4.830  68.970  1.00  0.00    -0.072 C  
HETATM   12  C   UNL     1     -10.805   5.922  67.114  1.00  0.00    -0.373 C  
HETATM   13  H   UNL     1     -12.044  10.916  65.929  1.00  0.00     0.000 HD 
HETATM   14  C   UNL     1      -8.769   8.331  66.499  1.00  0.00    -0.141 C  
HETATM   15  C   UNL     1      -9.767   6.359  68.144  1.00  0.00    -0.122 C  
HETATM   16  C   UNL     1      -8.412   5.568  68.027  1.00  0.00    -0.098 C  
HETATM   17  O   UNL     1      -9.740   8.125  65.475  1.00  0.00    -0.322 OA 
HETATM   18  C   UNL     1      -9.437   7.890  67.996  1.00  0.00    -0.159 C  
HETATM   19  C   UNL     1     -10.647   8.902  68.605  1.00  0.00    -0.182 C  
HETATM   20  H   UNL     1     -10.089   7.253  65.615  1.00  0.00     0.000 HD 
HETATM   21  C   UNL     1     -11.103   8.428  70.035  1.00  0.00    -0.148 C  
HETATM   22  C   UNL     1     -11.486   6.946  70.040  1.00  0.00    -0.328 C  
HETATM   23 CL   UNL     1      -9.888   8.610  71.343  1.00  0.00    -0.298 Cl 
HETATM   24  C   UNL     1     -10.384   6.064  69.526  1.00  0.00    -0.295 C  
HETATM   25  C   UNL     1     -10.017   4.965  70.201  1.00  0.00    -0.325 C  
HETATM   26  C   UNL     1      -9.115   4.128  69.404  1.00  0.00    -0.126 C  
ENDROOT
BRANCH   4  27
HETATM   27  C   UNL     1     -10.062  10.869  64.912  1.00  0.00    -0.312 C  
HETATM   28  O   UNL     1      -9.106  10.649  64.148  1.00  0.00    -0.201 OA 
BRANCH  27  29
HETATM   29  C   UNL     1     -11.183  11.741  64.274  1.00  0.00    -0.344 C  
HETATM   30  O   UNL     1     -11.559  11.278  62.976  1.00  0.00    -0.857 OA 
HETATM   31  H   UNL     1     -12.242  11.810  62.586  1.00  0.00     0.000 HD 
ENDBRANCH  27  29
ENDBRANCH   4  27
TORSDOF 2
ENDMDL
MODEL       31
REMARK 921   NORMALIZED FREE ENERGY PREDICTED BY IDOCK:   -5.19 KCAL/MOL
REMARK 922        TOTAL FREE ENERGY PREDICTED BY IDOCK:   -5.15 KCAL/MOL
REMARK 923 INTER-LIGAND FREE ENERGY PREDICTED BY IDOCK:   -5.85 KCAL/MOL
REMARK 924 INTRA-LIGAND FREE ENERGY PREDICTED BY IDOCK:    0.70 KCAL/MOL
REMARK 927      BINDING AFFINITY PREDICTED BY RF-SCORE:    0.00 PKD
ROOT
HETATM    1  C   UNL     1      -8.111  11.163  66.721  1.00  0.00    -0.155 C  
HETATM    2  C   UNL     1      -8.403  10.522  67.926  1.00  0.00    -0.115 C  
HETATM    3  C   UNL     1      -9.523  11.295  67.319  1.00  0.00    -0.184 C  
HETATM    4  C   UNL     1      -9.335  11.592  65.261  1.00  0.00    -0.137 C  
HETATM    5  C   UNL     1     -10.285  11.215  68.843  1.00  0.00    -0.209 C  
HETATM    6  O   UNL     1      -8.055  11.217  64.591  1.00  0.00    -0.328 OA 
HETATM    7  O   UNL     1      -9.329  18.642  68.635  1.00  0.00    -0.335 OA 
HETATM    8  C   UNL     1      -9.837  10.551  66.000  1.00  0.00    -0.277 C  
HETATM    9  C   UNL     1     -11.272  11.739  65.978  1.00  0.00    -0.352 C  
HETATM   10  C   UNL     1      -9.807   9.102  65.670  1.00  0.00    -0.164 C  
HETATM   11  C   UNL     1     -10.561  16.614  69.098  1.00  0.00    -0.340 C  
HETATM   12  C   UNL     1      -8.854  16.050  65.897  1.00  0.00    -0.191 C  
HETATM   13  H   UNL     1      -7.969  11.352  63.655  1.00  0.00     0.000 HD 
HETATM   14  C   UNL     1     -10.711  13.434  66.080  1.00  0.00    -0.284 C  
HETATM   15  C   UNL     1      -9.188  15.413  67.243  1.00  0.00    -0.217 C  
HETATM   16  C   UNL     1     -10.477  16.022  67.909  1.00  0.00    -0.292 C  
HETATM   17  O   UNL     1     -10.412  13.832  64.744  1.00  0.00    -0.400 OA 
HETATM   18  C   UNL     1      -9.418  13.865  67.093  1.00  0.00    -0.246 C  
HETATM   19  C   UNL     1      -7.986  12.987  66.894  1.00  0.00     0.092 C  
HETATM   20  H   UNL     1     -10.114  14.733  64.799  1.00  0.00     0.000 HD 
HETATM   21  C   UNL     1      -6.911  13.427  67.957  1.00  0.00    -0.127 C  
HETATM   22  C   UNL     1      -6.704  14.944  67.953  1.00  0.00    -0.175 C  
HETATM   23 CL   UNL     1      -7.278  13.001  69.662  1.00  0.00     0.358 Cl 
HETATM   24  C   UNL     1      -7.984  15.700  68.164  1.00  0.00    -0.129 C  
HETATM   25  C   UNL     1      -8.050  16.696  69.060  1.00  0.00    -0.199 C  
HETATM   26  C   UNL     1      -9.299  17.453  68.922  1.00  0.00    -0.183 C  
ENDROOT
BRANCH   4  27
HETATM   27  C   UNL     1     -10.189  11.197  63.766  1.00  0.00    -0.377 C  
HETATM   28  O   UNL     1     -11.427  11.190  63.653  1.00  0.00    -0.139 OA 
BRANCH  27  29
HETATM   29  C   UNL     1      -9.444  10.705  62.490  1.00  0.00    -0.254 C  
HETATM   30  O   UNL     1      -9.207   9.296  62.509  1.00  0.00    -0.495 OA 
HETATM   31  H   UNL     1      -8.752   8.996  61.731  1.00  0.00     0.000 HD 
ENDBRANCH  27  29
ENDBRANCH   4  27
TORSDOF 2
ENDMDL
MODEL       32
REMARK 921   NORMALIZED FREE ENERGY PREDICTED BY IDOCK:   -5.18 KCAL/MOL
REMARK 922        TOTAL FREE ENERGY PREDICTED BY IDOCK:   -5.14 KCAL/MOL
REMARK 923 INTER-LIGAND FREE ENERGY PREDICTED BY IDOCK:   -5.74 KCAL/MOL
REMARK 924 INTRA-LIGAND FREE ENERGY PREDICTED BY IDOCK:    0.60 KCAL/MOL
REMARK 927      BINDING AFFINITY PREDICTED BY RF-SCORE:    0.00 PKD
ROOT
HETATM    1  C   UNL     1     -10.799  12.508  68.906  1.00  0.00    -0.238 C  
HETATM    2  C   UNL     1     -12.139  12.443  68.518  1.00  0.00    -0.126 C  
HETATM    3  C   UNL     1     -11.169  12.770  67.435  1.00  0.00    -0.337 C  
HETATM    4  C   UNL     1      -9.215  12.141  67.825  1.00  0.00    -0.189 C  
HETATM    5  C   UNL     1     -12.505  13.307  66.523  1.00  0.00    -0.184 C  
HETATM    6  O   UNL     1      -8.881  11.620  69.183  1.00  0.00    -0.370 OA 
HETATM    7  O   UNL     1      -9.065  19.929  67.173  1.00  0.00    -0.316 OA 
HETATM    8  C   UNL     1     -10.303  11.496  67.293  1.00  0.00    -0.236 C  
HETATM    9  C   UNL     1      -9.644  12.424  65.818  1.00  0.00    -0.164 C  
HETATM   10  C   UNL     1     -10.660  10.059  67.421  1.00  0.00    -0.330 C  
HETATM   11  C   UNL     1     -10.294  18.217  65.988  1.00  0.00    -0.360 C  
HETATM   12  C   UNL     1      -7.822  16.445  68.044  1.00  0.00    -0.159 C  
HETATM   13  H   UNL     1      -7.993  11.335  69.360  1.00  0.00     0.000 HD 
HETATM   14  C   UNL     1      -9.019  14.031  66.292  1.00  0.00     0.086 C  
HETATM   15  C   UNL     1      -9.281  16.443  67.598  1.00  0.00    -0.199 C  
HETATM   16  C   UNL     1      -9.506  17.170  66.221  1.00  0.00    -0.267 C  
HETATM   17  O   UNL     1      -7.672  13.822  66.711  1.00  0.00    -0.288 OA 
HETATM   18  C   UNL     1      -9.824  14.974  67.453  1.00  0.00    -0.224 C  
HETATM   19  C   UNL     1     -10.146  14.225  68.934  1.00  0.00    -0.179 C  
HETATM   20  H   UNL     1      -7.339  14.676  66.963  1.00  0.00     0.000 HD 
HETATM   21  C   UNL     1     -10.976  15.178  69.871  1.00  0.00    -0.274 C  
HETATM   22  C   UNL     1     -10.309  16.549  70.012  1.00  0.00     0.031 C  
HETATM   23 CL   UNL     1     -12.658  15.520  69.347  1.00  0.00    -0.030 Cl 
HETATM   24  C   UNL     1     -10.062  17.208  68.686  1.00  0.00    -0.329 C  
HETATM   25  C   UNL     1     -10.410  18.488  68.483  1.00  0.00    -0.315 C  
HETATM   26  C   UNL     1      -9.855  18.997  67.224  1.00  0.00    -0.326 C  
ENDROOT
BRANCH   4  27
HETATM   27  C   UNL     1      -7.997  11.055  67.150  1.00  0.00    -0.135 C  
HETATM   28  O   UNL     1      -7.884  10.805  65.937  1.00  0.00    -0.158 OA 
BRANCH  27  29
HETATM   29  C   UNL     1      -7.034  10.227  68.050  1.00  0.00    -0.082 C  
HETATM   30  O   UNL     1      -6.105  11.052  68.755  1.00  0.00    -0.043 OA 
HETATM   31  H   UNL     1      -5.518  10.546  69.304  1.00  0.00     0.000 HD 
ENDBRANCH  27  29
ENDBRANCH   4  27
TORSDOF 2
ENDMDL
MODEL       33
REMARK 921   NORMALIZED FREE ENERGY PREDICTED BY IDOCK:   -5.17 KCAL/MOL
REMARK 922        TOTAL FREE ENERGY PREDICTED BY IDOCK:   -5.14 KCAL/MOL
REMARK 923 INTER-LIGAND FREE ENERGY PREDICTED BY IDOCK:   -5.83 KCAL/MOL
REMARK 924 INTRA-LIGAND FREE ENERGY PREDICTED BY IDOCK:    0.69 KCAL/MOL
REMARK 927      BINDING AFFINITY PREDICTED BY RF-SCORE:    0.00 PKD
ROOT
HETATM    1  C   UNL     1     -11.760  12.306  67.886  1.00  0.00    -0.410 C  
HETATM    2  C   UNL     1     -11.363  12.930  69.070  1.00  0.00    -0.341 C  
HETATM    3  C   UNL     1     -10.365  12.952  67.963  1.00  0.00    -0.230 C  
HETATM    4  C   UNL     1     -11.199  12.718  66.062  1.00  0.00    -0.299 C  
HETATM    5  C   UNL     1      -9.200  13.356  69.140  1.00  0.00     0.564 C  
HETATM    6  O   UNL     1     -12.641  12.351  65.946  1.00  0.00    -0.475 OA 
HETATM    7  O   UNL     1      -6.364   6.690  67.236  1.00  0.00    -0.034 OA 
HETATM    8  C   UNL     1     -11.024  13.818  66.864  1.00  0.00    -0.296 C  
HETATM    9  C   UNL     1      -9.343  13.638  66.081  1.00  0.00    -0.093 C  
HETATM   10  C   UNL     1     -11.895  15.018  66.964  1.00  0.00    -0.124 C  
HETATM   11  C   UNL     1      -6.226   9.030  67.828  1.00  0.00    -0.051 C  
HETATM   12  C   UNL     1      -9.117   8.725  65.585  1.00  0.00    -0.247 C  
HETATM   13  H   UNL     1     -13.020  12.245  65.082  1.00  0.00     0.000 HD 
HETATM   14  C   UNL     1      -8.900  11.916  65.889  1.00  0.00     0.056 C  
HETATM   15  C   UNL     1      -8.627   9.362  66.882  1.00  0.00    -0.132 C  
HETATM   16  C   UNL     1      -7.064   9.541  66.929  1.00  0.00    -0.086 C  
HETATM   17  O   UNL     1      -9.475  11.496  64.654  1.00  0.00    -0.348 OA 
HETATM   18  C   UNL     1      -9.273  10.780  67.094  1.00  0.00    -0.160 C  
HETATM   19  C   UNL     1     -10.888  10.717  67.590  1.00  0.00    -0.346 C  
HETATM   20  H   UNL     1      -9.239  10.582  64.552  1.00  0.00     0.000 HD 
HETATM   21  C   UNL     1     -11.069   9.692  68.771  1.00  0.00    -0.049 C  
HETATM   22  C   UNL     1     -10.483   8.321  68.421  1.00  0.00    -0.206 C  
HETATM   23 CL   UNL     1     -10.304  10.152  70.328  1.00  0.00    -0.295 Cl 
HETATM   24  C   UNL     1      -9.039   8.399  68.015  1.00  0.00    -0.140 C  
HETATM   25  C   UNL     1      -8.135   7.561  68.543  1.00  0.00    -0.125 C  
HETATM   26  C   UNL     1      -6.856   7.640  67.828  1.00  0.00    -0.068 C  
ENDROOT
BRANCH   4  27
HETATM   27  C   UNL     1     -11.342  13.607  64.542  1.00  0.00    -0.375 C  
HETATM   28  O   UNL     1     -10.906  14.759  64.367  1.00  0.00    -0.237 OA 
BRANCH  27  29
HETATM   29  C   UNL     1     -12.141  13.050  63.328  1.00  0.00    -0.422 C  
HETATM   30  O   UNL     1     -11.791  11.700  63.021  1.00  0.00    -0.860 OA 
HETATM   31  H   UNL     1     -12.278  11.360  62.280  1.00  0.00     0.000 HD 
ENDBRANCH  27  29
ENDBRANCH   4  27
TORSDOF 2
ENDMDL
MODEL       34
REMARK 921   NORMALIZED FREE ENERGY PREDICTED BY IDOCK:   -5.17 KCAL/MOL
REMARK 922        TOTAL FREE ENERGY PREDICTED BY IDOCK:   -5.13 KCAL/MOL
REMARK 923 INTER-LIGAND FREE ENERGY PREDICTED BY IDOCK:   -5.73 KCAL/MOL
REMARK 924 INTRA-LIGAND FREE ENERGY PREDICTED BY IDOCK:    0.60 KCAL/MOL
REMARK 927      BINDING AFFINITY PREDICTED BY RF-SCORE:    0.00 PKD
ROOT
HETATM    1  C   UNL     1     -10.664   8.411  72.293  1.00  0.00    -0.417 C  
HETATM    2  C   UNL     1     -11.776   7.601  72.057  1.00  0.00    -0.340 C  
HETATM    3  C   UNL     1     -10.623   7.399  71.134  1.00  0.00    -0.235 C  
HETATM    4  C   UNL     1      -8.789   8.019  71.917  1.00  0.00    -0.142 C  
HETATM    5  C   UNL     1     -11.708   6.587  70.100  1.00  0.00    -0.419 C  
HETATM    6  O   UNL     1      -8.771   8.780  73.200  1.00  0.00    -0.341 OA 
HETATM    7  O   UNL     1     -10.180  12.343  65.556  1.00  0.00    -0.265 OA 
HETATM    8  C   UNL     1      -9.495   6.849  72.038  1.00  0.00    -0.147 C  
HETATM    9  C   UNL     1      -8.647   6.622  70.395  1.00  0.00    -0.143 C  
HETATM   10  C   UNL     1      -9.546   5.933  73.208  1.00  0.00    -0.143 C  
HETATM   11  C   UNL     1     -10.585  10.014  66.065  1.00  0.00    -0.045 C  
HETATM   12  C   UNL     1      -8.515  11.303  68.811  1.00  0.00    -0.112 C  
HETATM   13  H   UNL     1      -7.937   9.062  73.556  1.00  0.00     0.000 HD 
HETATM   14  C   UNL     1      -8.565   8.163  69.491  1.00  0.00    -0.134 C  
HETATM   15  C   UNL     1      -9.735  10.445  68.486  1.00  0.00    -0.174 C  
HETATM   16  C   UNL     1      -9.692   9.836  67.036  1.00  0.00    -0.233 C  
HETATM   17  O   UNL     1      -7.395   8.831  69.957  1.00  0.00    -0.049 OA 
HETATM   18  C   UNL     1      -9.869   9.250  69.499  1.00  0.00    -0.188 C  
HETATM   19  C   UNL     1     -10.447   9.715  71.018  1.00  0.00    -0.327 C  
HETATM   20  H   UNL     1      -7.351   9.650  69.476  1.00  0.00     0.000 HD 
HETATM   21  C   UNL     1     -11.710  10.643  70.873  1.00  0.00    -0.289 C  
HETATM   22  C   UNL     1     -11.437  11.823  69.935  1.00  0.00    -0.285 C  
HETATM   23 CL   UNL     1     -13.189   9.856  70.229  1.00  0.00     0.111 Cl 
HETATM   24  C   UNL     1     -10.956  11.383  68.583  1.00  0.00    -0.267 C  
HETATM   25  C   UNL     1     -11.501  11.887  67.466  1.00  0.00    -0.396 C  
HETATM   26  C   UNL     1     -10.722  11.519  66.280  1.00  0.00    -0.272 C  
ENDROOT
BRANCH   4  27
HETATM   27  C   UNL     1      -7.215   7.339  72.342  1.00  0.00    -0.071 C  
HETATM   28  O   UNL     1      -6.655   6.429  71.706  1.00  0.00    -0.055 OA 
BRANCH  27  29
HETATM   29  C   UNL     1      -6.454   7.755  73.636  1.00  0.00    -0.080 C  
HETATM   30  O   UNL     1      -6.014   9.114  73.593  1.00  0.00    -0.272 OA 
HETATM   31  H   UNL     1      -5.550   9.368  74.382  1.00  0.00     0.000 HD 
ENDBRANCH  27  29
ENDBRANCH   4  27
TORSDOF 2
ENDMDL
MODEL       35
REMARK 921   NORMALIZED FREE ENERGY PREDICTED BY IDOCK:   -5.15 KCAL/MOL
REMARK 922        TOTAL FREE ENERGY PREDICTED BY IDOCK:   -5.11 KCAL/MOL
REMARK 923 INTER-LIGAND FREE ENERGY PREDICTED BY IDOCK:   -5.95 KCAL/MOL
REMARK 924 INTRA-LIGAND FREE ENERGY PREDICTED BY IDOCK:    0.84 KCAL/MOL
REMARK 927      BINDING AFFINITY PREDICTED BY RF-SCORE:    0.00 PKD
ROOT
HETATM    1  C   UNL     1     -10.911  16.801  68.740  1.00  0.00    -0.318 C  
HETATM    2  C   UNL     1     -10.539  16.479  70.047  1.00  0.00    -0.167 C  
HETATM    3  C   UNL     1      -9.490  16.273  69.008  1.00  0.00    -0.258 C  
HETATM    4  C   UNL     1      -9.766  17.413  67.281  1.00  0.00    -0.267 C  
HETATM    5  C   UNL     1      -8.674  15.308  70.153  1.00  0.00     0.567 C  
HETATM    6  O   UNL     1     -11.043  18.167  67.109  1.00  0.00    -0.151 OA 
HETATM    7  O   UNL     1     -10.097   9.892  65.179  1.00  0.00    -0.309 OA 
HETATM    8  C   UNL     1      -9.175  17.694  68.486  1.00  0.00    -0.281 C  
HETATM    9  C   UNL     1      -7.819  16.782  67.593  1.00  0.00    -0.189 C  
HETATM   10  C   UNL     1      -9.127  19.001  69.193  1.00  0.00    -0.133 C  
HETATM   11  C   UNL     1      -8.726  11.079  66.777  1.00  0.00    -0.152 C  
HETATM   12  C   UNL     1     -10.502  13.657  64.860  1.00  0.00    -0.426 C  
HETATM   13  H   UNL     1     -11.169  18.686  66.324  1.00  0.00     0.000 HD 
HETATM   14  C   UNL     1      -8.481  15.455  66.593  1.00  0.00    -0.260 C  
HETATM   15  C   UNL     1     -10.084  13.238  66.266  1.00  0.00    -0.294 C  
HETATM   16  C   UNL     1      -8.813  12.310  66.280  1.00  0.00    -0.010 C  
HETATM   17  O   UNL     1      -8.849  16.045  65.349  1.00  0.00    -0.086 OA 
HETATM   18  C   UNL     1      -9.763  14.495  67.156  1.00  0.00    -0.240 C  
HETATM   19  C   UNL     1     -11.143  15.319  67.679  1.00  0.00    -0.323 C  
HETATM   20  H   UNL     1      -9.200  15.340  64.817  1.00  0.00     0.000 HD 
HETATM   21  C   UNL     1     -12.206  14.314  68.260  1.00  0.00    -0.146 C  
HETATM   22  C   UNL     1     -12.507  13.182  67.273  1.00  0.00     0.190 C  
HETATM   23 CL   UNL     1     -11.756  13.500  69.794  1.00  0.00    -0.366 Cl 
HETATM   24  C   UNL     1     -11.271  12.445  66.849  1.00  0.00    -0.359 C  
HETATM   25  C   UNL     1     -11.236  11.104  66.863  1.00  0.00    -0.258 C  
HETATM   26  C   UNL     1     -10.043  10.595  66.178  1.00  0.00    -0.249 C  
ENDROOT
BRANCH   4  27
HETATM   27  C   UNL     1      -8.941  18.675  66.361  1.00  0.00    -0.279 C  
HETATM   28  O   UNL     1      -7.858  18.511  65.774  1.00  0.00    -0.504 OA 
BRANCH  27  29
HETATM   29  C   UNL     1      -9.460  20.142  66.317  1.00  0.00    -0.339 C  
HETATM   30  O   UNL     1     -10.336  20.375  65.213  1.00  0.00    -0.340 OA 
HETATM   31  H   UNL     1     -10.652  21.271  65.186  1.00  0.00     0.000 HD 
ENDBRANCH  27  29
ENDBRANCH   4  27
TORSDOF 2
ENDMDL
MODEL       36
REMARK 921   NORMALIZED FREE ENERGY PREDICTED BY IDOCK:   -5.10 KCAL/MOL
REMARK 922        TOTAL FREE ENERGY PREDICTED BY IDOCK:   -5.05 KCAL/MOL
REMARK 923 INTER-LIGAND FREE ENERGY PREDICTED BY IDOCK:   -5.66 KCAL/MOL
REMARK 924 INTRA-LIGAND FREE ENERGY PREDICTED BY IDOCK:    0.61 KCAL/MOL
REMARK 927      BINDING AFFINITY PREDICTED BY RF-SCORE:    0.00 PKD
ROOT
HETATM    1  C   UNL     1      -7.348  12.059  67.072  1.00  0.00    -0.097 C  
HETATM    2  C   UNL     1      -6.505  11.814  68.157  1.00  0.00    -0.051 C  
HETATM    3  C   UNL     1      -7.846  11.168  68.224  1.00  0.00    -0.123 C  
HETATM    4  C   UNL     1      -8.761  10.912  66.365  1.00  0.00    -0.170 C  
HETATM    5  C   UNL     1      -7.553  10.937  69.888  1.00  0.00     0.241 C  
HETATM    6  O   UNL     1      -8.146  11.547  65.163  1.00  0.00    -0.118 OA 
HETATM    7  O   UNL     1     -13.350  15.630  70.581  1.00  0.00    -0.494 OA 
HETATM    8  C   UNL     1      -7.849  10.156  67.055  1.00  0.00    -0.102 C  
HETATM    9  C   UNL     1      -9.455   9.643  67.847  1.00  0.00    -0.148 C  
HETATM   10  C   UNL     1      -6.759   9.311  66.499  1.00  0.00    -0.072 C  
HETATM   11  C   UNL     1     -12.037  13.685  71.164  1.00  0.00    -0.209 C  
HETATM   12  C   UNL     1     -12.003  13.864  67.497  1.00  0.00    -0.421 C  
HETATM   13  H   UNL     1      -8.562  11.431  64.317  1.00  0.00     0.000 HD 
HETATM   14  C   UNL     1     -10.575  11.029  67.994  1.00  0.00    -0.204 C  
HETATM   15  C   UNL     1     -11.131  13.626  68.726  1.00  0.00    -0.302 C  
HETATM   16  C   UNL     1     -11.945  13.108  69.968  1.00  0.00    -0.391 C  
HETATM   17  O   UNL     1     -11.263  11.113  66.747  1.00  0.00    -0.273 OA 
HETATM   18  C   UNL     1     -10.005  12.570  68.422  1.00  0.00    -0.212 C  
HETATM   19  C   UNL     1      -8.738  13.186  67.489  1.00  0.00    -0.201 C  
HETATM   20  H   UNL     1     -11.859  11.850  66.825  1.00  0.00     0.000 HD 
HETATM   21  C   UNL     1      -8.251  14.571  68.056  1.00  0.00    -0.145 C  
HETATM   22  C   UNL     1      -9.416  15.550  68.227  1.00  0.00    -0.200 C  
HETATM   23 CL   UNL     1      -7.435  14.518  69.654  1.00  0.00    -0.034 Cl 
HETATM   24  C   UNL     1     -10.514  14.993  69.085  1.00  0.00    -0.247 C  
HETATM   25  C   UNL     1     -11.038  15.721  70.083  1.00  0.00    -0.360 C  
HETATM   26  C   UNL     1     -12.251  15.094  70.619  1.00  0.00    -0.351 C  
ENDROOT
BRANCH   4  27
HETATM   27  C   UNL     1      -9.348   9.608  65.327  1.00  0.00    -0.260 C  
HETATM   28  O   UNL     1      -9.973   8.617  65.743  1.00  0.00    -0.072 OA 
BRANCH  27  29
HETATM   29  C   UNL     1      -9.017   9.544  63.808  1.00  0.00    -0.175 C  
HETATM   30  O   UNL     1      -9.897  10.353  63.026  1.00  0.00    -0.469 OA 
HETATM   31  H   UNL     1      -9.696  10.314  62.098  1.00  0.00     0.000 HD 
ENDBRANCH  27  29
ENDBRANCH   4  27
TORSDOF 2
ENDMDL
MODEL       37
REMARK 921   NORMALIZED FREE ENERGY PREDICTED BY IDOCK:   -5.03 KCAL/MOL
REMARK 922        TOTAL FREE ENERGY PREDICTED BY IDOCK:   -4.97 KCAL/MOL
REMARK 923 INTER-LIGAND FREE ENERGY PREDICTED BY IDOCK:   -5.78 KCAL/MOL
REMARK 924 INTRA-LIGAND FREE ENERGY PREDICTED BY IDOCK:    0.81 KCAL/MOL
REMARK 927      BINDING AFFINITY PREDICTED BY RF-SCORE:    0.00 PKD
ROOT
HETATM    1  C   UNL     1      -9.860   5.503  71.788  1.00  0.00    -0.216 C  
HETATM    2  C   UNL     1      -8.603   5.535  72.396  1.00  0.00    -0.118 C  
HETATM    3  C   UNL     1      -8.919   6.687  71.506  1.00  0.00    -0.139 C  
HETATM    4  C   UNL     1     -10.962   7.014  71.227  1.00  0.00    -0.243 C  
HETATM    5  C   UNL     1      -7.248   7.028  71.505  1.00  0.00    -0.078 C  
HETATM    6  O   UNL     1     -11.932   6.000  71.737  1.00  0.00    -0.238 OA 
HETATM    7  O   UNL     1      -7.894   5.386  64.225  1.00  0.00    -0.090 OA 
HETATM    8  C   UNL     1     -10.090   7.412  72.208  1.00  0.00    -0.234 C  
HETATM    9  C   UNL     1      -9.770   8.670  70.872  1.00  0.00    -0.254 C  
HETATM   10  C   UNL     1     -10.378   7.620  73.652  1.00  0.00    -0.207 C  
HETATM   11  C   UNL     1      -7.073   6.660  66.109  1.00  0.00    -0.063 C  
HETATM   12  C   UNL     1     -10.592   5.918  66.849  1.00  0.00    -0.384 C  
HETATM   13  H   UNL     1     -12.861   6.148  71.610  1.00  0.00     0.000 HD 
HETATM   14  C   UNL     1      -9.862   7.926  69.248  1.00  0.00    -0.177 C  
HETATM   15  C   UNL     1      -9.189   5.953  67.448  1.00  0.00    -0.108 C  
HETATM   16  C   UNL     1      -8.227   6.952  66.704  1.00  0.00    -0.115 C  
HETATM   17  O   UNL     1     -11.240   7.947  68.883  1.00  0.00    -0.404 OA 
HETATM   18  C   UNL     1      -9.233   6.375  68.962  1.00  0.00    -0.129 C  
HETATM   19  C   UNL     1      -9.773   5.146  69.989  1.00  0.00    -0.275 C  
HETATM   20  H   UNL     1     -11.289   7.552  68.019  1.00  0.00     0.000 HD 
HETATM   21  C   UNL     1      -9.038   3.791  69.670  1.00  0.00    -0.126 C  
HETATM   22  C   UNL     1      -9.136   3.434  68.184  1.00  0.00    -0.205 C  
HETATM   23 CL   UNL     1      -7.287   3.742  70.056  1.00  0.00    -0.042 Cl 
HETATM   24  C   UNL     1      -8.621   4.527  67.294  1.00  0.00    -0.104 C  
HETATM   25  C   UNL     1      -7.765   4.252  66.299  1.00  0.00    -0.094 C  
HETATM   26  C   UNL     1      -7.593   5.407  65.410  1.00  0.00    -0.079 C  
ENDROOT
BRANCH   4  27
HETATM   27  C   UNL     1     -12.173   8.265  71.525  1.00  0.00    -0.301 C  
HETATM   28  O   UNL     1     -11.913   9.478  71.606  1.00  0.00    -0.362 OA 
BRANCH  27  29
HETATM   29  C   UNL     1     -13.661   7.924  71.830  1.00  0.00    -0.342 C  
HETATM   30  O   UNL     1     -14.081   8.416  73.103  1.00  0.00    -0.660 OA 
HETATM   31  H   UNL     1     -14.989   8.208  73.290  1.00  0.00     0.000 HD 
ENDBRANCH  27  29
ENDBRANCH   4  27
TORSDOF 2
ENDMDL
MODEL       38
REMARK 921   NORMALIZED FREE ENERGY PREDICTED BY IDOCK:   -5.03 KCAL/MOL
REMARK 922        TOTAL FREE ENERGY PREDICTED BY IDOCK:   -4.97 KCAL/MOL
REMARK 923 INTER-LIGAND FREE ENERGY PREDICTED BY IDOCK:   -6.17 KCAL/MOL
REMARK 924 INTRA-LIGAND FREE ENERGY PREDICTED BY IDOCK:    1.20 KCAL/MOL
REMARK 927      BINDING AFFINITY PREDICTED BY RF-SCORE:    0.00 PKD
ROOT
HETATM    1  C   UNL     1      -7.518   7.436  68.984  1.00  0.00    -0.100 C  
HETATM    2  C   UNL     1      -7.499   7.832  70.322  1.00  0.00    -0.079 C  
HETATM    3  C   UNL     1      -8.850   7.702  69.708  1.00  0.00    -0.140 C  
HETATM    4  C   UNL     1      -8.911   6.441  68.045  1.00  0.00    -0.115 C  
HETATM    5  C   UNL     1      -9.437   8.616  71.022  1.00  0.00    -0.261 C  
HETATM    6  O   UNL     1      -7.628   5.937  67.472  1.00  0.00    -0.090 OA 
HETATM    7  O   UNL     1     -11.009  13.572  65.630  1.00  0.00    -0.287 OA 
HETATM    8  C   UNL     1      -8.990   6.195  69.392  1.00  0.00    -0.128 C  
HETATM    9  C   UNL     1     -10.735   6.708  68.990  1.00  0.00    -0.299 C  
HETATM   10  C   UNL     1      -8.504   4.998  70.129  1.00  0.00    -0.097 C  
HETATM   11  C   UNL     1     -11.466  12.337  67.657  1.00  0.00    -0.401 C  
HETATM   12  C   UNL     1      -9.890   9.950  65.356  1.00  0.00    -0.384 C  
HETATM   13  H   UNL     1      -7.656   5.364  66.716  1.00  0.00     0.000 HD 
HETATM   14  C   UNL     1     -10.760   8.009  67.764  1.00  0.00    -0.104 C  
HETATM   15  C   UNL     1      -9.902  10.443  66.800  1.00  0.00    -0.242 C  
HETATM   16  C   UNL     1     -11.272  11.097  67.216  1.00  0.00    -0.347 C  
HETATM   17  O   UNL     1     -10.702   7.359  66.497  1.00  0.00    -0.478 OA 
HETATM   18  C   UNL     1      -9.616   9.264  67.800  1.00  0.00    -0.167 C  
HETATM   19  C   UNL     1      -7.992   8.797  67.844  1.00  0.00    -0.107 C  
HETATM   20  H   UNL     1     -10.715   8.051  65.845  1.00  0.00     0.000 HD 
HETATM   21  C   UNL     1      -7.054  10.054  67.971  1.00  0.00    -0.081 C  
HETATM   22  C   UNL     1      -7.361  11.096  66.893  1.00  0.00    -0.138 C  
HETATM   23 CL   UNL     1      -7.143  10.941  69.529  1.00  0.00    -0.126 Cl 
HETATM   24  C   UNL     1      -8.802  11.520  66.895  1.00  0.00    -0.182 C  
HETATM   25  C   UNL     1      -9.133  12.819  66.861  1.00  0.00    -0.221 C  
HETATM   26  C   UNL     1     -10.568  12.996  66.614  1.00  0.00    -0.266 C  
ENDROOT
BRANCH   4  27
HETATM   27  C   UNL     1      -9.686   4.939  67.529  1.00  0.00    -0.164 C  
HETATM   28  O   UNL     1     -10.025   4.030  68.306  1.00  0.00    -0.047 OA 
BRANCH  27  29
HETATM   29  C   UNL     1      -9.897   4.589  66.027  1.00  0.00    -0.229 C  
HETATM   30  O   UNL     1     -11.252   4.772  65.612  1.00  0.00    -0.888 OA 
HETATM   31  H   UNL     1     -11.381   4.558  64.695  1.00  0.00     0.000 HD 
ENDBRANCH  27  29
ENDBRANCH   4  27
TORSDOF 2
ENDMDL
MODEL       39
REMARK 921   NORMALIZED FREE ENERGY PREDICTED BY IDOCK:   -5.01 KCAL/MOL
REMARK 922        TOTAL FREE ENERGY PREDICTED BY IDOCK:   -4.95 KCAL/MOL
REMARK 923 INTER-LIGAND FREE ENERGY PREDICTED BY IDOCK:   -5.56 KCAL/MOL
REMARK 924 INTRA-LIGAND FREE ENERGY PREDICTED BY IDOCK:    0.61 KCAL/MOL
REMARK 927      BINDING AFFINITY PREDICTED BY RF-SCORE:    0.00 PKD
ROOT
HETATM    1  C   UNL     1      -7.549  10.368  68.339  1.00  0.00    -0.093 C  
HETATM    2  C   UNL     1      -6.512   9.508  67.975  1.00  0.00    -0.061 C  
HETATM    3  C   UNL     1      -7.870   9.116  67.505  1.00  0.00    -0.100 C  
HETATM    4  C   UNL     1      -9.222  10.703  67.391  1.00  0.00    -0.143 C  
HETATM    5  C   UNL     1      -7.225   7.564  67.217  1.00  0.00    -0.086 C  
HETATM    6  O   UNL     1      -8.831  12.027  67.958  1.00  0.00    -0.165 OA 
HETATM    7  O   UNL     1     -12.052   5.610  72.601  1.00  0.00    -0.212 OA 
HETATM    8  C   UNL     1      -8.276  10.233  66.516  1.00  0.00    -0.127 C  
HETATM    9  C   UNL     1      -9.703   9.077  66.202  1.00  0.00    -0.354 C  
HETATM   10  C   UNL     1      -7.465  11.016  65.547  1.00  0.00     0.196 C  
HETATM   11  C   UNL     1     -10.896   5.318  70.498  1.00  0.00    -0.119 C  
HETATM   12  C   UNL     1     -11.705   8.893  70.718  1.00  0.00    -0.269 C  
HETATM   13  H   UNL     1      -9.446  12.749  67.907  1.00  0.00     0.000 HD 
HETATM   14  C   UNL     1     -10.572   8.696  67.718  1.00  0.00    -0.183 C  
HETATM   15  C   UNL     1     -10.605   7.899  70.355  1.00  0.00    -0.228 C  
HETATM   16  C   UNL     1     -11.163   6.491  69.928  1.00  0.00    -0.456 C  
HETATM   17  O   UNL     1     -11.517   9.746  67.905  1.00  0.00    -0.536 OA 
HETATM   18  C   UNL     1      -9.726   8.441  69.168  1.00  0.00    -0.171 C  
HETATM   19  C   UNL     1      -8.646   9.657  69.629  1.00  0.00    -0.196 C  
HETATM   20  H   UNL     1     -11.979   9.544  68.711  1.00  0.00     0.000 HD 
HETATM   21  C   UNL     1      -7.867   9.245  70.934  1.00  0.00    -0.113 C  
HETATM   22  C   UNL     1      -8.826   8.822  72.051  1.00  0.00    -0.191 C  
HETATM   23 CL   UNL     1      -6.712   7.883  70.757  1.00  0.00    -0.038 Cl 
HETATM   24  C   UNL     1      -9.752   7.719  71.627  1.00  0.00    -0.200 C  
HETATM   25  C   UNL     1      -9.930   6.640  72.403  1.00  0.00    -0.180 C  
HETATM   26  C   UNL     1     -11.052   5.822  71.929  1.00  0.00    -0.248 C  
ENDROOT
BRANCH   4  27
HETATM   27  C   UNL     1     -10.197  11.550  66.186  1.00  0.00    -0.232 C  
HETATM   28  O   UNL     1     -10.646  11.018  65.156  1.00  0.00    -0.277 OA 
BRANCH  27  29
HETATM   29  C   UNL     1     -10.471  13.081  66.267  1.00  0.00    -0.276 C  
HETATM   30  O   UNL     1      -9.392  13.854  65.739  1.00  0.00    -0.503 OA 
HETATM   31  H   UNL     1      -9.558  14.788  65.789  1.00  0.00     0.000 HD 
ENDBRANCH  27  29
ENDBRANCH   4  27
TORSDOF 2
ENDMDL
MODEL       40
REMARK 921   NORMALIZED FREE ENERGY PREDICTED BY IDOCK:   -5.01 KCAL/MOL
REMARK 922        TOTAL FREE ENERGY PREDICTED BY IDOCK:   -4.95 KCAL/MOL
REMARK 923 INTER-LIGAND FREE ENERGY PREDICTED BY IDOCK:   -5.64 KCAL/MOL
REMARK 924 INTRA-LIGAND FREE ENERGY PREDICTED BY IDOCK:    0.69 KCAL/MOL
REMARK 927      BINDING AFFINITY PREDICTED BY RF-SCORE:    0.00 PKD
ROOT
HETATM    1  C   UNL     1      -7.983  11.454  67.884  1.00  0.00    -0.120 C  
HETATM    2  C   UNL     1      -7.108  11.496  66.796  1.00  0.00    -0.112 C  
HETATM    3  C   UNL     1      -8.481  10.997  66.501  1.00  0.00    -0.161 C  
HETATM    4  C   UNL     1      -9.928  11.625  67.870  1.00  0.00    -0.182 C  
HETATM    5  C   UNL     1      -7.844  10.370  65.049  1.00  0.00    -0.109 C  
HETATM    6  O   UNL     1      -9.490  12.324  69.114  1.00  0.00    -0.321 OA 
HETATM    7  O   UNL     1      -9.635   3.822  68.216  1.00  0.00    -0.164 OA 
HETATM    8  C   UNL     1      -9.399  12.216  66.751  1.00  0.00    -0.212 C  
HETATM    9  C   UNL     1     -10.676  11.073  66.019  1.00  0.00    -0.242 C  
HETATM   10  C   UNL     1      -9.179  13.665  66.505  1.00  0.00    -0.195 C  
HETATM   11  C   UNL     1      -9.466   5.380  66.375  1.00  0.00    -0.164 C  
HETATM   12  C   UNL     1     -10.516   7.363  69.282  1.00  0.00    -0.222 C  
HETATM   13  H   UNL     1     -10.148  12.610  69.737  1.00  0.00     0.000 HD 
HETATM   14  C   UNL     1     -10.762   9.534  66.926  1.00  0.00    -0.114 C  
HETATM   15  C   UNL     1      -9.569   7.338  68.085  1.00  0.00    -0.145 C  
HETATM   16  C   UNL     1     -10.086   6.429  66.909  1.00  0.00    -0.244 C  
HETATM   17  O   UNL     1     -11.652   9.767  68.015  1.00  0.00    -0.535 OA 
HETATM   18  C   UNL     1      -9.353   8.785  67.507  1.00  0.00    -0.161 C  
HETATM   19  C   UNL     1      -8.331   9.742  68.454  1.00  0.00    -0.110 C  
HETATM   20  H   UNL     1     -11.698   8.949  68.497  1.00  0.00     0.000 HD 
HETATM   21  C   UNL     1      -7.026   8.951  68.840  1.00  0.00    -0.065 C  
HETATM   22  C   UNL     1      -7.357   7.597  69.475  1.00  0.00    -0.086 C  
HETATM   23 CL   UNL     1      -5.907   8.580  67.487  1.00  0.00    -0.043 Cl 
HETATM   24  C   UNL     1      -8.239   6.752  68.603  1.00  0.00    -0.120 C  
HETATM   25  C   UNL     1      -7.940   5.466  68.369  1.00  0.00    -0.088 C  
HETATM   26  C   UNL     1      -9.052   4.771  67.712  1.00  0.00    -0.116 C  
ENDROOT
BRANCH   4  27
HETATM   27  C   UNL     1     -11.417  12.575  67.906  1.00  0.00    -0.315 C  
HETATM   28  O   UNL     1     -12.146  12.761  66.916  1.00  0.00    -0.444 OA 
BRANCH  27  29
HETATM   29  C   UNL     1     -11.870  13.360  69.172  1.00  0.00    -0.336 C  
HETATM   30  O   UNL     1     -11.872  12.543  70.344  1.00  0.00    -0.516 OA 
HETATM   31  H   UNL     1     -12.149  13.022  71.117  1.00  0.00     0.000 HD 
ENDBRANCH  27  29
ENDBRANCH   4  27
TORSDOF 2
ENDMDL
MODEL       41
REMARK 921   NORMALIZED FREE ENERGY PREDICTED BY IDOCK:   -5.00 KCAL/MOL
REMARK 922        TOTAL FREE ENERGY PREDICTED BY IDOCK:   -4.94 KCAL/MOL
REMARK 923 INTER-LIGAND FREE ENERGY PREDICTED BY IDOCK:   -5.60 KCAL/MOL
REMARK 924 INTRA-LIGAND FREE ENERGY PREDICTED BY IDOCK:    0.66 KCAL/MOL
REMARK 927      BINDING AFFINITY PREDICTED BY RF-SCORE:    0.00 PKD
ROOT
HETATM    1  C   UNL     1      -9.631   8.861  71.773  1.00  0.00    -0.353 C  
HETATM    2  C   UNL     1      -8.739   9.069  70.720  1.00  0.00    -0.269 C  
HETATM    3  C   UNL     1      -9.588   7.849  70.615  1.00  0.00    -0.167 C  
HETATM    4  C   UNL     1     -11.353   7.942  71.726  1.00  0.00    -0.264 C  
HETATM    5  C   UNL     1      -8.490   7.297  69.433  1.00  0.00    -0.133 C  
HETATM    6  O   UNL     1     -11.550   9.076  72.677  1.00  0.00    -0.049 OA 
HETATM    7  O   UNL     1      -7.143   1.990  74.545  1.00  0.00    -0.026 OA 
HETATM    8  C   UNL     1     -11.029   8.390  70.471  1.00  0.00    -0.258 C  
HETATM    9  C   UNL     1     -11.394   6.591  70.157  1.00  0.00    -0.463 C  
HETATM   10  C   UNL     1     -11.550   9.595  69.773  1.00  0.00    -0.022 C  
HETATM   11  C   UNL     1      -7.501   2.816  72.301  1.00  0.00    -0.051 C  
HETATM   12  C   UNL     1      -9.883   4.621  74.432  1.00  0.00    -0.196 C  
HETATM   13  H   UNL     1     -12.352   9.118  73.183  1.00  0.00     0.000 HD 
HETATM   14  C   UNL     1     -10.822   5.570  71.509  1.00  0.00    -0.194 C  
HETATM   15  C   UNL     1      -8.878   4.786  73.296  1.00  0.00    -0.107 C  
HETATM   16  C   UNL     1      -8.651   3.461  72.478  1.00  0.00    -0.091 C  
HETATM   17  O   UNL     1     -11.870   5.572  72.476  1.00  0.00    -0.292 OA 
HETATM   18  C   UNL     1      -9.347   5.895  72.284  1.00  0.00    -0.152 C  
HETATM   19  C   UNL     1      -9.135   7.469  72.864  1.00  0.00    -0.211 C  
HETATM   20  H   UNL     1     -11.566   5.029  73.195  1.00  0.00     0.000 HD 
HETATM   21  C   UNL     1      -7.694   7.651  73.469  1.00  0.00    -0.121 C  
HETATM   22  C   UNL     1      -7.379   6.569  74.507  1.00  0.00    -0.099 C  
HETATM   23 CL   UNL     1      -6.339   7.590  72.294  1.00  0.00    -0.043 Cl 
HETATM   24  C   UNL     1      -7.542   5.181  73.960  1.00  0.00    -0.094 C  
HETATM   25  C   UNL     1      -6.589   4.256  74.146  1.00  0.00    -0.053 C  
HETATM   26  C   UNL     1      -7.059   2.922  73.758  1.00  0.00    -0.037 C  
ENDROOT
BRANCH   4  27
HETATM   27  C   UNL     1     -13.101   7.902  71.473  1.00  0.00    -0.311 C  
HETATM   28  O   UNL     1     -13.682   7.054  70.774  1.00  0.00     0.067 OA 
BRANCH  27  29
HETATM   29  C   UNL     1     -14.044   9.014  72.018  1.00  0.00    -0.368 C  
HETATM   30  O   UNL     1     -14.246   8.911  73.428  1.00  0.00    -1.241 OA 
HETATM   31  H   UNL     1     -14.821   9.590  73.761  1.00  0.00     0.000 HD 
ENDBRANCH  27  29
ENDBRANCH   4  27
TORSDOF 2
ENDMDL
MODEL       42
REMARK 921   NORMALIZED FREE ENERGY PREDICTED BY IDOCK:   -4.90 KCAL/MOL
REMARK 922        TOTAL FREE ENERGY PREDICTED BY IDOCK:   -4.82 KCAL/MOL
REMARK 923 INTER-LIGAND FREE ENERGY PREDICTED BY IDOCK:   -5.51 KCAL/MOL
REMARK 924 INTRA-LIGAND FREE ENERGY PREDICTED BY IDOCK:    0.69 KCAL/MOL
REMARK 927      BINDING AFFINITY PREDICTED BY RF-SCORE:    0.00 PKD
ROOT
HETATM    1  C   UNL     1      -8.007   7.269  66.435  1.00  0.00    -0.112 C  
HETATM    2  C   UNL     1      -6.689   7.652  66.691  1.00  0.00    -0.062 C  
HETATM    3  C   UNL     1      -7.147   6.414  67.382  1.00  0.00    -0.077 C  
HETATM    4  C   UNL     1      -8.761   5.468  66.454  1.00  0.00    -0.123 C  
HETATM    5  C   UNL     1      -5.800   6.598  68.411  1.00  0.00    -0.021 C  
HETATM    6  O   UNL     1      -9.459   6.164  65.333  1.00  0.00    -0.360 OA 
HETATM    7  O   UNL     1     -11.109   7.588  73.601  1.00  0.00    -0.280 OA 
HETATM    8  C   UNL     1      -7.407   5.405  66.240  1.00  0.00    -0.082 C  
HETATM    9  C   UNL     1      -7.627   4.237  67.673  1.00  0.00    -0.073 C  
HETATM   10  C   UNL     1      -6.699   5.194  64.950  1.00  0.00    -0.048 C  
HETATM   11  C   UNL     1      -9.013   6.722  72.763  1.00  0.00    -0.139 C  
HETATM   12  C   UNL     1     -11.413   6.397  70.004  1.00  0.00    -0.496 C  
HETATM   13  H   UNL     1     -10.192   5.734  64.911  1.00  0.00     0.000 HD 
HETATM   14  C   UNL     1      -8.875   4.832  68.807  1.00  0.00    -0.098 C  
HETATM   15  C   UNL     1      -9.990   6.821  70.354  1.00  0.00    -0.193 C  
HETATM   16  C   UNL     1      -9.442   6.124  71.655  1.00  0.00    -0.160 C  
HETATM   17  O   UNL     1     -10.124   4.375  68.295  1.00  0.00    -0.049 OA 
HETATM   18  C   UNL     1      -8.997   6.484  69.182  1.00  0.00    -0.130 C  
HETATM   19  C   UNL     1      -9.121   7.543  67.869  1.00  0.00    -0.130 C  
HETATM   20  H   UNL     1     -10.788   4.691  68.898  1.00  0.00     0.000 HD 
HETATM   21  C   UNL     1      -9.130   9.038  68.359  1.00  0.00    -0.133 C  
HETATM   22  C   UNL     1     -10.194   9.271  69.435  1.00  0.00    -0.214 C  
HETATM   23 CL   UNL     1      -7.595   9.637  69.070  1.00  0.00    -0.074 Cl 
HETATM   24  C   UNL     1     -10.044   8.342  70.604  1.00  0.00    -0.220 C  
HETATM   25  C   UNL     1     -10.074   8.812  71.860  1.00  0.00    -0.409 C  
HETATM   26  C   UNL     1     -10.165   7.720  72.835  1.00  0.00    -0.315 C  
ENDROOT
BRANCH   4  27
HETATM   27  C   UNL     1      -9.150   3.925  65.687  1.00  0.00    -0.144 C  
HETATM   28  O   UNL     1      -8.525   2.870  65.893  1.00  0.00    -0.102 OA 
BRANCH  27  29
HETATM   29  C   UNL     1     -10.247   3.798  64.590  1.00  0.00    -0.180 C  
HETATM   30  O   UNL     1     -11.490   4.374  64.996  1.00  0.00    -1.090 OA 
HETATM   31  H   UNL     1     -12.160   4.296  64.327  1.00  0.00     0.000 HD 
ENDBRANCH  27  29
ENDBRANCH   4  27
TORSDOF 2
ENDMDL
MODEL       43
REMARK 921   NORMALIZED FREE ENERGY PREDICTED BY IDOCK:   -4.87 KCAL/MOL
REMARK 922        TOTAL FREE ENERGY PREDICTED BY IDOCK:   -4.80 KCAL/MOL
REMARK 923 INTER-LIGAND FREE ENERGY PREDICTED BY IDOCK:   -5.43 KCAL/MOL
REMARK 924 INTRA-LIGAND FREE ENERGY PREDICTED BY IDOCK:    0.64 KCAL/MOL
REMARK 927      BINDING AFFINITY PREDICTED BY RF-SCORE:    0.00 PKD
ROOT
HETATM    1  C   UNL     1      -7.773  10.103  68.626  1.00  0.00    -0.092 C  
HETATM    2  C   UNL     1      -6.799  10.580  67.747  1.00  0.00    -0.073 C  
HETATM    3  C   UNL     1      -8.046  10.068  67.112  1.00  0.00    -0.117 C  
HETATM    4  C   UNL     1      -9.710  10.076  68.374  1.00  0.00    -0.146 C  
HETATM    5  C   UNL     1      -7.171  10.008  65.650  1.00  0.00    -0.120 C  
HETATM    6  O   UNL     1      -9.515  10.378  69.823  1.00  0.00    -0.389 OA 
HETATM    7  O   UNL     1      -8.356   2.646  66.361  1.00  0.00    -0.084 OA 
HETATM    8  C   UNL     1      -9.150  11.045  67.581  1.00  0.00    -0.145 C  
HETATM    9  C   UNL     1     -10.164  10.077  66.354  1.00  0.00    -0.290 C  
HETATM   10  C   UNL     1      -9.111  12.511  67.825  1.00  0.00    -0.191 C  
HETATM   11  C   UNL     1      -8.206   4.722  65.131  1.00  0.00    -0.121 C  
HETATM   12  C   UNL     1      -9.841   5.550  68.312  1.00  0.00    -0.185 C  
HETATM   13  H   UNL     1     -10.271  10.381  70.398  1.00  0.00     0.000 HD 
HETATM   14  C   UNL     1     -10.130   8.328  66.724  1.00  0.00    -0.303 C  
HETATM   15  C   UNL     1      -8.774   6.005  67.321  1.00  0.00    -0.105 C  
HETATM   16  C   UNL     1      -9.024   5.477  65.860  1.00  0.00    -0.158 C  
HETATM   17  O   UNL     1     -11.159   8.108  67.686  1.00  0.00    -0.492 OA 
HETATM   18  C   UNL     1      -8.702   7.575  67.252  1.00  0.00    -0.121 C  
HETATM   19  C   UNL     1      -7.936   8.274  68.587  1.00  0.00    -0.122 C  
HETATM   20  H   UNL     1     -11.141   7.179  67.882  1.00  0.00     0.000 HD 
HETATM   21  C   UNL     1      -6.584   7.534  68.904  1.00  0.00    -0.048 C  
HETATM   22  C   UNL     1      -6.788   6.022  69.038  1.00  0.00    -0.062 C  
HETATM   23 CL   UNL     1      -5.281   7.732  67.686  1.00  0.00    -0.030 Cl 
HETATM   24  C   UNL     1      -7.440   5.420  67.828  1.00  0.00    -0.080 C  
HETATM   25  C   UNL     1      -6.937   4.313  67.260  1.00  0.00    -0.063 C  
HETATM   26  C   UNL     1      -7.861   3.760  66.264  1.00  0.00    -0.089 C  
ENDROOT
BRANCH   4  27
HETATM   27  C   UNL     1     -11.313  10.811  68.475  1.00  0.00    -0.295 C  
HETATM   28  O   UNL     1     -11.946  11.234  67.493  1.00  0.00    -0.612 OA 
BRANCH  27  29
HETATM   29  C   UNL     1     -12.010  11.095  69.838  1.00  0.00    -0.363 C  
HETATM   30  O   UNL     1     -11.696  12.391  70.349  1.00  0.00    -0.534 OA 
HETATM   31  H   UNL     1     -12.122  12.564  71.181  1.00  0.00     0.000 HD 
ENDBRANCH  27  29
ENDBRANCH   4  27
TORSDOF 2
ENDMDL
MODEL       44
REMARK 921   NORMALIZED FREE ENERGY PREDICTED BY IDOCK:   -4.86 KCAL/MOL
REMARK 922        TOTAL FREE ENERGY PREDICTED BY IDOCK:   -4.79 KCAL/MOL
REMARK 923 INTER-LIGAND FREE ENERGY PREDICTED BY IDOCK:   -5.44 KCAL/MOL
REMARK 924 INTRA-LIGAND FREE ENERGY PREDICTED BY IDOCK:    0.65 KCAL/MOL
REMARK 927      BINDING AFFINITY PREDICTED BY RF-SCORE:    0.00 PKD
ROOT
HETATM    1  C   UNL     1     -10.703   7.940  67.848  1.00  0.00    -0.147 C  
HETATM    2  C   UNL     1     -10.378   9.256  68.182  1.00  0.00    -0.261 C  
HETATM    3  C   UNL     1      -9.260   8.275  68.265  1.00  0.00    -0.135 C  
HETATM    4  C   UNL     1      -9.535   6.568  67.093  1.00  0.00    -0.131 C  
HETATM    5  C   UNL     1      -8.429   9.436  69.197  1.00  0.00    -0.134 C  
HETATM    6  O   UNL     1     -10.859   6.346  66.441  1.00  0.00    -0.520 OA 
HETATM    7  O   UNL     1      -9.108   4.229  74.538  1.00  0.00    -0.099 OA 
HETATM    8  C   UNL     1      -9.038   7.814  66.805  1.00  0.00    -0.185 C  
HETATM    9  C   UNL     1      -7.561   6.975  67.570  1.00  0.00    -0.109 C  
HETATM   10  C   UNL     1      -9.140   8.561  65.524  1.00  0.00    -0.150 C  
HETATM   11  C   UNL     1      -7.934   5.939  73.297  1.00  0.00    -0.109 C  
HETATM   12  C   UNL     1      -9.814   3.998  70.811  1.00  0.00    -0.233 C  
HETATM   13  H   UNL     1     -10.985   5.570  65.909  1.00  0.00     0.000 HD 
HETATM   14  C   UNL     1      -8.052   5.899  68.912  1.00  0.00    -0.103 C  
HETATM   15  C   UNL     1      -9.440   5.414  71.242  1.00  0.00    -0.191 C  
HETATM   16  C   UNL     1      -8.098   5.474  72.061  1.00  0.00    -0.115 C  
HETATM   17  O   UNL     1      -8.399   4.653  68.312  1.00  0.00    -0.090 OA 
HETATM   18  C   UNL     1      -9.277   6.358  69.994  1.00  0.00    -0.159 C  
HETATM   19  C   UNL     1     -10.749   6.824  69.306  1.00  0.00    -0.288 C  
HETATM   20  H   UNL     1      -8.659   4.082  69.025  1.00  0.00     0.000 HD 
HETATM   21  C   UNL     1     -11.754   7.311  70.415  1.00  0.00    -0.182 C  
HETATM   22  C   UNL     1     -11.903   6.275  71.533  1.00  0.00    -0.291 C  
HETATM   23 CL   UNL     1     -11.322   8.844  71.241  1.00  0.00    -0.342 Cl 
HETATM   24  C   UNL     1     -10.586   5.902  72.151  1.00  0.00    -0.264 C  
HETATM   25  C   UNL     1     -10.438   5.878  73.484  1.00  0.00    -0.274 C  
HETATM   26  C   UNL     1      -9.170   5.249  73.867  1.00  0.00    -0.125 C  
ENDROOT
BRANCH   4  27
HETATM   27  C   UNL     1      -8.770   5.737  65.735  1.00  0.00    -0.151 C  
HETATM   28  O   UNL     1      -7.681   6.073  65.239  1.00  0.00    -0.083 OA 
BRANCH  27  29
HETATM   29  C   UNL     1      -9.472   4.575  64.973  1.00  0.00    -0.152 C  
HETATM   30  O   UNL     1     -10.065   3.624  65.859  1.00  0.00    -0.414 OA 
HETATM   31  H   UNL     1     -10.493   2.915  65.394  1.00  0.00     0.000 HD 
ENDBRANCH  27  29
ENDBRANCH   4  27
TORSDOF 2
ENDMDL
MODEL       45
REMARK 921   NORMALIZED FREE ENERGY PREDICTED BY IDOCK:   -4.83 KCAL/MOL
REMARK 922        TOTAL FREE ENERGY PREDICTED BY IDOCK:   -4.75 KCAL/MOL
REMARK 923 INTER-LIGAND FREE ENERGY PREDICTED BY IDOCK:   -5.36 KCAL/MOL
REMARK 924 INTRA-LIGAND FREE ENERGY PREDICTED BY IDOCK:    0.61 KCAL/MOL
REMARK 927      BINDING AFFINITY PREDICTED BY RF-SCORE:    0.00 PKD
ROOT
HETATM    1  C   UNL     1      -8.514   6.129  69.542  1.00  0.00    -0.120 C  
HETATM    2  C   UNL     1      -9.420   6.005  70.597  1.00  0.00    -0.190 C  
HETATM    3  C   UNL     1     -10.023   6.179  69.246  1.00  0.00    -0.196 C  
HETATM    4  C   UNL     1      -8.767   5.620  67.674  1.00  0.00    -0.107 C  
HETATM    5  C   UNL     1     -11.476   6.578  70.044  1.00  0.00    -0.476 C  
HETATM    6  O   UNL     1      -7.341   5.296  67.970  1.00  0.00    -0.070 OA 
HETATM    7  O   UNL     1     -10.294  13.238  66.827  1.00  0.00    -0.253 OA 
HETATM    8  C   UNL     1      -9.620   4.902  68.473  1.00  0.00    -0.210 C  
HETATM    9  C   UNL     1     -10.785   5.615  67.206  1.00  0.00    -0.299 C  
HETATM   10  C   UNL     1      -9.471   3.495  68.931  1.00  0.00    -0.210 C  
HETATM   11  C   UNL     1     -11.655  11.372  67.540  1.00  0.00    -0.298 C  
HETATM   12  C   UNL     1      -8.537   9.916  66.261  1.00  0.00    -0.137 C  
HETATM   13  H   UNL     1      -6.769   5.041  67.256  1.00  0.00     0.000 HD 
HETATM   14  C   UNL     1     -10.302   7.275  66.748  1.00  0.00    -0.241 C  
HETATM   15  C   UNL     1      -9.554   9.846  67.397  1.00  0.00    -0.185 C  
HETATM   16  C   UNL     1     -10.978  10.371  66.983  1.00  0.00    -0.222 C  
HETATM   17  O   UNL     1      -9.330   7.132  65.715  1.00  0.00    -0.387 OA 
HETATM   18  C   UNL     1      -9.724   8.369  67.911  1.00  0.00    -0.189 C  
HETATM   19  C   UNL     1      -8.435   7.835  68.866  1.00  0.00    -0.129 C  
HETATM   20  H   UNL     1      -9.074   8.014  65.470  1.00  0.00     0.000 HD 
HETATM   21  C   UNL     1      -8.068   8.908  69.957  1.00  0.00    -0.116 C  
HETATM   22  C   UNL     1      -7.837  10.287  69.334  1.00  0.00    -0.157 C  
HETATM   23 CL   UNL     1      -9.294   9.166  71.242  1.00  0.00    -0.319 Cl 
HETATM   24  C   UNL     1      -9.007  10.754  68.518  1.00  0.00    -0.160 C  
HETATM   25  C   UNL     1      -9.502  11.991  68.676  1.00  0.00    -0.069 C  
HETATM   26  C   UNL     1     -10.462  12.320  67.617  1.00  0.00    -0.214 C  
ENDROOT
BRANCH   4  27
HETATM   27  C   UNL     1      -8.717   4.454  66.348  1.00  0.00    -0.112 C  
HETATM   28  O   UNL     1      -9.728   3.966  65.813  1.00  0.00    -0.180 OA 
BRANCH  27  29
HETATM   29  C   UNL     1      -7.381   3.852  65.823  1.00  0.00    -0.073 C  
HETATM   30  O   UNL     1      -6.897   2.796  66.655  1.00  0.00    -0.046 OA 
HETATM   31  H   UNL     1      -6.082   2.428  66.335  1.00  0.00     0.000 HD 
ENDBRANCH  27  29
ENDBRANCH   4  27
TORSDOF 2
ENDMDL
MODEL       46
REMARK 921   NORMALIZED FREE ENERGY PREDICTED BY IDOCK:   -4.75 KCAL/MOL
REMARK 922        TOTAL FREE ENERGY PREDICTED BY IDOCK:   -4.66 KCAL/MOL
REMARK 923 INTER-LIGAND FREE ENERGY PREDICTED BY IDOCK:   -5.35 KCAL/MOL
REMARK 924 INTRA-LIGAND FREE ENERGY PREDICTED BY IDOCK:    0.69 KCAL/MOL
REMARK 927      BINDING AFFINITY PREDICTED BY RF-SCORE:    0.00 PKD
ROOT
HETATM    1  C   UNL     1      -7.603   9.726  68.835  1.00  0.00    -0.081 C  
HETATM    2  C   UNL     1      -6.411   9.744  68.109  1.00  0.00    -0.056 C  
HETATM    3  C   UNL     1      -7.619   9.304  67.355  1.00  0.00    -0.088 C  
HETATM    4  C   UNL     1      -9.421   9.977  68.167  1.00  0.00    -0.138 C  
HETATM    5  C   UNL     1      -6.549   8.667  66.190  1.00  0.00    -0.061 C  
HETATM    6  O   UNL     1      -9.408  10.644  69.502  1.00  0.00    -0.388 OA 
HETATM    7  O   UNL     1      -9.534   2.165  68.407  1.00  0.00    -0.193 OA 
HETATM    8  C   UNL     1      -8.524  10.557  67.307  1.00  0.00    -0.122 C  
HETATM    9  C   UNL     1      -9.516   9.475  66.160  1.00  0.00    -0.281 C  
HETATM   10  C   UNL     1      -8.183  11.999  67.185  1.00  0.00    -0.181 C  
HETATM   11  C   UNL     1      -8.697   3.734  66.770  1.00  0.00    -0.120 C  
HETATM   12  C   UNL     1     -10.601   5.727  69.195  1.00  0.00    -0.365 C  
HETATM   13  H   UNL     1     -10.227  10.950  69.872  1.00  0.00     0.000 HD 
HETATM   14  C   UNL     1      -9.957   7.931  66.948  1.00  0.00    -0.262 C  
HETATM   15  C   UNL     1      -9.306   5.676  68.390  1.00  0.00    -0.133 C  
HETATM   16  C   UNL     1      -9.424   4.802  67.087  1.00  0.00    -0.164 C  
HETATM   17  O   UNL     1     -11.156   8.189  67.676  1.00  0.00    -0.492 OA 
HETATM   18  C   UNL     1      -8.857   7.119  67.953  1.00  0.00    -0.124 C  
HETATM   19  C   UNL     1      -8.183   8.024  69.212  1.00  0.00    -0.127 C  
HETATM   20  H   UNL     1     -11.391   7.368  68.094  1.00  0.00     0.000 HD 
HETATM   21  C   UNL     1      -7.116   7.176  69.999  1.00  0.00    -0.066 C  
HETATM   22  C   UNL     1      -7.689   5.831  70.452  1.00  0.00    -0.095 C  
HETATM   23 CL   UNL     1      -5.617   6.775  69.097  1.00  0.00    -0.017 Cl 
HETATM   24  C   UNL     1      -8.252   5.032  69.313  1.00  0.00    -0.083 C  
HETATM   25  C   UNL     1      -7.935   3.737  69.164  1.00  0.00    -0.059 C  
HETATM   26  C   UNL     1      -8.782   3.095  68.153  1.00  0.00    -0.107 C  
ENDROOT
BRANCH   4  27
HETATM   27  C   UNL     1     -10.800  10.986  67.719  1.00  0.00    -0.249 C  
HETATM   28  O   UNL     1     -10.978  11.455  66.581  1.00  0.00    -0.281 OA 
BRANCH  27  29
HETATM   29  C   UNL     1     -11.849  11.468  68.764  1.00  0.00    -0.330 C  
HETATM   30  O   UNL     1     -12.577  10.383  69.342  1.00  0.00    -0.687 OA 
HETATM   31  H   UNL     1     -13.217  10.677  69.980  1.00  0.00     0.000 HD 
ENDBRANCH  27  29
ENDBRANCH   4  27
TORSDOF 2
ENDMDL
MODEL       47
REMARK 921   NORMALIZED FREE ENERGY PREDICTED BY IDOCK:   -4.61 KCAL/MOL
REMARK 922        TOTAL FREE ENERGY PREDICTED BY IDOCK:   -4.50 KCAL/MOL
REMARK 923 INTER-LIGAND FREE ENERGY PREDICTED BY IDOCK:   -5.11 KCAL/MOL
REMARK 924 INTRA-LIGAND FREE ENERGY PREDICTED BY IDOCK:    0.61 KCAL/MOL
REMARK 927      BINDING AFFINITY PREDICTED BY RF-SCORE:    0.00 PKD
ROOT
HETATM    1  C   UNL     1     -10.209   8.594  72.405  1.00  0.00    -0.319 C  
HETATM    2  C   UNL     1     -11.566   8.284  72.302  1.00  0.00    -0.449 C  
HETATM    3  C   UNL     1     -10.630   7.294  71.697  1.00  0.00    -0.228 C  
HETATM    4  C   UNL     1      -8.696   7.361  72.483  1.00  0.00    -0.123 C  
HETATM    5  C   UNL     1     -11.977   6.666  70.862  1.00  0.00    -0.413 C  
HETATM    6  O   UNL     1      -8.328   8.477  73.403  1.00  0.00    -0.374 OA 
HETATM    7  O   UNL     1      -8.174   9.074  64.875  1.00  0.00    -0.135 OA 
HETATM    8  C   UNL     1      -9.839   6.725  72.898  1.00  0.00    -0.184 C  
HETATM    9  C   UNL     1      -9.201   5.562  71.590  1.00  0.00    -0.159 C  
HETATM   10  C   UNL     1     -10.264   6.435  74.292  1.00  0.00    -0.362 C  
HETATM   11  C   UNL     1      -9.542   7.504  66.102  1.00  0.00    -0.056 C  
HETATM   12  C   UNL     1      -7.073   8.781  68.501  1.00  0.00    -0.073 C  
HETATM   13  H   UNL     1      -7.449   8.508  73.760  1.00  0.00     0.000 HD 
HETATM   14  C   UNL     1      -8.472   6.459  70.226  1.00  0.00    -0.135 C  
HETATM   15  C   UNL     1      -8.550   8.443  68.316  1.00  0.00    -0.139 C  
HETATM   16  C   UNL     1      -8.799   7.364  67.198  1.00  0.00    -0.126 C  
HETATM   17  O   UNL     1      -7.120   6.716  70.600  1.00  0.00    -0.065 OA 
HETATM   18  C   UNL     1      -9.174   7.894  69.651  1.00  0.00    -0.153 C  
HETATM   19  C   UNL     1      -9.467   9.098  70.802  1.00  0.00    -0.334 C  
HETATM   20  H   UNL     1      -6.733   7.192  69.875  1.00  0.00     0.000 HD 
HETATM   21  C   UNL     1     -10.203  10.326  70.148  1.00  0.00    -0.093 C  
HETATM   22  C   UNL     1      -9.460  10.833  68.909  1.00  0.00    -0.190 C  
HETATM   23 CL   UNL     1     -11.887  10.029  69.605  1.00  0.00    -0.105 Cl 
HETATM   24  C   UNL     1      -9.240   9.754  67.889  1.00  0.00    -0.133 C  
HETATM   25  C   UNL     1      -9.530   9.967  66.596  1.00  0.00    -0.220 C  
HETATM   26  C   UNL     1      -9.008   8.889  65.750  1.00  0.00    -0.203 C  
ENDROOT
BRANCH   4  27
HETATM   27  C   UNL     1      -7.567   6.320  73.356  1.00  0.00    -0.095 C  
HETATM   28  O   UNL     1      -7.435   5.103  73.140  1.00  0.00    -0.089 OA 
BRANCH  27  29
HETATM   29  C   UNL     1      -6.726   6.835  74.560  1.00  0.00    -0.091 C  
HETATM   30  O   UNL     1      -5.736   7.785  74.163  1.00  0.00    -0.066 OA 
HETATM   31  H   UNL     1      -5.222   8.100  74.898  1.00  0.00     0.000 HD 
ENDBRANCH  27  29
ENDBRANCH   4  27
TORSDOF 2
ENDMDL
MODEL       48
REMARK 921   NORMALIZED FREE ENERGY PREDICTED BY IDOCK:   -4.59 KCAL/MOL
REMARK 922        TOTAL FREE ENERGY PREDICTED BY IDOCK:   -4.48 KCAL/MOL
REMARK 923 INTER-LIGAND FREE ENERGY PREDICTED BY IDOCK:   -5.08 KCAL/MOL
REMARK 924 INTRA-LIGAND FREE ENERGY PREDICTED BY IDOCK:    0.60 KCAL/MOL
REMARK 927      BINDING AFFINITY PREDICTED BY RF-SCORE:    0.00 PKD
ROOT
HETATM    1  C   UNL     1      -8.259   9.601  65.827  1.00  0.00    -0.120 C  
HETATM    2  C   UNL     1      -7.346  10.594  66.186  1.00  0.00    -0.138 C  
HETATM    3  C   UNL     1      -7.169   9.279  66.864  1.00  0.00    -0.086 C  
HETATM    4  C   UNL     1      -7.992   7.666  65.823  1.00  0.00    -0.116 C  
HETATM    5  C   UNL     1      -6.195  10.097  68.000  1.00  0.00    -0.056 C  
HETATM    6  O   UNL     1      -8.848   7.938  64.631  1.00  0.00    -0.371 OA 
HETATM    7  O   UNL     1     -11.694   8.131  72.691  1.00  0.00    -0.399 OA 
HETATM    8  C   UNL     1      -6.782   8.304  65.727  1.00  0.00    -0.053 C  
HETATM    9  C   UNL     1      -6.500   7.153  67.164  1.00  0.00    -0.057 C  
HETATM   10  C   UNL     1      -5.957   8.512  64.508  1.00  0.00    -0.065 C  
HETATM   11  C   UNL     1      -9.386   8.470  72.057  1.00  0.00    -0.353 C  
HETATM   12  C   UNL     1     -11.042   7.036  69.111  1.00  0.00    -0.143 C  
HETATM   13  H   UNL     1      -9.222   7.205  64.157  1.00  0.00     0.000 HD 
HETATM   14  C   UNL     1      -7.969   7.005  68.172  1.00  0.00    -0.119 C  
HETATM   15  C   UNL     1     -10.067   8.115  69.571  1.00  0.00    -0.193 C  
HETATM   16  C   UNL     1      -9.355   7.763  70.930  1.00  0.00    -0.157 C  
HETATM   17  O   UNL     1      -8.764   5.989  67.565  1.00  0.00    -0.110 OA 
HETATM   18  C   UNL     1      -8.945   8.357  68.496  1.00  0.00    -0.136 C  
HETATM   19  C   UNL     1      -9.476   9.236  67.154  1.00  0.00    -0.191 C  
HETATM   20  H   UNL     1      -9.544   5.910  68.102  1.00  0.00     0.000 HD 
HETATM   21  C   UNL     1     -10.285  10.508  67.606  1.00  0.00    -0.197 C  
HETATM   22  C   UNL     1     -11.408  10.143  68.581  1.00  0.00    -0.172 C  
HETATM   23 CL   UNL     1      -9.335  11.786  68.432  1.00  0.00    -0.194 Cl 
HETATM   24  C   UNL     1     -10.907   9.392  69.780  1.00  0.00    -0.250 C  
HETATM   25  C   UNL     1     -11.280   9.752  71.017  1.00  0.00    -0.451 C  
HETATM   26  C   UNL     1     -10.887   8.742  72.006  1.00  0.00    -0.358 C  
ENDROOT
BRANCH   4  27
HETATM   27  C   UNL     1      -7.476   6.158  65.062  1.00  0.00    -0.082 C  
HETATM   28  O   UNL     1      -6.540   5.454  65.479  1.00  0.00    -0.039 OA 
BRANCH  27  29
HETATM   29  C   UNL     1      -8.090   5.652  63.724  1.00  0.00    -0.120 C  
HETATM   30  O   UNL     1      -9.383   5.072  63.905  1.00  0.00    -0.355 OA 
HETATM   31  H   UNL     1      -9.758   4.763  63.088  1.00  0.00     0.000 HD 
ENDBRANCH  27  29
ENDBRANCH   4  27
TORSDOF 2
ENDMDL
MODEL       49
REMARK 921   NORMALIZED FREE ENERGY PREDICTED BY IDOCK:   -4.48 KCAL/MOL
REMARK 922        TOTAL FREE ENERGY PREDICTED BY IDOCK:   -4.36 KCAL/MOL
REMARK 923 INTER-LIGAND FREE ENERGY PREDICTED BY IDOCK:   -5.30 KCAL/MOL
REMARK 924 INTRA-LIGAND FREE ENERGY PREDICTED BY IDOCK:    0.94 KCAL/MOL
REMARK 927      BINDING AFFINITY PREDICTED BY RF-SCORE:    0.00 PKD
ROOT
HETATM    1  C   UNL     1     -10.655  13.112  66.456  1.00  0.00    -0.290 C  
HETATM    2  C   UNL     1     -11.674  12.640  67.285  1.00  0.00    -0.435 C  
HETATM    3  C   UNL     1     -10.380  12.939  67.960  1.00  0.00    -0.230 C  
HETATM    4  C   UNL     1      -9.174  14.295  66.926  1.00  0.00    -0.254 C  
HETATM    5  C   UNL     1     -10.954  12.015  69.273  1.00  0.00    -0.189 C  
HETATM    6  O   UNL     1      -9.563  14.699  65.543  1.00  0.00    -0.504 OA 
HETATM    7  O   UNL     1      -5.234   7.560  67.389  1.00  0.00    -0.023 OA 
HETATM    8  C   UNL     1     -10.209  14.469  67.809  1.00  0.00    -0.226 C  
HETATM    9  C   UNL     1      -8.771  14.158  68.953  1.00  0.00     0.020 C  
HETATM   10  C   UNL     1     -11.211  15.566  67.831  1.00  0.00    -0.325 C  
HETATM   11  C   UNL     1      -6.676   8.716  68.947  1.00  0.00    -0.053 C  
HETATM   12  C   UNL     1      -6.091  11.061  66.184  1.00  0.00    -0.119 C  
HETATM   13  H   UNL     1      -9.015  15.314  65.072  1.00  0.00     0.000 HD 
HETATM   14  C   UNL     1      -7.655  12.938  68.271  1.00  0.00    -0.134 C  
HETATM   15  C   UNL     1      -7.163  10.490  67.108  1.00  0.00    -0.092 C  
HETATM   16  C   UNL     1      -6.581   9.954  68.468  1.00  0.00    -0.054 C  
HETATM   17  O   UNL     1      -6.767  13.651  67.414  1.00  0.00    -0.268 OA 
HETATM   18  C   UNL     1      -8.248  11.575  67.451  1.00  0.00    -0.149 C  
HETATM   19  C   UNL     1      -9.326  11.873  66.183  1.00  0.00    -0.228 C  
HETATM   20  H   UNL     1      -6.174  13.003  67.052  1.00  0.00     0.000 HD 
HETATM   21  C   UNL     1      -9.864  10.523  65.579  1.00  0.00    -0.265 C  
HETATM   22  C   UNL     1      -8.719   9.581  65.199  1.00  0.00    -0.200 C  
HETATM   23 CL   UNL     1     -10.936   9.562  66.650  1.00  0.00     0.038 Cl 
HETATM   24  C   UNL     1      -7.795   9.305  66.349  1.00  0.00    -0.103 C  
HETATM   25  C   UNL     1      -7.426   8.049  66.644  1.00  0.00    -0.089 C  
HETATM   26  C   UNL     1      -6.337   8.031  67.626  1.00  0.00    -0.052 C  
ENDROOT
BRANCH   4  27
HETATM   27  C   UNL     1      -8.457  15.893  67.150  1.00  0.00    -0.199 C  
HETATM   28  O   UNL     1      -7.691  16.187  68.085  1.00  0.00    -0.137 OA 
BRANCH  27  29
HETATM   29  C   UNL     1      -8.830  17.104  66.245  1.00  0.00    -0.231 C  
HETATM   30  O   UNL     1      -7.692  17.899  65.906  1.00  0.00    -0.507 OA 
HETATM   31  H   UNL     1      -7.920  18.638  65.354  1.00  0.00     0.000 HD 
ENDBRANCH  27  29
ENDBRANCH   4  27
TORSDOF 2
ENDMDL
MODEL       50
REMARK 921   NORMALIZED FREE ENERGY PREDICTED BY IDOCK:   -4.46 KCAL/MOL
REMARK 922        TOTAL FREE ENERGY PREDICTED BY IDOCK:   -4.34 KCAL/MOL
REMARK 923 INTER-LIGAND FREE ENERGY PREDICTED BY IDOCK:   -4.96 KCAL/MOL
REMARK 924 INTRA-LIGAND FREE ENERGY PREDICTED BY IDOCK:    0.62 KCAL/MOL
REMARK 927      BINDING AFFINITY PREDICTED BY RF-SCORE:    0.00 PKD
ROOT
HETATM    1  C   UNL     1      -8.810   8.340  70.097  1.00  0.00    -0.141 C  
HETATM    2  C   UNL     1      -9.157   9.409  69.270  1.00  0.00    -0.152 C  
HETATM    3  C   UNL     1     -10.045   8.215  69.188  1.00  0.00    -0.204 C  
HETATM    4  C   UNL     1      -9.988   6.994  70.881  1.00  0.00    -0.193 C  
HETATM    5  C   UNL     1     -10.634   8.864  67.726  1.00  0.00    -0.266 C  
HETATM    6  O   UNL     1      -8.959   7.260  71.929  1.00  0.00    -0.126 OA 
HETATM    7  O   UNL     1      -7.489   2.708  64.842  1.00  0.00    -0.068 OA 
HETATM    8  C   UNL     1     -10.705   8.125  70.584  1.00  0.00    -0.238 C  
HETATM    9  C   UNL     1     -11.704   6.800  69.739  1.00  0.00    -0.222 C  
HETATM   10  C   UNL     1     -11.151   9.192  71.518  1.00  0.00    -0.436 C  
HETATM   11  C   UNL     1      -9.226   4.377  65.049  1.00  0.00    -0.157 C  
HETATM   12  C   UNL     1      -8.109   3.652  68.471  1.00  0.00    -0.076 C  
HETATM   13  H   UNL     1      -8.932   6.705  72.699  1.00  0.00     0.000 HD 
HETATM   14  C   UNL     1     -10.646   5.544  69.032  1.00  0.00    -0.201 C  
HETATM   15  C   UNL     1      -8.481   4.777  67.509  1.00  0.00    -0.104 C  
HETATM   16  C   UNL     1      -9.448   4.310  66.359  1.00  0.00    -0.191 C  
HETATM   17  O   UNL     1     -10.379   4.617  70.082  1.00  0.00    -0.208 OA 
HETATM   18  C   UNL     1      -9.186   5.960  68.271  1.00  0.00    -0.117 C  
HETATM   19  C   UNL     1      -8.118   6.914  69.169  1.00  0.00    -0.121 C  
HETATM   20  H   UNL     1      -9.817   3.949  69.706  1.00  0.00     0.000 HD 
HETATM   21  C   UNL     1      -6.857   7.300  68.309  1.00  0.00    -0.070 C  
HETATM   22  C   UNL     1      -6.200   6.063  67.689  1.00  0.00    -0.029 C  
HETATM   23 CL   UNL     1      -7.159   8.416  66.937  1.00  0.00    -0.074 Cl 
HETATM   24  C   UNL     1      -7.159   5.250  66.870  1.00  0.00    -0.066 C  
HETATM   25  C   UNL     1      -6.827   4.836  65.639  1.00  0.00    -0.061 C  
HETATM   26  C   UNL     1      -7.793   3.858  65.128  1.00  0.00    -0.086 C  
ENDROOT
BRANCH   4  27
HETATM   27  C   UNL     1     -11.070   6.407  72.148  1.00  0.00    -0.263 C  
HETATM   28  O   UNL     1     -12.303   6.307  72.018  1.00  0.00    -0.328 OA 
BRANCH  27  29
HETATM   29  C   UNL     1     -10.565   6.077  73.583  1.00  0.00    -0.264 C  
HETATM   30  O   UNL     1     -10.626   7.208  74.453  1.00  0.00    -0.505 OA 
HETATM   31  H   UNL     1     -10.318   7.007  75.329  1.00  0.00     0.000 HD 
ENDBRANCH  27  29
ENDBRANCH   4  27
TORSDOF 2
ENDMDL
MODEL       51
REMARK 921   NORMALIZED FREE ENERGY PREDICTED BY IDOCK:   -4.44 KCAL/MOL
REMARK 922        TOTAL FREE ENERGY PREDICTED BY IDOCK:   -4.31 KCAL/MOL
REMARK 923 INTER-LIGAND FREE ENERGY PREDICTED BY IDOCK:   -4.99 KCAL/MOL
REMARK 924 INTRA-LIGAND FREE ENERGY PREDICTED BY IDOCK:    0.68 KCAL/MOL
REMARK 927      BINDING AFFINITY PREDICTED BY RF-SCORE:    0.00 PKD
ROOT
HETATM    1  C   UNL     1     -11.460   9.407  69.049  1.00  0.00     0.314 C  
HETATM    2  C   UNL     1     -11.242   9.131  70.400  1.00  0.00    -0.279 C  
HETATM    3  C   UNL     1     -10.086   9.720  69.667  1.00  0.00    -0.250 C  
HETATM    4  C   UNL     1     -10.620  10.787  67.953  1.00  0.00    -0.221 C  
HETATM    5  C   UNL     1      -9.111   9.195  70.963  1.00  0.00    -0.305 C  
HETATM    6  O   UNL     1     -12.031  10.722  67.472  1.00  0.00    -0.497 OA 
HETATM    7  O   UNL     1      -6.099   4.834  65.670  1.00  0.00    -0.025 OA 
HETATM    8  C   UNL     1     -10.557  11.141  69.277  1.00  0.00    -0.212 C  
HETATM    9  C   UNL     1      -8.778  11.302  68.748  1.00  0.00    -0.105 C  
HETATM   10  C   UNL     1     -11.418  12.112  70.001  1.00  0.00    -0.156 C  
HETATM   11  C   UNL     1      -6.024   6.293  67.597  1.00  0.00    -0.017 C  
HETATM   12  C   UNL     1      -8.539   7.729  65.340  1.00  0.00    -0.092 C  
HETATM   13  H   UNL     1     -12.274  11.207  66.693  1.00  0.00     0.000 HD 
HETATM   14  C   UNL     1      -8.332  10.023  67.581  1.00  0.00    -0.114 C  
HETATM   15  C   UNL     1      -8.247   7.383  66.798  1.00  0.00    -0.121 C  
HETATM   16  C   UNL     1      -6.708   7.331  67.121  1.00  0.00    -0.068 C  
HETATM   17  O   UNL     1      -8.716  10.509  66.297  1.00  0.00    -0.143 OA 
HETATM   18  C   UNL     1      -8.900   8.434  67.768  1.00  0.00    -0.137 C  
HETATM   19  C   UNL     1     -10.573   8.251  67.932  1.00  0.00    -0.212 C  
HETATM   20  H   UNL     1      -8.478   9.830  65.676  1.00  0.00     0.000 HD 
HETATM   21  C   UNL     1     -10.946   6.744  68.192  1.00  0.00    -0.201 C  
HETATM   22  C   UNL     1     -10.330   5.822  67.136  1.00  0.00    -0.293 C  
HETATM   23 CL   UNL     1     -10.424   6.072  69.772  1.00  0.00    -0.289 Cl 
HETATM   24  C   UNL     1      -8.841   5.979  67.032  1.00  0.00    -0.113 C  
HETATM   25  C   UNL     1      -8.038   4.904  67.024  1.00  0.00    -0.107 C  
HETATM   26  C   UNL     1      -6.664   5.269  66.664  1.00  0.00    -0.061 C  
ENDROOT
BRANCH   4  27
HETATM   27  C   UNL     1     -10.516  12.429  67.309  1.00  0.00    -0.222 C  
HETATM   28  O   UNL     1      -9.580  13.211  67.548  1.00  0.00    -0.198 OA 
BRANCH  27  29
HETATM   29  C   UNL     1     -11.667  13.068  66.478  1.00  0.00    -0.382 C  
HETATM   30  O   UNL     1     -12.476  13.949  67.260  1.00  0.00    -0.485 OA 
HETATM   31  H   UNL     1     -13.179  14.339  66.753  1.00  0.00     0.000 HD 
ENDBRANCH  27  29
ENDBRANCH   4  27
TORSDOF 2
ENDMDL
MODEL       52
REMARK 921   NORMALIZED FREE ENERGY PREDICTED BY IDOCK:   -4.42 KCAL/MOL
REMARK 922        TOTAL FREE ENERGY PREDICTED BY IDOCK:   -4.29 KCAL/MOL
REMARK 923 INTER-LIGAND FREE ENERGY PREDICTED BY IDOCK:   -4.94 KCAL/MOL
REMARK 924 INTRA-LIGAND FREE ENERGY PREDICTED BY IDOCK:    0.65 KCAL/MOL
REMARK 927      BINDING AFFINITY PREDICTED BY RF-SCORE:    0.00 PKD
ROOT
HETATM    1  C   UNL     1      -9.621   7.349  72.937  1.00  0.00    -0.224 C  
HETATM    2  C   UNL     1     -10.978   7.636  73.088  1.00  0.00    -0.411 C  
HETATM    3  C   UNL     1     -10.657   6.484  72.198  1.00  0.00    -0.240 C  
HETATM    4  C   UNL     1      -8.791   5.621  72.563  1.00  0.00    -0.130 C  
HETATM    5  C   UNL     1     -12.249   6.617  71.602  1.00  0.00    -0.401 C  
HETATM    6  O   UNL     1      -7.850   6.303  73.499  1.00  0.00    -0.098 OA 
HETATM    7  O   UNL     1      -8.695   8.360  65.243  1.00  0.00    -0.170 OA 
HETATM    8  C   UNL     1     -10.022   5.433  73.138  1.00  0.00    -0.189 C  
HETATM    9  C   UNL     1     -10.143   4.376  71.608  1.00  0.00    -0.230 C  
HETATM   10  C   UNL     1     -10.323   5.085  74.551  1.00  0.00    -0.315 C  
HETATM   11  C   UNL     1     -10.411   7.274  66.555  1.00  0.00    -0.104 C  
HETATM   12  C   UNL     1      -7.313   6.982  68.504  1.00  0.00    -0.100 C  
HETATM   13  H   UNL     1      -7.001   5.911  73.665  1.00  0.00     0.000 HD 
HETATM   14  C   UNL     1      -9.307   5.142  70.226  1.00  0.00    -0.156 C  
HETATM   15  C   UNL     1      -8.802   7.306  68.598  1.00  0.00    -0.129 C  
HETATM   16  C   UNL     1      -9.650   6.647  67.448  1.00  0.00    -0.147 C  
HETATM   17  O   UNL     1      -7.937   4.759  70.333  1.00  0.00    -0.063 OA 
HETATM   18  C   UNL     1      -9.399   6.817  69.969  1.00  0.00    -0.158 C  
HETATM   19  C   UNL     1      -8.976   7.801  71.277  1.00  0.00    -0.147 C  
HETATM   20  H   UNL     1      -7.492   5.165  69.597  1.00  0.00     0.000 HD 
HETATM   21  C   UNL     1      -9.200   9.319  70.928  1.00  0.00    -0.233 C  
HETATM   22  C   UNL     1      -8.500   9.705  69.622  1.00  0.00    -0.181 C  
HETATM   23 CL   UNL     1     -10.907   9.830  70.722  1.00  0.00    -0.387 Cl 
HETATM   24  C   UNL     1      -8.916   8.839  68.469  1.00  0.00    -0.138 C  
HETATM   25  C   UNL     1      -9.271   9.386  67.297  1.00  0.00    -0.151 C  
HETATM   26  C   UNL     1      -9.391   8.367  66.249  1.00  0.00    -0.219 C  
ENDROOT
BRANCH   4  27
HETATM   27  C   UNL     1      -8.105   4.072  73.062  1.00  0.00    -0.089 C  
HETATM   28  O   UNL     1      -8.779   3.047  73.265  1.00  0.00    -0.079 OA 
BRANCH  27  29
HETATM   29  C   UNL     1      -6.596   3.905  73.406  1.00  0.00    -0.042 C  
HETATM   30  O   UNL     1      -5.746   4.370  72.356  1.00  0.00    -0.010 OA 
HETATM   31  H   UNL     1      -4.825   4.269  72.565  1.00  0.00     0.000 HD 
ENDBRANCH  27  29
ENDBRANCH   4  27
TORSDOF 2
ENDMDL
MODEL       53
REMARK 921   NORMALIZED FREE ENERGY PREDICTED BY IDOCK:   -4.35 KCAL/MOL
REMARK 922        TOTAL FREE ENERGY PREDICTED BY IDOCK:   -4.21 KCAL/MOL
REMARK 923 INTER-LIGAND FREE ENERGY PREDICTED BY IDOCK:   -5.07 KCAL/MOL
REMARK 924 INTRA-LIGAND FREE ENERGY PREDICTED BY IDOCK:    0.86 KCAL/MOL
REMARK 927      BINDING AFFINITY PREDICTED BY RF-SCORE:    0.00 PKD
ROOT
HETATM    1  C   UNL     1     -11.665  14.773  67.733  1.00  0.00    -0.368 C  
HETATM    2  C   UNL     1     -10.807  13.834  67.159  1.00  0.00    -0.288 C  
HETATM    3  C   UNL     1     -10.295  14.512  68.382  1.00  0.00    -0.241 C  
HETATM    4  C   UNL     1     -11.790  15.298  69.610  1.00  0.00    -0.339 C  
HETATM    5  C   UNL     1      -8.747  13.955  67.934  1.00  0.00    -0.184 C  
HETATM    6  O   UNL     1     -13.197  15.319  69.112  1.00  0.00     0.321 OA 
HETATM    7  O   UNL     1      -7.370  21.282  67.212  1.00  0.00    -0.484 OA 
HETATM    8  C   UNL     1     -11.242  14.044  69.511  1.00  0.00    -0.249 C  
HETATM    9  C   UNL     1      -9.993  14.931  70.571  1.00  0.00     0.624 C  
HETATM   10  C   UNL     1     -11.913  12.738  69.738  1.00  0.00    -0.362 C  
HETATM   11  C   UNL     1      -6.834  19.016  67.862  1.00  0.00    -0.240 C  
HETATM   12  C   UNL     1     -10.365  19.507  68.738  1.00  0.00    -0.318 C  
HETATM   13  H   UNL     1     -13.877  15.677  69.669  1.00  0.00     0.000 HD 
HETATM   14  C   UNL     1      -9.793  16.630  70.050  1.00  0.00     0.603 C  
HETATM   15  C   UNL     1      -9.378  18.532  68.101  1.00  0.00    -0.336 C  
HETATM   16  C   UNL     1      -7.901  18.734  68.604  1.00  0.00    -0.361 C  
HETATM   17  O   UNL     1     -10.818  17.368  70.712  1.00  0.00     0.155 OA 
HETATM   18  C   UNL     1      -9.783  17.043  68.403  1.00  0.00    -0.279 C  
HETATM   19  C   UNL     1     -11.098  16.503  67.487  1.00  0.00    -0.078 C  
HETATM   20  H   UNL     1     -10.712  18.272  70.436  1.00  0.00     0.000 HD 
HETATM   21  C   UNL     1     -10.909  16.873  65.969  1.00  0.00    -0.005 C  
HETATM   22  C   UNL     1     -10.608  18.364  65.788  1.00  0.00    -0.236 C  
HETATM   23 CL   UNL     1      -9.586  16.013  65.114  1.00  0.00     0.276 Cl 
HETATM   24  C   UNL     1      -9.417  18.812  66.585  1.00  0.00    -0.346 C  
HETATM   25  C   UNL     1      -8.452  19.550  66.016  1.00  0.00    -0.247 C  
HETATM   26  C   UNL     1      -7.528  20.084  67.022  1.00  0.00    -0.266 C  
ENDROOT
BRANCH   4  27
HETATM   27  C   UNL     1     -12.415  15.108  71.251  1.00  0.00    -0.344 C  
HETATM   28  O   UNL     1     -11.702  15.100  72.270  1.00  0.00    -0.401 OA 
BRANCH  27  29
HETATM   29  C   UNL     1     -13.916  14.812  71.538  1.00  0.00    -0.467 C  
HETATM   30  O   UNL     1     -14.110  14.154  72.791  1.00  0.00    -0.610 OA 
HETATM   31  H   UNL     1     -15.027  13.973  72.966  1.00  0.00     0.000 HD 
ENDBRANCH  27  29
ENDBRANCH   4  27
TORSDOF 2
ENDMDL
MODEL       54
REMARK 921   NORMALIZED FREE ENERGY PREDICTED BY IDOCK:   -4.33 KCAL/MOL
REMARK 922        TOTAL FREE ENERGY PREDICTED BY IDOCK:   -4.19 KCAL/MOL
REMARK 923 INTER-LIGAND FREE ENERGY PREDICTED BY IDOCK:   -5.05 KCAL/MOL
REMARK 924 INTRA-LIGAND FREE ENERGY PREDICTED BY IDOCK:    0.85 KCAL/MOL
REMARK 927      BINDING AFFINITY PREDICTED BY RF-SCORE:    0.00 PKD
ROOT
HETATM    1  C   UNL     1     -10.682  14.718  65.836  1.00  0.00    -0.320 C  
HETATM    2  C   UNL     1     -12.037  14.525  66.107  1.00  0.00    -0.300 C  
HETATM    3  C   UNL     1     -11.100  14.136  67.198  1.00  0.00    -0.315 C  
HETATM    4  C   UNL     1      -9.243  15.087  67.104  1.00  0.00    -0.216 C  
HETATM    5  C   UNL     1     -12.395  13.260  67.877  1.00  0.00     0.067 C  
HETATM    6  O   UNL     1      -8.906  15.895  65.895  1.00  0.00    -0.308 OA 
HETATM    7  O   UNL     1      -7.963   7.411  66.381  1.00  0.00    -0.102 OA 
HETATM    8  C   UNL     1     -10.447  15.467  67.641  1.00  0.00    -0.272 C  
HETATM    9  C   UNL     1      -9.751  14.377  68.981  1.00  0.00    -0.082 C  
HETATM   10  C   UNL     1     -11.008  16.840  67.737  1.00  0.00    -0.217 C  
HETATM   11  C   UNL     1      -9.508   8.686  67.734  1.00  0.00    -0.165 C  
HETATM   12  C   UNL     1      -7.205  11.133  66.255  1.00  0.00    -0.048 C  
HETATM   13  H   UNL     1      -8.062  16.327  65.851  1.00  0.00     0.000 HD 
HETATM   14  C   UNL     1      -8.861  12.988  68.289  1.00  0.00    -0.172 C  
HETATM   15  C   UNL     1      -8.674  10.852  66.560  1.00  0.00    -0.165 C  
HETATM   16  C   UNL     1      -8.874   9.855  67.761  1.00  0.00    -0.129 C  
HETATM   17  O   UNL     1      -7.538  13.454  68.037  1.00  0.00    -0.114 OA 
HETATM   18  C   UNL     1      -9.440  12.180  66.913  1.00  0.00    -0.210 C  
HETATM   19  C   UNL     1      -9.777  13.142  65.565  1.00  0.00    -0.061 C  
HETATM   20  H   UNL     1      -7.065  12.716  67.670  1.00  0.00     0.000 HD 
HETATM   21  C   UNL     1     -10.392  12.277  64.402  1.00  0.00    -0.331 C  
HETATM   22  C   UNL     1      -9.518  11.061  64.083  1.00  0.00    -0.274 C  
HETATM   23 CL   UNL     1     -12.033  11.617  64.705  1.00  0.00    -0.139 Cl 
HETATM   24  C   UNL     1      -9.260  10.205  65.288  1.00  0.00    -0.257 C  
HETATM   25  C   UNL     1      -9.423   8.875  65.230  1.00  0.00     0.001 C  
HETATM   26  C   UNL     1      -8.879   8.219  66.424  1.00  0.00    -0.152 C  
ENDROOT
BRANCH   4  27
HETATM   27  C   UNL     1      -8.248  16.183  68.067  1.00  0.00    -0.151 C  
HETATM   28  O   UNL     1      -8.038  16.043  69.284  1.00  0.00    -0.232 OA 
BRANCH  27  29
HETATM   29  C   UNL     1      -7.647  17.493  67.477  1.00  0.00    -0.197 C  
HETATM   30  O   UNL     1      -6.505  17.944  68.208  1.00  0.00    -0.185 OA 
HETATM   31  H   UNL     1      -6.138  18.743  67.848  1.00  0.00     0.000 HD 
ENDBRANCH  27  29
ENDBRANCH   4  27
TORSDOF 2
ENDMDL
MODEL       55
REMARK 921   NORMALIZED FREE ENERGY PREDICTED BY IDOCK:   -4.31 KCAL/MOL
REMARK 922        TOTAL FREE ENERGY PREDICTED BY IDOCK:   -4.17 KCAL/MOL
REMARK 923 INTER-LIGAND FREE ENERGY PREDICTED BY IDOCK:   -4.78 KCAL/MOL
REMARK 924 INTRA-LIGAND FREE ENERGY PREDICTED BY IDOCK:    0.61 KCAL/MOL
REMARK 927      BINDING AFFINITY PREDICTED BY RF-SCORE:    0.00 PKD
ROOT
HETATM    1  C   UNL     1      -8.530  15.175  69.113  1.00  0.00    -0.220 C  
HETATM    2  C   UNL     1      -7.775  15.943  68.225  1.00  0.00    -0.137 C  
HETATM    3  C   UNL     1      -9.076  15.442  67.700  1.00  0.00    -0.183 C  
HETATM    4  C   UNL     1     -10.471  14.979  69.183  1.00  0.00    -0.247 C  
HETATM    5  C   UNL     1      -8.486  15.807  66.142  1.00  0.00    -0.118 C  
HETATM    6  O   UNL     1     -10.034  14.975  70.610  1.00  0.00    -0.338 OA 
HETATM    7  O   UNL     1      -8.959   8.382  65.274  1.00  0.00    -0.126 OA 
HETATM    8  C   UNL     1     -10.144  16.156  68.561  1.00  0.00    -0.241 C  
HETATM    9  C   UNL     1     -11.292  15.371  67.322  1.00  0.00    -0.220 C  
HETATM   10  C   UNL     1     -10.171  17.527  69.136  1.00  0.00    -0.256 C  
HETATM   11  C   UNL     1      -9.198  10.680  64.563  1.00  0.00    -0.264 C  
HETATM   12  C   UNL     1     -10.270  10.593  68.073  1.00  0.00    -0.202 C  
HETATM   13  H   UNL     1     -10.668  14.764  71.285  1.00  0.00     0.000 HD 
HETATM   14  C   UNL     1     -11.058  13.599  67.257  1.00  0.00    -0.293 C  
HETATM   15  C   UNL     1      -9.443  11.376  67.057  1.00  0.00    -0.186 C  
HETATM   16  C   UNL     1      -9.920  11.156  65.574  1.00  0.00    -0.298 C  
HETATM   17  O   UNL     1     -11.870  13.055  68.295  1.00  0.00    -0.334 OA 
HETATM   18  C   UNL     1      -9.505  12.920  67.351  1.00  0.00    -0.198 C  
HETATM   19  C   UNL     1      -8.559  13.393  68.670  1.00  0.00     0.010 C  
HETATM   20  H   UNL     1     -11.747  12.114  68.260  1.00  0.00     0.000 HD 
HETATM   21  C   UNL     1      -7.119  12.764  68.577  1.00  0.00    -0.101 C  
HETATM   22  C   UNL     1      -7.180  11.247  68.381  1.00  0.00    -0.085 C  
HETATM   23 CL   UNL     1      -6.084  13.375  67.244  1.00  0.00     0.079 Cl 
HETATM   24  C   UNL     1      -7.998  10.853  67.186  1.00  0.00    -0.127 C  
HETATM   25  C   UNL     1      -7.527   9.964  66.297  1.00  0.00    -0.102 C  
HETATM   26  C   UNL     1      -8.576   9.540  65.364  1.00  0.00    -0.155 C  
ENDROOT
BRANCH   4  27
HETATM   27  C   UNL     1     -12.079  15.482  69.716  1.00  0.00    -0.349 C  
HETATM   28  O   UNL     1     -12.956  15.927  68.955  1.00  0.00     0.661 OA 
BRANCH  27  29
HETATM   29  C   UNL     1     -12.480  15.517  71.220  1.00  0.00    -0.425 C  
HETATM   30  O   UNL     1     -12.479  14.217  71.812  1.00  0.00    -0.326 OA 
HETATM   31  H   UNL     1     -12.725  14.238  72.730  1.00  0.00     0.000 HD 
ENDBRANCH  27  29
ENDBRANCH   4  27
TORSDOF 2
ENDMDL
MODEL       56
REMARK 921   NORMALIZED FREE ENERGY PREDICTED BY IDOCK:   -4.29 KCAL/MOL
REMARK 922        TOTAL FREE ENERGY PREDICTED BY IDOCK:   -4.15 KCAL/MOL
REMARK 923 INTER-LIGAND FREE ENERGY PREDICTED BY IDOCK:   -4.79 KCAL/MOL
REMARK 924 INTRA-LIGAND FREE ENERGY PREDICTED BY IDOCK:    0.64 KCAL/MOL
REMARK 927      BINDING AFFINITY PREDICTED BY RF-SCORE:    0.00 PKD
ROOT
HETATM    1  C   UNL     1      -9.718   9.191  70.368  1.00  0.00    -0.266 C  
HETATM    2  C   UNL     1     -10.689   8.229  70.084  1.00  0.00    -0.239 C  
HETATM    3  C   UNL     1      -9.771   8.570  68.961  1.00  0.00    -0.170 C  
HETATM    4  C   UNL     1      -7.947   9.384  69.570  1.00  0.00    -0.098 C  
HETATM    5  C   UNL     1     -10.905   7.827  67.927  1.00  0.00    -0.080 C  
HETATM    6  O   UNL     1      -7.763   9.752  71.004  1.00  0.00    -0.327 OA 
HETATM    7  O   UNL     1     -11.568  14.785  65.234  1.00  0.00    -0.349 OA 
HETATM    8  C   UNL     1      -8.380   8.089  69.436  1.00  0.00    -0.131 C  
HETATM    9  C   UNL     1      -7.920   8.527  67.685  1.00  0.00    -0.107 C  
HETATM   10  C   UNL     1      -7.985   6.909  70.249  1.00  0.00    -0.115 C  
HETATM   11  C   UNL     1     -11.412  12.380  65.046  1.00  0.00    -0.378 C  
HETATM   12  C   UNL     1      -9.018  13.346  67.657  1.00  0.00    -0.202 C  
HETATM   13  H   UNL     1      -6.933  10.123  71.281  1.00  0.00     0.000 HD 
HETATM   14  C   UNL     1      -8.335  10.226  67.312  1.00  0.00    -0.121 C  
HETATM   15  C   UNL     1     -10.104  12.337  67.294  1.00  0.00    -0.212 C  
HETATM   16  C   UNL     1     -10.297  12.171  65.741  1.00  0.00    -0.289 C  
HETATM   17  O   UNL     1      -7.229  11.008  67.755  1.00  0.00    -0.087 OA 
HETATM   18  C   UNL     1      -9.775  10.918  67.887  1.00  0.00    -0.178 C  
HETATM   19  C   UNL     1     -10.050  10.802  69.551  1.00  0.00    -0.117 C  
HETATM   20  H   UNL     1      -7.450  11.911  67.557  1.00  0.00     0.000 HD 
HETATM   21  C   UNL     1     -11.458  11.398  69.926  1.00  0.00    -0.273 C  
HETATM   22  C   UNL     1     -11.633  12.816  69.374  1.00  0.00    -0.361 C  
HETATM   23 CL   UNL     1     -12.879  10.478  69.332  1.00  0.00     0.422 Cl 
HETATM   24  C   UNL     1     -11.416  12.887  67.890  1.00  0.00    -0.362 C  
HETATM   25  C   UNL     1     -12.293  13.525  67.101  1.00  0.00    -0.220 C  
HETATM   26  C   UNL     1     -11.764  13.691  65.743  1.00  0.00    -0.348 C  
ENDROOT
BRANCH   4  27
HETATM   27  C   UNL     1      -6.220   9.020  69.481  1.00  0.00    -0.040 C  
HETATM   28  O   UNL     1      -5.706   8.294  68.613  1.00  0.00    -0.035 OA 
BRANCH  27  29
HETATM   29  C   UNL     1      -5.216   9.494  70.573  1.00  0.00    -0.032 C  
HETATM   30  O   UNL     1      -5.167  10.917  70.684  1.00  0.00    -0.074 OA 
HETATM   31  H   UNL     1      -4.554  11.206  71.350  1.00  0.00     0.000 HD 
ENDBRANCH  27  29
ENDBRANCH   4  27
TORSDOF 2
ENDMDL
MODEL       57
REMARK 921   NORMALIZED FREE ENERGY PREDICTED BY IDOCK:   -4.24 KCAL/MOL
REMARK 922        TOTAL FREE ENERGY PREDICTED BY IDOCK:   -4.09 KCAL/MOL
REMARK 923 INTER-LIGAND FREE ENERGY PREDICTED BY IDOCK:   -4.89 KCAL/MOL
REMARK 924 INTRA-LIGAND FREE ENERGY PREDICTED BY IDOCK:    0.80 KCAL/MOL
REMARK 927      BINDING AFFINITY PREDICTED BY RF-SCORE:    0.00 PKD
ROOT
HETATM    1  C   UNL     1      -6.845   5.168  67.793  1.00  0.00    -0.060 C  
HETATM    2  C   UNL     1      -6.652   4.071  68.634  1.00  0.00    -0.045 C  
HETATM    3  C   UNL     1      -8.032   4.236  68.096  1.00  0.00    -0.078 C  
HETATM    4  C   UNL     1      -8.130   5.354  66.335  1.00  0.00    -0.105 C  
HETATM    5  C   UNL     1      -8.540   3.160  69.317  1.00  0.00    -0.112 C  
HETATM    6  O   UNL     1      -6.906   6.062  65.859  1.00  0.00    -0.054 OA 
HETATM    7  O   UNL     1     -12.242   9.197  71.758  1.00  0.00    -0.325 OA 
HETATM    8  C   UNL     1      -7.882   4.026  66.572  1.00  0.00    -0.093 C  
HETATM    9  C   UNL     1      -9.742   4.090  66.644  1.00  0.00    -0.215 C  
HETATM   10  C   UNL     1      -6.998   3.113  65.799  1.00  0.00    -0.053 C  
HETATM   11  C   UNL     1     -11.993   6.843  71.265  1.00  0.00    -0.402 C  
HETATM   12  C   UNL     1     -10.400   8.632  68.482  1.00  0.00    -0.228 C  
HETATM   13  H   UNL     1      -6.950   6.570  65.058  1.00  0.00     0.000 HD 
HETATM   14  C   UNL     1     -10.307   5.604  67.410  1.00  0.00    -0.230 C  
HETATM   15  C   UNL     1     -10.239   7.459  69.446  1.00  0.00    -0.201 C  
HETATM   16  C   UNL     1     -11.612   6.918  69.993  1.00  0.00    -0.299 C  
HETATM   17  O   UNL     1     -10.354   6.579  66.371  1.00  0.00    -0.427 OA 
HETATM   18  C   UNL     1      -9.498   6.258  68.752  1.00  0.00    -0.124 C  
HETATM   19  C   UNL     1      -7.834   6.503  68.577  1.00  0.00    -0.106 C  
HETATM   20  H   UNL     1     -10.654   7.383  66.778  1.00  0.00     0.000 HD 
HETATM   21  C   UNL     1      -7.203   7.020  69.923  1.00  0.00    -0.079 C  
HETATM   22  C   UNL     1      -7.948   8.245  70.460  1.00  0.00    -0.099 C  
HETATM   23 CL   UNL     1      -7.182   5.844  71.279  1.00  0.00    -0.076 Cl 
HETATM   24  C   UNL     1      -9.418   7.993  70.637  1.00  0.00    -0.167 C  
HETATM   25  C   UNL     1     -10.038   8.335  71.776  1.00  0.00    -0.290 C  
HETATM   26  C   UNL     1     -11.495   8.236  71.639  1.00  0.00    -0.278 C  
ENDROOT
BRANCH   4  27
HETATM   27  C   UNL     1      -8.627   5.161  64.651  1.00  0.00    -0.142 C  
HETATM   28  O   UNL     1      -9.507   4.369  64.272  1.00  0.00    -0.155 OA 
BRANCH  27  29
HETATM   29  C   UNL     1      -7.904   5.895  63.484  1.00  0.00    -0.103 C  
HETATM   30  O   UNL     1      -8.652   7.011  62.999  1.00  0.00    -0.347 OA 
HETATM   31  H   UNL     1      -8.211   7.460  62.286  1.00  0.00     0.000 HD 
ENDBRANCH  27  29
ENDBRANCH   4  27
TORSDOF 2
ENDMDL
MODEL       58
REMARK 921   NORMALIZED FREE ENERGY PREDICTED BY IDOCK:   -4.21 KCAL/MOL
REMARK 922        TOTAL FREE ENERGY PREDICTED BY IDOCK:   -4.06 KCAL/MOL
REMARK 923 INTER-LIGAND FREE ENERGY PREDICTED BY IDOCK:   -4.74 KCAL/MOL
REMARK 924 INTRA-LIGAND FREE ENERGY PREDICTED BY IDOCK:    0.68 KCAL/MOL
REMARK 927      BINDING AFFINITY PREDICTED BY RF-SCORE:    0.00 PKD
ROOT
HETATM    1  C   UNL     1      -6.317   9.604  66.681  1.00  0.00    -0.066 C  
HETATM    2  C   UNL     1      -6.055   9.176  67.983  1.00  0.00    -0.050 C  
HETATM    3  C   UNL     1      -7.435   8.918  67.485  1.00  0.00    -0.085 C  
HETATM    4  C   UNL     1      -7.592   8.858  65.404  1.00  0.00    -0.087 C  
HETATM    5  C   UNL     1      -7.880   8.669  69.112  1.00  0.00    -0.099 C  
HETATM    6  O   UNL     1      -6.417   9.265  64.579  1.00  0.00    -0.074 OA 
HETATM    7  O   UNL     1     -12.053  14.770  67.900  1.00  0.00    -0.288 OA 
HETATM    8  C   UNL     1      -7.249   7.906  66.330  1.00  0.00    -0.082 C  
HETATM    9  C   UNL     1      -9.110   7.871  66.409  1.00  0.00    -0.221 C  
HETATM   10  C   UNL     1      -6.290   6.782  66.168  1.00  0.00    -0.049 C  
HETATM   11  C   UNL     1     -11.623  12.564  68.789  1.00  0.00    -0.366 C  
HETATM   12  C   UNL     1     -10.129  12.609  65.436  1.00  0.00    -0.277 C  
HETATM   13  H   UNL     1      -6.488   9.238  63.632  1.00  0.00     0.000 HD 
HETATM   14  C   UNL     1      -9.796   9.512  66.223  1.00  0.00    -0.266 C  
HETATM   15  C   UNL     1      -9.894  12.184  66.883  1.00  0.00    -0.213 C  
HETATM   16  C   UNL     1     -11.231  11.945  67.679  1.00  0.00    -0.340 C  
HETATM   17  O   UNL     1      -9.901   9.738  64.819  1.00  0.00    -0.413 OA 
HETATM   18  C   UNL     1      -9.057  10.855  66.952  1.00  0.00    -0.164 C  
HETATM   19  C   UNL     1      -7.413  11.077  66.621  1.00  0.00    -0.146 C  
HETATM   20  H   UNL     1     -10.266  10.610  64.720  1.00  0.00     0.000 HD 
HETATM   21  C   UNL     1      -6.841  12.297  67.434  1.00  0.00    -0.145 C  
HETATM   22  C   UNL     1      -7.683  13.558  67.222  1.00  0.00    -0.093 C  
HETATM   23 CL   UNL     1      -6.752  12.078  69.213  1.00  0.00    -0.107 Cl 
HETATM   24  C   UNL     1      -9.132  13.346  67.553  1.00  0.00    -0.215 C  
HETATM   25  C   UNL     1      -9.791  14.219  68.328  1.00  0.00    -0.235 C  
HETATM   26  C   UNL     1     -11.235  13.960  68.313  1.00  0.00    -0.272 C  
ENDROOT
BRANCH   4  27
HETATM   27  C   UNL     1      -8.050   7.727  64.126  1.00  0.00    -0.068 C  
HETATM   28  O   UNL     1      -8.351   6.538  64.325  1.00  0.00    -0.039 OA 
BRANCH  27  29
HETATM   29  C   UNL     1      -7.993   8.113  62.618  1.00  0.00    -0.156 C  
HETATM   30  O   UNL     1      -8.260   9.499  62.402  1.00  0.00    -0.125 OA 
HETATM   31  H   UNL     1      -8.226   9.735  61.482  1.00  0.00     0.000 HD 
ENDBRANCH  27  29
ENDBRANCH   4  27
TORSDOF 2
ENDMDL
MODEL       59
REMARK 921   NORMALIZED FREE ENERGY PREDICTED BY IDOCK:   -4.21 KCAL/MOL
REMARK 922        TOTAL FREE ENERGY PREDICTED BY IDOCK:   -4.06 KCAL/MOL
REMARK 923 INTER-LIGAND FREE ENERGY PREDICTED BY IDOCK:   -4.78 KCAL/MOL
REMARK 924 INTRA-LIGAND FREE ENERGY PREDICTED BY IDOCK:    0.72 KCAL/MOL
REMARK 927      BINDING AFFINITY PREDICTED BY RF-SCORE:    0.00 PKD
ROOT
HETATM    1  C   UNL     1     -10.133  10.080  66.062  1.00  0.00    -0.318 C  
HETATM    2  C   UNL     1     -10.171  10.107  64.667  1.00  0.00    -0.064 C  
HETATM    3  C   UNL     1      -8.952  10.695  65.290  1.00  0.00    -0.209 C  
HETATM    4  C   UNL     1      -8.563   9.999  67.221  1.00  0.00    -0.125 C  
HETATM    5  C   UNL     1      -8.648  11.435  63.785  1.00  0.00     0.468 C  
HETATM    6  O   UNL     1      -9.589   9.160  67.907  1.00  0.00    -0.143 OA 
HETATM    7  O   UNL     1      -9.755  17.707  67.726  1.00  0.00    -0.267 OA 
HETATM    8  C   UNL     1      -8.254   9.500  65.981  1.00  0.00    -0.115 C  
HETATM    9  C   UNL     1      -6.912  10.766  66.233  1.00  0.00    -0.134 C  
HETATM   10  C   UNL     1      -8.142   8.074  65.576  1.00  0.00    -0.128 C  
HETATM   11  C   UNL     1      -8.636  16.335  66.080  1.00  0.00    -0.342 C  
HETATM   12  C   UNL     1      -9.353  14.122  68.920  1.00  0.00    -0.014 C  
HETATM   13  H   UNL     1      -9.412   8.844  68.784  1.00  0.00     0.000 HD 
HETATM   14  C   UNL     1      -7.536  12.209  67.086  1.00  0.00    -0.129 C  
HETATM   15  C   UNL     1      -9.390  14.223  67.398  1.00  0.00    -0.203 C  
HETATM   16  C   UNL     1      -8.361  15.267  66.825  1.00  0.00    -0.258 C  
HETATM   17  O   UNL     1      -7.459  11.909  68.477  1.00  0.00    -0.106 OA 
HETATM   18  C   UNL     1      -9.075  12.833  66.733  1.00  0.00    -0.209 C  
HETATM   19  C   UNL     1     -10.363  11.740  66.815  1.00  0.00    -0.251 C  
HETATM   20  H   UNL     1      -7.791  12.676  68.930  1.00  0.00     0.000 HD 
HETATM   21  C   UNL     1     -11.707  12.429  66.373  1.00  0.00    -0.391 C  
HETATM   22  C   UNL     1     -11.956  13.726  67.149  1.00  0.00    -0.442 C  
HETATM   23 CL   UNL     1     -11.821  12.882  64.641  1.00  0.00    -0.398 Cl 
HETATM   24  C   UNL     1     -10.813  14.693  67.034  1.00  0.00    -0.304 C  
HETATM   25  C   UNL     1     -11.035  15.981  66.734  1.00  0.00    -0.112 C  
HETATM   26  C   UNL     1      -9.825  16.788  66.923  1.00  0.00    -0.266 C  
ENDROOT
BRANCH   4  27
HETATM   27  C   UNL     1      -7.310   9.119  68.101  1.00  0.00    -0.079 C  
HETATM   28  O   UNL     1      -6.099   9.173  67.826  1.00  0.00    -0.049 OA 
BRANCH  27  29
HETATM   29  C   UNL     1      -7.649   8.102  69.230  1.00  0.00    -0.095 C  
HETATM   30  O   UNL     1      -7.473   6.747  68.811  1.00  0.00    -0.091 OA 
HETATM   31  H   UNL     1      -7.680   6.126  69.500  1.00  0.00     0.000 HD 
ENDBRANCH  27  29
ENDBRANCH   4  27
TORSDOF 2
ENDMDL
MODEL       60
REMARK 921   NORMALIZED FREE ENERGY PREDICTED BY IDOCK:   -4.20 KCAL/MOL
REMARK 922        TOTAL FREE ENERGY PREDICTED BY IDOCK:   -4.05 KCAL/MOL
REMARK 923 INTER-LIGAND FREE ENERGY PREDICTED BY IDOCK:   -4.89 KCAL/MOL
REMARK 924 INTRA-LIGAND FREE ENERGY PREDICTED BY IDOCK:    0.84 KCAL/MOL
REMARK 927      BINDING AFFINITY PREDICTED BY RF-SCORE:    0.00 PKD
ROOT
HETATM    1  C   UNL     1      -7.589   6.123  66.768  1.00  0.00    -0.099 C  
HETATM    2  C   UNL     1      -8.395   5.132  66.205  1.00  0.00    -0.114 C  
HETATM    3  C   UNL     1      -9.055   6.449  66.433  1.00  0.00    -0.168 C  
HETATM    4  C   UNL     1      -7.728   8.058  66.546  1.00  0.00    -0.093 C  
HETATM    5  C   UNL     1     -10.542   5.635  66.248  1.00  0.00    -0.173 C  
HETATM    6  O   UNL     1      -6.262   7.782  66.600  1.00  0.00    -0.046 OA 
HETATM    7  O   UNL     1     -11.409   7.597  73.425  1.00  0.00    -0.289 OA 
HETATM    8  C   UNL     1      -8.318   7.422  65.483  1.00  0.00    -0.139 C  
HETATM    9  C   UNL     1      -9.669   8.577  66.043  1.00  0.00    -0.195 C  
HETATM   10  C   UNL     1      -7.759   7.214  64.122  1.00  0.00    -0.120 C  
HETATM   11  C   UNL     1     -12.156   7.262  71.150  1.00  0.00    -0.376 C  
HETATM   12  C   UNL     1      -8.782   8.687  70.905  1.00  0.00    -0.216 C  
HETATM   13  H   UNL     1      -5.659   8.514  66.651  1.00  0.00     0.000 HD 
HETATM   14  C   UNL     1      -9.697   8.723  67.825  1.00  0.00    -0.158 C  
HETATM   15  C   UNL     1      -9.707   7.610  70.345  1.00  0.00    -0.179 C  
HETATM   16  C   UNL     1     -11.232   7.966  70.503  1.00  0.00    -0.259 C  
HETATM   17  O   UNL     1      -8.750   9.736  68.153  1.00  0.00    -0.119 OA 
HETATM   18  C   UNL     1      -9.432   7.370  68.815  1.00  0.00    -0.143 C  
HETATM   19  C   UNL     1      -8.021   6.487  68.516  1.00  0.00    -0.110 C  
HETATM   20  H   UNL     1      -8.765   9.814  69.100  1.00  0.00     0.000 HD 
HETATM   21  C   UNL     1      -7.954   5.214  69.439  1.00  0.00    -0.084 C  
HETATM   22  C   UNL     1      -8.146   5.578  70.914  1.00  0.00    -0.114 C  
HETATM   23 CL   UNL     1      -9.172   3.939  69.102  1.00  0.00    -0.204 Cl 
HETATM   24  C   UNL     1      -9.420   6.333  71.160  1.00  0.00    -0.183 C  
HETATM   25  C   UNL     1     -10.247   5.974  72.153  1.00  0.00    -0.222 C  
HETATM   26  C   UNL     1     -11.286   6.986  72.373  1.00  0.00    -0.268 C  
ENDROOT
BRANCH   4  27
HETATM   27  C   UNL     1      -7.375   9.566  65.697  1.00  0.00    -0.094 C  
HETATM   28  O   UNL     1      -8.227  10.239  65.092  1.00  0.00    -0.153 OA 
BRANCH  27  29
HETATM   29  C   UNL     1      -5.924  10.110  65.541  1.00  0.00    -0.097 C  
HETATM   30  O   UNL     1      -5.869  11.536  65.611  1.00  0.00    -0.480 OA 
HETATM   31  H   UNL     1      -4.984  11.868  65.516  1.00  0.00     0.000 HD 
ENDBRANCH  27  29
ENDBRANCH   4  27
TORSDOF 2
ENDMDL
MODEL       61
REMARK 921   NORMALIZED FREE ENERGY PREDICTED BY IDOCK:   -4.09 KCAL/MOL
REMARK 922        TOTAL FREE ENERGY PREDICTED BY IDOCK:   -3.92 KCAL/MOL
REMARK 923 INTER-LIGAND FREE ENERGY PREDICTED BY IDOCK:   -4.70 KCAL/MOL
REMARK 924 INTRA-LIGAND FREE ENERGY PREDICTED BY IDOCK:    0.78 KCAL/MOL
REMARK 927      BINDING AFFINITY PREDICTED BY RF-SCORE:    0.00 PKD
ROOT
HETATM    1  C   UNL     1     -10.645   7.275  69.986  1.00  0.00    -0.247 C  
HETATM    2  C   UNL     1     -10.982   6.300  69.046  1.00  0.00    -0.437 C  
HETATM    3  C   UNL     1      -9.549   6.335  69.454  1.00  0.00    -0.157 C  
HETATM    4  C   UNL     1      -9.216   7.221  71.315  1.00  0.00    -0.150 C  
HETATM    5  C   UNL     1      -9.224   5.396  68.068  1.00  0.00    -0.119 C  
HETATM    6  O   UNL     1     -10.346   7.919  71.996  1.00  0.00    -0.202 OA 
HETATM    7  O   UNL     1      -5.437  11.515  65.990  1.00  0.00    -0.265 OA 
HETATM    8  C   UNL     1      -9.562   5.945  70.950  1.00  0.00    -0.202 C  
HETATM    9  C   UNL     1      -7.717   5.934  70.694  1.00  0.00    -0.097 C  
HETATM   10  C   UNL     1     -10.417   4.985  71.697  1.00  0.00    -0.232 C  
HETATM   11  C   UNL     1      -5.771   9.132  66.224  1.00  0.00    -0.053 C  
HETATM   12  C   UNL     1      -6.981  10.633  69.348  1.00  0.00    -0.106 C  
HETATM   13  H   UNL     1     -10.195   8.322  72.842  1.00  0.00     0.000 HD 
HETATM   14  C   UNL     1      -7.143   7.504  70.058  1.00  0.00    -0.060 C  
HETATM   15  C   UNL     1      -7.302   9.597  68.275  1.00  0.00    -0.080 C  
HETATM   16  C   UNL     1      -6.022   9.066  67.529  1.00  0.00    -0.050 C  
HETATM   17  O   UNL     1      -6.940   8.339  71.195  1.00  0.00    -0.049 OA 
HETATM   18  C   UNL     1      -8.040   8.354  68.894  1.00  0.00    -0.114 C  
HETATM   19  C   UNL     1      -9.662   8.650  69.267  1.00  0.00    -0.173 C  
HETATM   20  H   UNL     1      -6.635   9.173  70.858  1.00  0.00     0.000 HD 
HETATM   21  C   UNL     1     -10.390   9.358  68.065  1.00  0.00    -0.220 C  
HETATM   22  C   UNL     1      -9.631  10.605  67.603  1.00  0.00    -0.178 C  
HETATM   23 CL   UNL     1     -10.610   8.361  66.589  1.00  0.00    -0.251 Cl 
HETATM   24  C   UNL     1      -8.203  10.310  67.246  1.00  0.00    -0.121 C  
HETATM   25  C   UNL     1      -7.678  10.763  66.098  1.00  0.00    -0.149 C  
HETATM   26  C   UNL     1      -6.223  10.582  66.071  1.00  0.00    -0.123 C  
ENDROOT
BRANCH   4  27
HETATM   27  C   UNL     1      -8.570   6.799  72.905  1.00  0.00    -0.116 C  
HETATM   28  O   UNL     1      -8.099   5.684  73.190  1.00  0.00    -0.116 OA 
BRANCH  27  29
HETATM   29  C   UNL     1      -8.654   7.770  74.118  1.00  0.00    -0.254 C  
HETATM   30  O   UNL     1      -7.833   8.926  73.946  1.00  0.00    -0.377 OA 
HETATM   31  H   UNL     1      -7.883   9.519  74.687  1.00  0.00     0.000 HD 
ENDBRANCH  27  29
ENDBRANCH   4  27
TORSDOF 2
ENDMDL
MODEL       62
REMARK 921   NORMALIZED FREE ENERGY PREDICTED BY IDOCK:   -4.05 KCAL/MOL
REMARK 922        TOTAL FREE ENERGY PREDICTED BY IDOCK:   -3.88 KCAL/MOL
REMARK 923 INTER-LIGAND FREE ENERGY PREDICTED BY IDOCK:   -4.47 KCAL/MOL
REMARK 924 INTRA-LIGAND FREE ENERGY PREDICTED BY IDOCK:    0.60 KCAL/MOL
REMARK 927      BINDING AFFINITY PREDICTED BY RF-SCORE:    0.00 PKD
ROOT
HETATM    1  C   UNL     1      -8.502   5.705  70.925  1.00  0.00    -0.125 C  
HETATM    2  C   UNL     1      -9.655   5.788  71.706  1.00  0.00    -0.178 C  
HETATM    3  C   UNL     1      -9.878   5.695  70.236  1.00  0.00    -0.254 C  
HETATM    4  C   UNL     1      -8.286   4.841  69.187  1.00  0.00    -0.081 C  
HETATM    5  C   UNL     1     -11.466   6.239  70.532  1.00  0.00    -0.407 C  
HETATM    6  O   UNL     1      -7.003   4.583  69.905  1.00  0.00    -0.043 OA 
HETATM    7  O   UNL     1      -9.156  12.145  66.547  1.00  0.00    -0.208 OA 
HETATM    8  C   UNL     1      -9.353   4.291  69.853  1.00  0.00    -0.232 C  
HETATM    9  C   UNL     1     -10.111   4.743  68.212  1.00  0.00    -0.109 C  
HETATM   10  C   UNL     1      -9.398   3.002  70.590  1.00  0.00    -0.221 C  
HETATM   11  C   UNL     1     -10.748  10.452  67.213  1.00  0.00    -0.331 C  
HETATM   12  C   UNL     1      -7.482   8.779  67.102  1.00  0.00    -0.088 C  
HETATM   13  H   UNL     1      -6.280   4.195  69.428  1.00  0.00     0.000 HD 
HETATM   14  C   UNL     1      -9.443   6.282  67.593  1.00  0.00    -0.115 C  
HETATM   15  C   UNL     1      -8.760   8.930  67.921  1.00  0.00    -0.129 C  
HETATM   16  C   UNL     1     -10.000   9.363  67.053  1.00  0.00    -0.282 C  
HETATM   17  O   UNL     1      -8.244   5.941  66.900  1.00  0.00    -0.105 OA 
HETATM   18  C   UNL     1      -9.132   7.582  68.640  1.00  0.00    -0.134 C  
HETATM   19  C   UNL     1      -8.164   7.246  69.984  1.00  0.00    -0.132 C  
HETATM   20  H   UNL     1      -7.890   6.759  66.570  1.00  0.00     0.000 HD 
HETATM   21  C   UNL     1      -8.039   8.512  70.911  1.00  0.00    -0.127 C  
HETATM   22  C   UNL     1      -7.585   9.744  70.123  1.00  0.00    -0.180 C  
HETATM   23 CL   UNL     1      -9.542   9.014  71.754  1.00  0.00    -0.343 Cl 
HETATM   24  C   UNL     1      -8.479  10.041  68.954  1.00  0.00    -0.132 C  
HETATM   25  C   UNL     1      -8.934  11.284  68.740  1.00  0.00    -0.116 C  
HETATM   26  C   UNL     1      -9.569  11.399  67.422  1.00  0.00    -0.174 C  
ENDROOT
BRANCH   4  27
HETATM   27  C   UNL     1      -7.952   3.439  68.166  1.00  0.00    -0.074 C  
HETATM   28  O   UNL     1      -8.782   2.928  67.393  1.00  0.00    -0.102 OA 
BRANCH  27  29
HETATM   29  C   UNL     1      -6.610   2.654  68.247  1.00  0.00    -0.036 C  
HETATM   30  O   UNL     1      -5.522   3.379  67.671  1.00  0.00    -0.016 OA 
HETATM   31  H   UNL     1      -4.703   2.901  67.720  1.00  0.00     0.000 HD 
ENDBRANCH  27  29
ENDBRANCH   4  27
TORSDOF 2
ENDMDL
MODEL       63
REMARK 921   NORMALIZED FREE ENERGY PREDICTED BY IDOCK:   -4.04 KCAL/MOL
REMARK 922        TOTAL FREE ENERGY PREDICTED BY IDOCK:   -3.87 KCAL/MOL
REMARK 923 INTER-LIGAND FREE ENERGY PREDICTED BY IDOCK:   -4.70 KCAL/MOL
REMARK 924 INTRA-LIGAND FREE ENERGY PREDICTED BY IDOCK:    0.83 KCAL/MOL
REMARK 927      BINDING AFFINITY PREDICTED BY RF-SCORE:    0.00 PKD
ROOT
HETATM    1  C   UNL     1      -8.126   9.473  65.897  1.00  0.00    -0.115 C  
HETATM    2  C   UNL     1      -8.708   8.367  65.275  1.00  0.00    -0.148 C  
HETATM    3  C   UNL     1      -9.441   8.903  66.457  1.00  0.00    -0.272 C  
HETATM    4  C   UNL     1      -9.015  10.902  66.887  1.00  0.00    -0.151 C  
HETATM    5  C   UNL     1     -10.288   7.424  66.490  1.00  0.00    -0.108 C  
HETATM    6  O   UNL     1      -7.903  11.577  66.156  1.00  0.00    -0.365 OA 
HETATM    7  O   UNL     1      -6.785   6.668  73.067  1.00  0.00    -0.067 OA 
HETATM    8  C   UNL     1      -9.901  10.314  66.020  1.00  0.00    -0.292 C  
HETATM    9  C   UNL     1     -10.824  10.227  67.635  1.00  0.00    -0.363 C  
HETATM   10  C   UNL     1     -10.355  10.823  64.699  1.00  0.00    -0.394 C  
HETATM   11  C   UNL     1      -8.678   6.499  71.572  1.00  0.00    -0.132 C  
HETATM   12  C   UNL     1      -7.052   9.696  70.786  1.00  0.00    -0.080 C  
HETATM   13  H   UNL     1      -7.709  12.486  66.352  1.00  0.00     0.000 HD 
HETATM   14  C   UNL     1      -9.714   9.896  68.998  1.00  0.00    -0.193 C  
HETATM   15  C   UNL     1      -7.683   8.451  70.169  1.00  0.00    -0.083 C  
HETATM   16  C   UNL     1      -8.722   7.750  71.121  1.00  0.00    -0.141 C  
HETATM   17  O   UNL     1      -9.201  11.163  69.406  1.00  0.00    -0.395 OA 
HETATM   18  C   UNL     1      -8.428   8.801  68.829  1.00  0.00    -0.129 C  
HETATM   19  C   UNL     1      -7.383   9.068  67.527  1.00  0.00    -0.081 C  
HETATM   20  H   UNL     1      -8.612  10.987  70.130  1.00  0.00     0.000 HD 
HETATM   21  C   UNL     1      -6.301   7.928  67.438  1.00  0.00    -0.055 C  
HETATM   22  C   UNL     1      -5.577   7.735  68.774  1.00  0.00    -0.027 C  
HETATM   23 CL   UNL     1      -6.914   6.302  66.990  1.00  0.00    -0.069 Cl 
HETATM   24  C   UNL     1      -6.523   7.468  69.908  1.00  0.00    -0.034 C  
HETATM   25  C   UNL     1      -6.301   6.455  70.760  1.00  0.00    -0.040 C  
HETATM   26  C   UNL     1      -7.193   6.532  71.922  1.00  0.00    -0.086 C  
ENDROOT
BRANCH   4  27
HETATM   27  C   UNL     1      -9.844  12.458  66.985  1.00  0.00    -0.211 C  
HETATM   28  O   UNL     1     -11.015  12.599  67.381  1.00  0.00    -0.240 OA 
BRANCH  27  29
HETATM   29  C   UNL     1      -9.200  13.776  66.463  1.00  0.00    -0.192 C  
HETATM   30  O   UNL     1      -9.914  14.937  66.891  1.00  0.00    -0.236 OA 
HETATM   31  H   UNL     1      -9.521  15.741  66.572  1.00  0.00     0.000 HD 
ENDBRANCH  27  29
ENDBRANCH   4  27
TORSDOF 2
ENDMDL
MODEL       64
REMARK 921   NORMALIZED FREE ENERGY PREDICTED BY IDOCK:   -3.92 KCAL/MOL
REMARK 922        TOTAL FREE ENERGY PREDICTED BY IDOCK:   -3.73 KCAL/MOL
REMARK 923 INTER-LIGAND FREE ENERGY PREDICTED BY IDOCK:   -4.39 KCAL/MOL
REMARK 924 INTRA-LIGAND FREE ENERGY PREDICTED BY IDOCK:    0.66 KCAL/MOL
REMARK 927      BINDING AFFINITY PREDICTED BY RF-SCORE:    0.00 PKD
ROOT
HETATM    1  C   UNL     1      -6.654   5.142  65.697  1.00  0.00    -0.044 C  
HETATM    2  C   UNL     1      -5.644   4.730  66.568  1.00  0.00    -0.017 C  
HETATM    3  C   UNL     1      -6.968   4.071  66.757  1.00  0.00    -0.059 C  
HETATM    4  C   UNL     1      -8.190   4.115  65.064  1.00  0.00    -0.102 C  
HETATM    5  C   UNL     1      -6.401   3.573  68.286  1.00  0.00    -0.036 C  
HETATM    6  O   UNL     1      -7.774   4.943  63.894  1.00  0.00    -0.070 OA 
HETATM    7  O   UNL     1     -11.901   8.043  70.711  1.00  0.00    -0.261 OA 
HETATM    8  C   UNL     1      -7.188   3.264  65.457  1.00  0.00    -0.071 C  
HETATM    9  C   UNL     1      -8.647   2.615  66.417  1.00  0.00    -0.112 C  
HETATM   10  C   UNL     1      -6.226   2.530  64.593  1.00  0.00    -0.019 C  
HETATM   11  C   UNL     1     -10.547   6.040  70.737  1.00  0.00    -0.316 C  
HETATM   12  C   UNL     1     -11.133   6.817  67.197  1.00  0.00    -0.404 C  
HETATM   13  H   UNL     1      -8.329   4.964  63.125  1.00  0.00     0.000 HD 
HETATM   14  C   UNL     1      -9.698   3.950  66.976  1.00  0.00    -0.148 C  
HETATM   15  C   UNL     1     -10.069   6.388  68.204  1.00  0.00    -0.167 C  
HETATM   16  C   UNL     1     -10.672   5.667  69.466  1.00  0.00    -0.380 C  
HETATM   17  O   UNL     1     -10.586   4.231  65.896  1.00  0.00    -0.467 OA 
HETATM   18  C   UNL     1      -9.033   5.404  67.545  1.00  0.00    -0.108 C  
HETATM   19  C   UNL     1      -7.930   6.175  66.522  1.00  0.00    -0.105 C  
HETATM   20  H   UNL     1     -11.145   4.940  66.193  1.00  0.00     0.000 HD 
HETATM   21  C   UNL     1      -7.326   7.453  67.215  1.00  0.00    -0.098 C  
HETATM   22  C   UNL     1      -8.425   8.381  67.739  1.00  0.00    -0.131 C  
HETATM   23 CL   UNL     1      -6.253   7.146  68.620  1.00  0.00    -0.030 Cl 
HETATM   24  C   UNL     1      -9.373   7.683  68.670  1.00  0.00    -0.147 C  
HETATM   25  C   UNL     1      -9.706   8.233  69.847  1.00  0.00    -0.180 C  
HETATM   26  C   UNL     1     -10.822   7.518  70.473  1.00  0.00    -0.240 C  
ENDROOT
BRANCH   4  27
HETATM   27  C   UNL     1      -8.970   2.993  63.945  1.00  0.00    -0.097 C  
HETATM   28  O   UNL     1      -8.942   1.757  64.067  1.00  0.00    -0.090 OA 
BRANCH  27  29
HETATM   29  C   UNL     1      -9.660   3.475  62.635  1.00  0.00    -0.102 C  
HETATM   30  O   UNL     1     -10.389   4.690  62.821  1.00  0.00    -0.389 OA 
HETATM   31  H   UNL     1     -10.811   4.984  62.022  1.00  0.00     0.000 HD 
ENDBRANCH  27  29
ENDBRANCH   4  27
TORSDOF 2
ENDMDL
MODEL       65
REMARK 921   NORMALIZED FREE ENERGY PREDICTED BY IDOCK:   -3.86 KCAL/MOL
REMARK 922        TOTAL FREE ENERGY PREDICTED BY IDOCK:   -3.66 KCAL/MOL
REMARK 923 INTER-LIGAND FREE ENERGY PREDICTED BY IDOCK:   -4.73 KCAL/MOL
REMARK 924 INTRA-LIGAND FREE ENERGY PREDICTED BY IDOCK:    1.07 KCAL/MOL
REMARK 927      BINDING AFFINITY PREDICTED BY RF-SCORE:    0.00 PKD
ROOT
HETATM    1  C   UNL     1      -9.968  15.566  69.168  1.00  0.00    -0.246 C  
HETATM    2  C   UNL     1     -10.203  16.271  67.986  1.00  0.00    -0.256 C  
HETATM    3  C   UNL     1     -10.662  14.854  67.993  1.00  0.00    -0.253 C  
HETATM    4  C   UNL     1     -10.994  14.075  69.902  1.00  0.00     0.107 C  
HETATM    5  C   UNL     1     -10.752  14.969  66.294  1.00  0.00    -0.322 C  
HETATM    6  O   UNL     1     -10.572  14.873  71.091  1.00  0.00    -0.478 OA 
HETATM    7  O   UNL     1      -5.313   9.829  66.618  1.00  0.00    -0.043 OA 
HETATM    8  C   UNL     1     -11.783  14.814  69.057  1.00  0.00    -0.343 C  
HETATM    9  C   UNL     1     -12.001  13.090  68.384  1.00  0.00    -0.309 C  
HETATM   10  C   UNL     1     -12.813  15.822  69.422  1.00  0.00     0.685 C  
HETATM   11  C   UNL     1      -7.337  10.809  65.730  1.00  0.00    -0.061 C  
HETATM   12  C   UNL     1      -7.551  11.181  69.376  1.00  0.00    -0.013 C  
HETATM   13  H   UNL     1     -10.723  14.519  71.959  1.00  0.00     0.000 HD 
HETATM   14  C   UNL     1     -10.476  12.161  68.479  1.00  0.00    -0.233 C  
HETATM   15  C   UNL     1      -7.767  11.905  68.050  1.00  0.00    -0.132 C  
HETATM   16  C   UNL     1      -8.044  10.923  66.851  1.00  0.00    -0.137 C  
HETATM   17  O   UNL     1     -10.437  11.601  69.789  1.00  0.00    -0.373 OA 
HETATM   18  C   UNL     1      -8.984  12.897  68.141  1.00  0.00    -0.202 C  
HETATM   19  C   UNL     1      -8.636  14.313  68.998  1.00  0.00     0.060 C  
HETATM   20  H   UNL     1      -9.627  11.107  69.840  1.00  0.00     0.000 HD 
HETATM   21  C   UNL     1      -7.272  14.933  68.517  1.00  0.00    -0.113 C  
HETATM   22  C   UNL     1      -6.140  13.902  68.554  1.00  0.00    -0.093 C  
HETATM   23 CL   UNL     1      -7.259  15.594  66.848  1.00  0.00    -0.165 Cl 
HETATM   24  C   UNL     1      -6.459  12.669  67.760  1.00  0.00    -0.128 C  
HETATM   25  C   UNL     1      -5.570  12.165  66.892  1.00  0.00    -0.009 C  
HETATM   26  C   UNL     1      -5.977  10.837  66.422  1.00  0.00    -0.110 C  
ENDROOT
BRANCH   4  27
HETATM   27  C   UNL     1     -12.315  13.408  70.866  1.00  0.00    -0.353 C  
HETATM   28  O   UNL     1     -12.882  12.330  70.616  1.00  0.00    -0.098 OA 
BRANCH  27  29
HETATM   29  C   UNL     1     -12.955  14.190  72.050  1.00  0.00    -0.360 C  
HETATM   30  O   UNL     1     -13.985  13.443  72.701  1.00  0.00    -0.755 OA 
HETATM   31  H   UNL     1     -14.376  13.921  73.423  1.00  0.00     0.000 HD 
ENDBRANCH  27  29
ENDBRANCH   4  27
TORSDOF 2
ENDMDL
MODEL       66
REMARK 921   NORMALIZED FREE ENERGY PREDICTED BY IDOCK:   -3.81 KCAL/MOL
REMARK 922        TOTAL FREE ENERGY PREDICTED BY IDOCK:   -3.61 KCAL/MOL
REMARK 923 INTER-LIGAND FREE ENERGY PREDICTED BY IDOCK:   -4.23 KCAL/MOL
REMARK 924 INTRA-LIGAND FREE ENERGY PREDICTED BY IDOCK:    0.62 KCAL/MOL
REMARK 927      BINDING AFFINITY PREDICTED BY RF-SCORE:    0.00 PKD
ROOT
HETATM    1  C   UNL     1     -10.468   8.439  68.077  1.00  0.00    -0.242 C  
HETATM    2  C   UNL     1     -10.826   9.035  69.288  1.00  0.00    -0.131 C  
HETATM    3  C   UNL     1      -9.369   9.035  68.975  1.00  0.00    -0.140 C  
HETATM    4  C   UNL     1      -8.935   8.854  66.941  1.00  0.00    -0.128 C  
HETATM    5  C   UNL     1      -9.107   9.385  70.623  1.00  0.00    -0.292 C  
HETATM    6  O   UNL     1     -10.042   8.538  65.991  1.00  0.00    -0.473 OA 
HETATM    7  O   UNL     1      -5.834   2.648  70.541  1.00  0.00    -0.016 OA 
HETATM    8  C   UNL     1      -9.240   9.937  67.725  1.00  0.00    -0.141 C  
HETATM    9  C   UNL     1      -7.424   9.709  68.070  1.00  0.00    -0.082 C  
HETATM   10  C   UNL     1      -9.979  11.165  67.333  1.00  0.00    -0.204 C  
HETATM   11  C   UNL     1      -6.020   4.974  71.172  1.00  0.00    -0.017 C  
HETATM   12  C   UNL     1      -7.053   4.797  67.653  1.00  0.00    -0.062 C  
HETATM   13  H   UNL     1      -9.845   8.455  65.066  1.00  0.00     0.000 HD 
HETATM   14  C   UNL     1      -6.988   7.975  68.122  1.00  0.00    -0.077 C  
HETATM   15  C   UNL     1      -7.403   5.400  69.010  1.00  0.00    -0.070 C  
HETATM   16  C   UNL     1      -6.161   5.524  69.968  1.00  0.00    -0.026 C  
HETATM   17  O   UNL     1      -6.739   7.590  66.772  1.00  0.00    -0.058 OA 
HETATM   18  C   UNL     1      -8.021   6.837  68.845  1.00  0.00    -0.116 C  
HETATM   19  C   UNL     1      -9.621   6.824  68.300  1.00  0.00    -0.127 C  
HETATM   20  H   UNL     1      -6.508   6.669  66.800  1.00  0.00     0.000 HD 
HETATM   21  C   UNL     1     -10.481   5.792  69.120  1.00  0.00    -0.276 C  
HETATM   22  C   UNL     1      -9.830   4.407  69.139  1.00  0.00    -0.198 C  
HETATM   23 CL   UNL     1     -10.765   6.207  70.843  1.00  0.00    -0.299 Cl 
HETATM   24  C   UNL     1      -8.421   4.439  69.657  1.00  0.00    -0.089 C  
HETATM   25  C   UNL     1      -8.016   3.564  70.589  1.00  0.00    -0.056 C  
HETATM   26  C   UNL     1      -6.560   3.607  70.762  1.00  0.00    -0.032 C  
ENDROOT
BRANCH   4  27
HETATM   27  C   UNL     1      -8.141   9.765  65.653  1.00  0.00    -0.120 C  
HETATM   28  O   UNL     1      -7.146  10.491  65.826  1.00  0.00    -0.131 OA 
BRANCH  27  29
HETATM   29  C   UNL     1      -8.710   9.822  64.204  1.00  0.00    -0.213 C  
HETATM   30  O   UNL     1      -8.742   8.536  63.584  1.00  0.00    -0.420 OA 
HETATM   31  H   UNL     1      -9.089   8.570  62.700  1.00  0.00     0.000 HD 
ENDBRANCH  27  29
ENDBRANCH   4  27
TORSDOF 2
ENDMDL
MODEL       67
REMARK 921   NORMALIZED FREE ENERGY PREDICTED BY IDOCK:   -3.71 KCAL/MOL
REMARK 922        TOTAL FREE ENERGY PREDICTED BY IDOCK:   -3.50 KCAL/MOL
REMARK 923 INTER-LIGAND FREE ENERGY PREDICTED BY IDOCK:   -4.11 KCAL/MOL
REMARK 924 INTRA-LIGAND FREE ENERGY PREDICTED BY IDOCK:    0.61 KCAL/MOL
REMARK 927      BINDING AFFINITY PREDICTED BY RF-SCORE:    0.00 PKD
ROOT
HETATM    1  C   UNL     1      -9.298   8.360  70.660  1.00  0.00    -0.182 C  
HETATM    2  C   UNL     1     -10.689   8.460  70.617  1.00  0.00    -0.245 C  
HETATM    3  C   UNL     1     -10.147   7.082  70.781  1.00  0.00    -0.205 C  
HETATM    4  C   UNL     1      -8.217   7.017  71.576  1.00  0.00    -0.108 C  
HETATM    5  C   UNL     1     -11.689   6.517  70.323  1.00  0.00    -0.430 C  
HETATM    6  O   UNL     1      -7.454   8.291  71.727  1.00  0.00    -0.081 OA 
HETATM    7  O   UNL     1      -7.902   3.831  64.446  1.00  0.00    -0.083 OA 
HETATM    8  C   UNL     1      -9.454   7.100  72.163  1.00  0.00    -0.152 C  
HETATM    9  C   UNL     1      -9.309   5.274  71.823  1.00  0.00    -0.175 C  
HETATM   10  C   UNL     1      -9.817   7.799  73.424  1.00  0.00    -0.346 C  
HETATM   11  C   UNL     1      -9.556   3.728  66.206  1.00  0.00    -0.176 C  
HETATM   12  C   UNL     1      -6.614   5.356  67.680  1.00  0.00    -0.053 C  
HETATM   13  H   UNL     1      -6.576   8.261  72.088  1.00  0.00     0.000 HD 
HETATM   14  C   UNL     1      -8.474   4.970  70.271  1.00  0.00    -0.099 C  
HETATM   15  C   UNL     1      -8.135   5.423  67.575  1.00  0.00    -0.101 C  
HETATM   16  C   UNL     1      -8.792   4.030  67.252  1.00  0.00    -0.130 C  
HETATM   17  O   UNL     1      -7.079   4.985  70.564  1.00  0.00    -0.049 OA 
HETATM   18  C   UNL     1      -8.770   5.948  68.915  1.00  0.00    -0.116 C  
HETATM   19  C   UNL     1      -8.589   7.614  69.138  1.00  0.00    -0.139 C  
HETATM   20  H   UNL     1      -6.635   4.823  69.740  1.00  0.00     0.000 HD 
HETATM   21  C   UNL     1      -8.985   8.398  67.832  1.00  0.00    -0.137 C  
HETATM   22  C   UNL     1      -8.241   7.861  66.607  1.00  0.00    -0.119 C  
HETATM   23 CL   UNL     1     -10.724   8.351  67.391  1.00  0.00    -0.300 Cl 
HETATM   24  C   UNL     1      -8.443   6.386  66.410  1.00  0.00    -0.123 C  
HETATM   25  C   UNL     1      -8.773   5.896  65.207  1.00  0.00    -0.078 C  
HETATM   26  C   UNL     1      -8.671   4.433  65.182  1.00  0.00    -0.130 C  
ENDROOT
BRANCH   4  27
HETATM   27  C   UNL     1      -7.372   6.387  72.993  1.00  0.00    -0.090 C  
HETATM   28  O   UNL     1      -7.754   5.403  73.650  1.00  0.00    -0.101 OA 
BRANCH  27  29
HETATM   29  C   UNL     1      -6.130   7.101  73.604  1.00  0.00    -0.058 C  
HETATM   30  O   UNL     1      -6.495   8.159  74.492  1.00  0.00    -0.105 OA 
HETATM   31  H   UNL     1      -5.738   8.596  74.864  1.00  0.00     0.000 HD 
ENDBRANCH  27  29
ENDBRANCH   4  27
TORSDOF 2
ENDMDL
MODEL       68
REMARK 921   NORMALIZED FREE ENERGY PREDICTED BY IDOCK:   -3.68 KCAL/MOL
REMARK 922        TOTAL FREE ENERGY PREDICTED BY IDOCK:   -3.47 KCAL/MOL
REMARK 923 INTER-LIGAND FREE ENERGY PREDICTED BY IDOCK:   -4.46 KCAL/MOL
REMARK 924 INTRA-LIGAND FREE ENERGY PREDICTED BY IDOCK:    0.99 KCAL/MOL
REMARK 927      BINDING AFFINITY PREDICTED BY RF-SCORE:    0.00 PKD
ROOT
HETATM    1  C   UNL     1     -10.081   9.516  68.635  1.00  0.00    -0.198 C  
HETATM    2  C   UNL     1      -9.532  10.410  69.557  1.00  0.00    -0.164 C  
HETATM    3  C   UNL     1      -8.680   9.237  69.209  1.00  0.00    -0.141 C  
HETATM    4  C   UNL     1      -9.140   8.368  67.367  1.00  0.00    -0.137 C  
HETATM    5  C   UNL     1      -7.768   9.600  70.603  1.00  0.00    -0.099 C  
HETATM    6  O   UNL     1     -10.367   8.815  66.643  1.00  0.00    -0.279 OA 
HETATM    7  O   UNL     1     -10.369   2.951  72.865  1.00  0.00    -0.143 OA 
HETATM    8  C   UNL     1      -8.346   9.431  67.711  1.00  0.00    -0.115 C  
HETATM    9  C   UNL     1      -7.221   7.984  68.044  1.00  0.00    -0.094 C  
HETATM   10  C   UNL     1      -8.087  10.666  66.925  1.00  0.00    -0.124 C  
HETATM   11  C   UNL     1      -8.676   4.656  72.606  1.00  0.00    -0.117 C  
HETATM   12  C   UNL     1     -10.534   4.591  69.441  1.00  0.00     0.464 C  
HETATM   13  H   UNL     1     -10.576   8.420  65.805  1.00  0.00     0.000 HD 
HETATM   14  C   UNL     1      -8.132   6.597  68.711  1.00  0.00    -0.119 C  
HETATM   15  C   UNL     1      -9.930   5.514  70.495  1.00  0.00    -0.276 C  
HETATM   16  C   UNL     1      -8.747   4.849  71.292  1.00  0.00    -0.142 C  
HETATM   17  O   UNL     1      -8.648   5.887  67.587  1.00  0.00    -0.105 OA 
HETATM   18  C   UNL     1      -9.378   6.833  69.840  1.00  0.00    -0.157 C  
HETATM   19  C   UNL     1     -10.591   7.926  69.400  1.00  0.00    -0.209 C  
HETATM   20  H   UNL     1      -9.132   5.150  67.941  1.00  0.00     0.000 HD 
HETATM   21  C   UNL     1     -11.622   8.116  70.575  1.00  0.00    -0.127 C  
HETATM   22  C   UNL     1     -12.160   6.773  71.074  1.00  0.00    -0.426 C  
HETATM   23 CL   UNL     1     -10.996   8.950  72.036  1.00  0.00    -0.435 Cl 
HETATM   24  C   UNL     1     -11.067   5.832  71.488  1.00  0.00    -0.281 C  
HETATM   25  C   UNL     1     -11.132   5.182  72.660  1.00  0.00    -0.298 C  
HETATM   26  C   UNL     1     -10.104   4.138  72.747  1.00  0.00    -0.161 C  
ENDROOT
BRANCH   4  27
HETATM   27  C   UNL     1      -8.378   8.055  65.804  1.00  0.00    -0.138 C  
HETATM   28  O   UNL     1      -7.371   7.342  65.652  1.00  0.00    -0.070 OA 
BRANCH  27  29
HETATM   29  C   UNL     1      -8.849   8.757  64.496  1.00  0.00     0.033 C  
HETATM   30  O   UNL     1      -8.541   7.993  63.329  1.00  0.00    -0.403 OA 
HETATM   31  H   UNL     1      -8.829   8.421  62.531  1.00  0.00     0.000 HD 
ENDBRANCH  27  29
ENDBRANCH   4  27
TORSDOF 2
ENDMDL
MODEL       69
REMARK 921   NORMALIZED FREE ENERGY PREDICTED BY IDOCK:   -3.67 KCAL/MOL
REMARK 922        TOTAL FREE ENERGY PREDICTED BY IDOCK:   -3.45 KCAL/MOL
REMARK 923 INTER-LIGAND FREE ENERGY PREDICTED BY IDOCK:   -4.25 KCAL/MOL
REMARK 924 INTRA-LIGAND FREE ENERGY PREDICTED BY IDOCK:    0.79 KCAL/MOL
REMARK 927      BINDING AFFINITY PREDICTED BY RF-SCORE:    0.00 PKD
ROOT
HETATM    1  C   UNL     1      -8.005   6.517  69.962  1.00  0.00    -0.116 C  
HETATM    2  C   UNL     1      -6.691   6.912  69.704  1.00  0.00    -0.050 C  
HETATM    3  C   UNL     1      -7.488   7.837  70.559  1.00  0.00    -0.074 C  
HETATM    4  C   UNL     1      -9.100   6.927  71.526  1.00  0.00    -0.144 C  
HETATM    5  C   UNL     1      -6.302   9.018  70.231  1.00  0.00    -0.044 C  
HETATM    6  O   UNL     1      -9.467   5.528  71.158  1.00  0.00    -0.154 OA 
HETATM    7  O   UNL     1     -12.024  12.433  66.812  1.00  0.00    -0.559 OA 
HETATM    8  C   UNL     1      -7.770   7.029  71.847  1.00  0.00    -0.093 C  
HETATM    9  C   UNL     1      -8.434   8.673  72.420  1.00  0.00    -0.121 C  
HETATM   10  C   UNL     1      -6.933   6.043  72.579  1.00  0.00    -0.079 C  
HETATM   11  C   UNL     1     -10.043  12.355  68.195  1.00  0.00    -0.224 C  
HETATM   12  C   UNL     1     -12.016   9.391  69.090  1.00  0.00     1.038 C  
HETATM   13  H   UNL     1     -10.200   5.114  71.597  1.00  0.00     0.000 HD 
HETATM   14  C   UNL     1      -9.693   9.285  71.308  1.00  0.00    -0.229 C  
HETATM   15  C   UNL     1     -10.606   9.883  68.778  1.00  0.00    -0.246 C  
HETATM   16  C   UNL     1     -10.411  11.418  69.065  1.00  0.00    -0.196 C  
HETATM   17  O   UNL     1     -10.917   8.688  71.731  1.00  0.00    -0.276 OA 
HETATM   18  C   UNL     1      -9.536   9.103  69.627  1.00  0.00    -0.178 C  
HETATM   19  C   UNL     1      -9.245   7.534  69.067  1.00  0.00    -0.146 C  
HETATM   20  H   UNL     1     -11.587   9.014  71.140  1.00  0.00     0.000 HD 
HETATM   21  C   UNL     1      -9.027   7.531  67.508  1.00  0.00    -0.126 C  
HETATM   22  C   UNL     1     -10.173   8.238  66.778  1.00  0.00    -0.375 C  
HETATM   23 CL   UNL     1      -7.528   8.329  66.927  1.00  0.00    -0.087 Cl 
HETATM   24  C   UNL     1     -10.390   9.640  67.270  1.00  0.00    -0.310 C  
HETATM   25  C   UNL     1     -10.514  10.657  66.405  1.00  0.00    -0.276 C  
HETATM   26  C   UNL     1     -10.968  11.877  67.079  1.00  0.00    -0.278 C  
ENDROOT
BRANCH   4  27
HETATM   27  C   UNL     1      -9.671   6.605  73.166  1.00  0.00    -0.160 C  
HETATM   28  O   UNL     1      -9.558   7.405  74.111  1.00  0.00    -0.243 OA 
BRANCH  27  29
HETATM   29  C   UNL     1     -10.261   5.226  73.583  1.00  0.00    -0.210 C  
HETATM   30  O   UNL     1     -11.657   5.299  73.877  1.00  0.00    -0.293 OA 
HETATM   31  H   UNL     1     -12.017   4.458  74.131  1.00  0.00     0.000 HD 
ENDBRANCH  27  29
ENDBRANCH   4  27
TORSDOF 2
ENDMDL
MODEL       70
REMARK 921   NORMALIZED FREE ENERGY PREDICTED BY IDOCK:   -3.63 KCAL/MOL
REMARK 922        TOTAL FREE ENERGY PREDICTED BY IDOCK:   -3.41 KCAL/MOL
REMARK 923 INTER-LIGAND FREE ENERGY PREDICTED BY IDOCK:   -4.34 KCAL/MOL
REMARK 924 INTRA-LIGAND FREE ENERGY PREDICTED BY IDOCK:    0.93 KCAL/MOL
REMARK 927      BINDING AFFINITY PREDICTED BY RF-SCORE:    0.00 PKD
ROOT
HETATM    1  C   UNL     1      -8.967   8.783  70.137  1.00  0.00    -0.173 C  
HETATM    2  C   UNL     1      -8.650   9.263  68.865  1.00  0.00    -0.130 C  
HETATM    3  C   UNL     1      -9.578   8.098  68.902  1.00  0.00    -0.153 C  
HETATM    4  C   UNL     1     -10.602   7.882  70.709  1.00  0.00    -0.214 C  
HETATM    5  C   UNL     1      -9.224   7.879  67.249  1.00  0.00    -0.167 C  
HETATM    6  O   UNL     1     -10.208   8.735  71.869  1.00  0.00    -0.301 OA 
HETATM    7  O   UNL     1      -6.245   1.469  69.726  1.00  0.00    -0.023 OA 
HETATM    8  C   UNL     1     -10.852   8.639  69.593  1.00  0.00    -0.163 C  
HETATM    9  C   UNL     1     -11.516   6.973  69.089  1.00  0.00     0.077 C  
HETATM   10  C   UNL     1     -11.503   9.973  69.525  1.00  0.00    -0.176 C  
HETATM   11  C   UNL     1      -7.512   2.831  68.183  1.00  0.00    -0.052 C  
HETATM   12  C   UNL     1      -8.416   4.005  71.542  1.00  0.00    -0.107 C  
HETATM   13  H   UNL     1     -10.674   8.637  72.691  1.00  0.00     0.000 HD 
HETATM   14  C   UNL     1     -10.496   5.650  69.728  1.00  0.00    -0.306 C  
HETATM   15  C   UNL     1      -8.043   4.465  70.136  1.00  0.00    -0.059 C  
HETATM   16  C   UNL     1      -8.369   3.394  69.030  1.00  0.00    -0.082 C  
HETATM   17  O   UNL     1     -10.967   5.393  71.049  1.00  0.00    -0.179 OA 
HETATM   18  C   UNL     1      -8.804   5.788  69.755  1.00  0.00    -0.129 C  
HETATM   19  C   UNL     1      -8.177   7.166  70.507  1.00  0.00    -0.125 C  
HETATM   20  H   UNL     1     -10.425   4.690  71.389  1.00  0.00     0.000 HD 
HETATM   21  C   UNL     1      -6.609   7.209  70.373  1.00  0.00    -0.047 C  
HETATM   22  C   UNL     1      -5.968   5.904  70.856  1.00  0.00    -0.029 C  
HETATM   23 CL   UNL     1      -5.972   7.467  68.716  1.00  0.00    -0.026 Cl 
HETATM   24  C   UNL     1      -6.518   4.698  70.151  1.00  0.00    -0.035 C  
HETATM   25  C   UNL     1      -5.695   3.769  69.642  1.00  0.00    -0.018 C  
HETATM   26  C   UNL     1      -6.434   2.571  69.232  1.00  0.00    -0.029 C  
ENDROOT
BRANCH   4  27
HETATM   27  C   UNL     1     -12.260   7.884  71.320  1.00  0.00    -0.294 C  
HETATM   28  O   UNL     1     -13.155   7.129  70.902  1.00  0.00    -0.240 OA 
BRANCH  27  29
HETATM   29  C   UNL     1     -12.760   8.930  72.359  1.00  0.00    -0.368 C  
HETATM   30  O   UNL     1     -13.982   8.533  72.983  1.00  0.00    -0.792 OA 
HETATM   31  H   UNL     1     -14.288   9.171  73.617  1.00  0.00     0.000 HD 
ENDBRANCH  27  29
ENDBRANCH   4  27
TORSDOF 2
ENDMDL
MODEL       71
REMARK 921   NORMALIZED FREE ENERGY PREDICTED BY IDOCK:   -3.59 KCAL/MOL
REMARK 922        TOTAL FREE ENERGY PREDICTED BY IDOCK:   -3.36 KCAL/MOL
REMARK 923 INTER-LIGAND FREE ENERGY PREDICTED BY IDOCK:   -4.02 KCAL/MOL
REMARK 924 INTRA-LIGAND FREE ENERGY PREDICTED BY IDOCK:    0.65 KCAL/MOL
REMARK 927      BINDING AFFINITY PREDICTED BY RF-SCORE:    0.00 PKD
ROOT
HETATM    1  C   UNL     1      -6.740  13.648  67.697  1.00  0.00    -0.185 C  
HETATM    2  C   UNL     1      -6.122  13.907  68.922  1.00  0.00    -0.087 C  
HETATM    3  C   UNL     1      -7.612  13.936  68.932  1.00  0.00    -0.060 C  
HETATM    4  C   UNL     1      -8.495  12.853  67.380  1.00  0.00    -0.196 C  
HETATM    5  C   UNL     1      -7.496  14.756  70.423  1.00  0.00     0.622 C  
HETATM    6  O   UNL     1      -7.630  12.318  66.288  1.00  0.00    -0.201 OA 
HETATM    7  O   UNL     1     -10.632  20.321  66.512  1.00  0.00    -0.324 OA 
HETATM    8  C   UNL     1      -8.031  12.482  68.616  1.00  0.00    -0.029 C  
HETATM    9  C   UNL     1      -9.719  13.156  69.024  1.00  0.00     0.310 C  
HETATM   10  C   UNL     1      -7.413  11.186  69.004  1.00  0.00    -0.124 C  
HETATM   11  C   UNL     1     -10.331  18.928  68.464  1.00  0.00    -0.312 C  
HETATM   12  C   UNL     1     -10.124  16.673  65.574  1.00  0.00    -0.163 C  
HETATM   13  H   UNL     1      -8.031  11.826  65.583  1.00  0.00     0.000 HD 
HETATM   14  C   UNL     1     -10.113  14.571  68.004  1.00  0.00    -0.226 C  
HETATM   15  C   UNL     1      -9.480  17.021  66.913  1.00  0.00    -0.266 C  
HETATM   16  C   UNL     1     -10.473  17.727  67.909  1.00  0.00    -0.401 C  
HETATM   17  O   UNL     1     -10.658  14.047  66.796  1.00  0.00    -0.275 OA 
HETATM   18  C   UNL     1      -8.931  15.730  67.626  1.00  0.00    -0.190 C  
HETATM   19  C   UNL     1      -7.497  15.146  66.949  1.00  0.00     0.085 C  
HETATM   20  H   UNL     1     -10.868  14.799  66.254  1.00  0.00     0.000 HD 
HETATM   21  C   UNL     1      -6.462  16.313  66.740  1.00  0.00     0.075 C  
HETATM   22  C   UNL     1      -7.078  17.477  65.958  1.00  0.00    -0.299 C  
HETATM   23 CL   UNL     1      -5.798  17.045  68.238  1.00  0.00    -0.129 Cl 
HETATM   24  C   UNL     1      -8.332  18.000  66.596  1.00  0.00    -0.284 C  
HETATM   25  C   UNL     1      -8.506  19.317  66.783  1.00  0.00    -0.321 C  
HETATM   26  C   UNL     1      -9.885  19.620  67.180  1.00  0.00    -0.369 C  
ENDROOT
BRANCH   4  27
HETATM   27  C   UNL     1      -9.570  11.470  67.154  1.00  0.00    -0.177 C  
HETATM   28  O   UNL     1     -10.351  11.047  68.024  1.00  0.00    -0.175 OA 
BRANCH  27  29
HETATM   29  C   UNL     1      -9.533  10.593  65.868  1.00  0.00    -0.196 C  
HETATM   30  O   UNL     1      -8.458   9.652  65.883  1.00  0.00    -0.123 OA 
HETATM   31  H   UNL     1      -8.435   9.117  65.099  1.00  0.00     0.000 HD 
ENDBRANCH  27  29
ENDBRANCH   4  27
TORSDOF 2
ENDMDL
MODEL       72
REMARK 921   NORMALIZED FREE ENERGY PREDICTED BY IDOCK:   -3.46 KCAL/MOL
REMARK 922        TOTAL FREE ENERGY PREDICTED BY IDOCK:   -3.22 KCAL/MOL
REMARK 923 INTER-LIGAND FREE ENERGY PREDICTED BY IDOCK:   -3.89 KCAL/MOL
REMARK 924 INTRA-LIGAND FREE ENERGY PREDICTED BY IDOCK:    0.67 KCAL/MOL
REMARK 927      BINDING AFFINITY PREDICTED BY RF-SCORE:    0.00 PKD
ROOT
HETATM    1  C   UNL     1     -10.315   5.821  68.120  1.00  0.00    -0.264 C  
HETATM    2  C   UNL     1     -10.191   5.740  66.732  1.00  0.00    -0.269 C  
HETATM    3  C   UNL     1      -8.912   5.722  67.496  1.00  0.00    -0.107 C  
HETATM    4  C   UNL     1      -9.114   5.098  69.479  1.00  0.00    -0.108 C  
HETATM    5  C   UNL     1      -8.131   6.088  66.025  1.00  0.00    -0.113 C  
HETATM    6  O   UNL     1     -10.484   4.920  70.044  1.00  0.00    -0.244 OA 
HETATM    7  O   UNL     1      -6.439  12.441  69.615  1.00  0.00    -0.119 OA 
HETATM    8  C   UNL     1      -8.962   4.405  68.305  1.00  0.00    -0.149 C  
HETATM    9  C   UNL     1      -7.207   4.887  68.701  1.00  0.00    -0.058 C  
HETATM   10  C   UNL     1      -9.519   3.071  67.957  1.00  0.00    -0.217 C  
HETATM   11  C   UNL     1      -5.968  10.560  68.171  1.00  0.00    -0.043 C  
HETATM   12  C   UNL     1      -7.964   9.225  70.947  1.00  0.00    -0.161 C  
HETATM   13  H   UNL     1     -10.577   4.637  70.945  1.00  0.00     0.000 HD 
HETATM   14  C   UNL     1      -7.132   6.521  69.423  1.00  0.00    -0.077 C  
HETATM   15  C   UNL     1      -7.789   9.196  69.432  1.00  0.00    -0.095 C  
HETATM   16  C   UNL     1      -6.329   9.562  68.973  1.00  0.00    -0.042 C  
HETATM   17  O   UNL     1      -7.357   6.346  70.820  1.00  0.00    -0.073 OA 
HETATM   18  C   UNL     1      -8.126   7.774  68.852  1.00  0.00    -0.126 C  
HETATM   19  C   UNL     1      -9.783   7.447  68.790  1.00  0.00    -0.149 C  
HETATM   20  H   UNL     1      -7.317   7.214  71.204  1.00  0.00     0.000 HD 
HETATM   21  C   UNL     1     -10.566   8.655  68.155  1.00  0.00    -0.133 C  
HETATM   22  C   UNL     1     -10.229   9.974  68.855  1.00  0.00    -0.206 C  
HETATM   23 CL   UNL     1     -10.264   8.951  66.411  1.00  0.00    -0.332 Cl 
HETATM   24  C   UNL     1      -8.755  10.259  68.868  1.00  0.00    -0.152 C  
HETATM   25  C   UNL     1      -8.288  11.463  68.507  1.00  0.00    -0.153 C  
HETATM   26  C   UNL     1      -6.865  11.601  68.834  1.00  0.00    -0.101 C  
ENDROOT
BRANCH   4  27
HETATM   27  C   UNL     1      -8.549   3.806  70.542  1.00  0.00    -0.070 C  
HETATM   28  O   UNL     1      -7.468   3.210  70.398  1.00  0.00    -0.040 OA 
BRANCH  27  29
HETATM   29  C   UNL     1      -9.432   3.228  71.687  1.00  0.00    -0.150 C  
HETATM   30  O   UNL     1     -10.034   1.982  71.332  1.00  0.00    -0.143 OA 
HETATM   31  H   UNL     1     -10.573   1.629  72.030  1.00  0.00     0.000 HD 
ENDBRANCH  27  29
ENDBRANCH   4  27
TORSDOF 2
ENDMDL
MODEL       73
REMARK 921   NORMALIZED FREE ENERGY PREDICTED BY IDOCK:   -3.46 KCAL/MOL
REMARK 922        TOTAL FREE ENERGY PREDICTED BY IDOCK:   -3.22 KCAL/MOL
REMARK 923 INTER-LIGAND FREE ENERGY PREDICTED BY IDOCK:   -3.85 KCAL/MOL
REMARK 924 INTRA-LIGAND FREE ENERGY PREDICTED BY IDOCK:    0.63 KCAL/MOL
REMARK 927      BINDING AFFINITY PREDICTED BY RF-SCORE:    0.00 PKD
ROOT
HETATM    1  C   UNL     1      -8.986  11.171  68.358  1.00  0.00    -0.165 C  
HETATM    2  C   UNL     1      -8.899  10.100  67.467  1.00  0.00    -0.126 C  
HETATM    3  C   UNL     1     -10.240  10.740  67.576  1.00  0.00    -0.231 C  
HETATM    4  C   UNL     1     -10.190  12.706  68.277  1.00  0.00    -0.239 C  
HETATM    5  C   UNL     1     -10.869   9.345  66.824  1.00  0.00    -0.012 C  
HETATM    6  O   UNL     1      -8.904  13.254  68.801  1.00  0.00    -0.373 OA 
HETATM    7  O   UNL     1     -14.304   8.507  73.428  1.00  0.00     0.003 OA 
HETATM    8  C   UNL     1     -10.034  12.170  67.025  1.00  0.00    -0.213 C  
HETATM    9  C   UNL     1     -11.888  12.222  67.195  1.00  0.00    -0.328 C  
HETATM   10  C   UNL     1      -9.173  12.671  65.921  1.00  0.00     0.073 C  
HETATM   11  C   UNL     1     -14.177   8.456  71.014  1.00  0.00    -0.063 C  
HETATM   12  C   UNL     1     -12.352  11.466  72.058  1.00  0.00     0.575 C  
HETATM   13  H   UNL     1      -8.881  14.148  69.120  1.00  0.00     0.000 HD 
HETATM   14  C   UNL     1     -12.394  11.841  68.867  1.00  0.00     0.190 C  
HETATM   15  C   UNL     1     -12.307  10.261  71.123  1.00  0.00    -0.501 C  
HETATM   16  C   UNL     1     -13.733   9.690  70.785  1.00  0.00     0.119 C  
HETATM   17  O   UNL     1     -12.334  13.070  69.588  1.00  0.00    -0.189 OA 
HETATM   18  C   UNL     1     -11.609  10.630  69.762  1.00  0.00    -0.385 C  
HETATM   19  C   UNL     1      -9.927  10.757  69.880  1.00  0.00     0.250 C  
HETATM   20  H   UNL     1     -12.603  12.867  70.476  1.00  0.00     0.000 HD 
HETATM   21  C   UNL     1      -9.328   9.523  70.652  1.00  0.00    -0.199 C  
HETATM   22  C   UNL     1     -10.022   9.313  72.001  1.00  0.00     0.217 C  
HETATM   23 CL   UNL     1      -9.441   7.944  69.807  1.00  0.00    -0.163 Cl 
HETATM   24  C   UNL     1     -11.510   9.170  71.867  1.00  0.00    -0.423 C  
HETATM   25  C   UNL     1     -12.160   8.172  72.484  1.00  0.00    -0.377 C  
HETATM   26  C   UNL     1     -13.612   8.368  72.429  1.00  0.00    -0.208 C  
ENDROOT
BRANCH   4  27
HETATM   27  C   UNL     1     -10.619  14.333  67.739  1.00  0.00    -0.253 C  
HETATM   28  O   UNL     1     -11.614  14.594  67.040  1.00  0.00    -0.362 OA 
BRANCH  27  29
HETATM   29  C   UNL     1      -9.704  15.564  68.007  1.00  0.00    -0.207 C  
HETATM   30  O   UNL     1      -9.538  15.824  69.402  1.00  0.00    -0.256 OA 
HETATM   31  H   UNL     1      -8.980  16.575  69.565  1.00  0.00     0.000 HD 
ENDBRANCH  27  29
ENDBRANCH   4  27
TORSDOF 2
ENDMDL
MODEL       74
REMARK 921   NORMALIZED FREE ENERGY PREDICTED BY IDOCK:   -3.46 KCAL/MOL
REMARK 922        TOTAL FREE ENERGY PREDICTED BY IDOCK:   -3.22 KCAL/MOL
REMARK 923 INTER-LIGAND FREE ENERGY PREDICTED BY IDOCK:   -4.83 KCAL/MOL
REMARK 924 INTRA-LIGAND FREE ENERGY PREDICTED BY IDOCK:    1.62 KCAL/MOL
REMARK 927      BINDING AFFINITY PREDICTED BY RF-SCORE:    0.00 PKD
ROOT
HETATM    1  C   UNL     1     -12.020  14.925  68.606  1.00  0.00    -0.276 C  
HETATM    2  C   UNL     1     -12.047  15.278  69.957  1.00  0.00    -0.386 C  
HETATM    3  C   UNL     1     -10.693  15.180  69.343  1.00  0.00    -0.269 C  
HETATM    4  C   UNL     1     -10.682  15.400  67.266  1.00  0.00    -0.307 C  
HETATM    5  C   UNL     1     -10.075  15.128  70.931  1.00  0.00     0.741 C  
HETATM    6  O   UNL     1     -11.983  15.429  66.536  1.00  0.00     0.155 OA 
HETATM    7  O   UNL     1      -7.974   8.243  68.859  1.00  0.00    -0.109 OA 
HETATM    8  C   UNL     1     -10.661  16.312  68.290  1.00  0.00    -0.300 C  
HETATM    9  C   UNL     1      -8.871  15.808  68.184  1.00  0.00    -0.178 C  
HETATM   10  C   UNL     1     -11.258  17.674  68.308  1.00  0.00     0.336 C  
HETATM   11  C   UNL     1      -7.671  10.381  69.947  1.00  0.00    -0.083 C  
HETATM   12  C   UNL     1      -9.360  11.097  66.767  1.00  0.00    -0.193 C  
HETATM   13  H   UNL     1     -11.978  15.529  65.591  1.00  0.00     0.000 HD 
HETATM   14  C   UNL     1      -8.711  14.067  67.809  1.00  0.00    -0.185 C  
HETATM   15  C   UNL     1      -9.351  11.425  68.258  1.00  0.00    -0.187 C  
HETATM   16  C   UNL     1      -7.947  11.193  68.930  1.00  0.00    -0.126 C  
HETATM   17  O   UNL     1      -8.783  13.961  66.389  1.00  0.00    -0.451 OA 
HETATM   18  C   UNL     1      -9.755  12.924  68.508  1.00  0.00    -0.129 C  
HETATM   19  C   UNL     1     -11.411  13.214  68.328  1.00  0.00    -0.333 C  
HETATM   20  H   UNL     1      -8.697  13.036  66.190  1.00  0.00     0.000 HD 
HETATM   21  C   UNL     1     -12.253  12.133  69.103  1.00  0.00    -0.032 C  
HETATM   22  C   UNL     1     -11.835  10.712  68.715  1.00  0.00    -0.177 C  
HETATM   23 CL   UNL     1     -12.140  12.190  70.893  1.00  0.00    -0.315 Cl 
HETATM   24  C   UNL     1     -10.368  10.469  68.913  1.00  0.00    -0.226 C  
HETATM   25  C   UNL     1      -9.937   9.370  69.551  1.00  0.00    -0.200 C  
HETATM   26  C   UNL     1      -8.486   9.207  69.410  1.00  0.00    -0.130 C  
ENDROOT
BRANCH   4  27
HETATM   27  C   UNL     1     -10.011  16.475  66.035  1.00  0.00    -0.337 C  
HETATM   28  O   UNL     1     -10.349  16.458  64.839  1.00  0.00    -0.590 OA 
BRANCH  27  29
HETATM   29  C   UNL     1      -8.842  17.457  66.340  1.00  0.00    -0.242 C  
HETATM   30  O   UNL     1      -7.616  17.048  65.731  1.00  0.00    -0.306 OA 
HETATM   31  H   UNL     1      -6.903  17.647  65.917  1.00  0.00     0.000 HD 
ENDBRANCH  27  29
ENDBRANCH   4  27
TORSDOF 2
ENDMDL
MODEL       75
REMARK 921   NORMALIZED FREE ENERGY PREDICTED BY IDOCK:   -3.38 KCAL/MOL
REMARK 922        TOTAL FREE ENERGY PREDICTED BY IDOCK:   -3.13 KCAL/MOL
REMARK 923 INTER-LIGAND FREE ENERGY PREDICTED BY IDOCK:   -4.62 KCAL/MOL
REMARK 924 INTRA-LIGAND FREE ENERGY PREDICTED BY IDOCK:    1.49 KCAL/MOL
REMARK 927      BINDING AFFINITY PREDICTED BY RF-SCORE:    0.00 PKD
ROOT
HETATM    1  C   UNL     1      -6.865   7.090  70.045  1.00  0.00    -0.057 C  
HETATM    2  C   UNL     1      -6.476   7.661  71.258  1.00  0.00    -0.038 C  
HETATM    3  C   UNL     1      -7.923   7.329  71.136  1.00  0.00    -0.101 C  
HETATM    4  C   UNL     1      -8.343   5.857  69.715  1.00  0.00    -0.124 C  
HETATM    5  C   UNL     1      -8.178   8.353  72.476  1.00  0.00    -0.198 C  
HETATM    6  O   UNL     1      -7.252   5.400  68.805  1.00  0.00    -0.063 OA 
HETATM    7  O   UNL     1     -11.990  12.387  67.445  1.00  0.00    -0.498 OA 
HETATM    8  C   UNL     1      -7.961   5.787  71.031  1.00  0.00    -0.115 C  
HETATM    9  C   UNL     1      -9.794   6.082  71.176  1.00  0.00    -0.214 C  
HETATM   10  C   UNL     1      -7.118   4.747  71.679  1.00  0.00    -0.060 C  
HETATM   11  C   UNL     1     -11.623  11.396  69.620  1.00  0.00    -0.399 C  
HETATM   12  C   UNL     1     -10.560   8.876  67.170  1.00  0.00    -0.301 C  
HETATM   13  H   UNL     1      -7.443   4.731  68.159  1.00  0.00     0.000 HD 
HETATM   14  C   UNL     1     -10.371   7.202  69.906  1.00  0.00    -0.213 C  
HETATM   15  C   UNL     1     -10.180   9.554  68.484  1.00  0.00    -0.223 C  
HETATM   16  C   UNL     1     -11.421  10.131  69.261  1.00  0.00    -0.168 C  
HETATM   17  O   UNL     1     -10.632   6.397  68.759  1.00  0.00    -0.199 OA 
HETATM   18  C   UNL     1      -9.445   8.548  69.444  1.00  0.00    -0.161 C  
HETATM   19  C   UNL     1      -7.844   8.239  68.998  1.00  0.00    -0.103 C  
HETATM   20  H   UNL     1     -10.939   6.992  68.084  1.00  0.00     0.000 HD 
HETATM   21  C   UNL     1      -7.083   9.582  68.688  1.00  0.00    -0.069 C  
HETATM   22  C   UNL     1      -7.845  10.440  67.675  1.00  0.00    -0.105 C  
HETATM   23 CL   UNL     1      -6.789  10.656  70.096  1.00  0.00    -0.158 Cl 
HETATM   24  C   UNL     1      -9.253  10.728  68.108  1.00  0.00    -0.151 C  
HETATM   25  C   UNL     1      -9.742  11.976  68.059  1.00  0.00    -0.198 C  
HETATM   26  C   UNL     1     -11.191  11.989  68.282  1.00  0.00    -0.261 C  
ENDROOT
BRANCH   4  27
HETATM   27  C   UNL     1      -9.042   4.237  69.629  1.00  0.00    -0.115 C  
HETATM   28  O   UNL     1      -9.899   3.894  68.798  1.00  0.00    -0.102 OA 
BRANCH  27  29
HETATM   29  C   UNL     1      -8.716   3.137  70.681  1.00  0.00    -0.075 C  
HETATM   30  O   UNL     1      -9.894   2.535  71.220  1.00  0.00    -0.152 OA 
HETATM   31  H   UNL     1      -9.696   1.863  71.862  1.00  0.00     0.000 HD 
ENDBRANCH  27  29
ENDBRANCH   4  27
TORSDOF 2
ENDMDL
MODEL       76
REMARK 921   NORMALIZED FREE ENERGY PREDICTED BY IDOCK:   -3.34 KCAL/MOL
REMARK 922        TOTAL FREE ENERGY PREDICTED BY IDOCK:   -3.09 KCAL/MOL
REMARK 923 INTER-LIGAND FREE ENERGY PREDICTED BY IDOCK:   -3.85 KCAL/MOL
REMARK 924 INTRA-LIGAND FREE ENERGY PREDICTED BY IDOCK:    0.77 KCAL/MOL
REMARK 927      BINDING AFFINITY PREDICTED BY RF-SCORE:    0.00 PKD
ROOT
HETATM    1  C   UNL     1      -8.565  11.389  67.243  1.00  0.00    -0.146 C  
HETATM    2  C   UNL     1      -8.845  11.991  66.016  1.00  0.00     0.045 C  
HETATM    3  C   UNL     1      -9.641  10.771  66.333  1.00  0.00    -0.226 C  
HETATM    4  C   UNL     1      -9.768  10.345  68.373  1.00  0.00    -0.158 C  
HETATM    5  C   UNL     1     -10.041  10.711  64.676  1.00  0.00    -0.417 C  
HETATM    6  O   UNL     1      -8.924  11.122  69.327  1.00  0.00    -0.388 OA 
HETATM    7  O   UNL     1      -6.154   4.315  64.957  1.00  0.00    -0.022 OA 
HETATM    8  C   UNL     1     -10.496  11.173  67.557  1.00  0.00    -0.239 C  
HETATM    9  C   UNL     1     -11.280   9.517  67.225  1.00  0.00     0.367 C  
HETATM   10  C   UNL     1     -11.137  12.467  67.913  1.00  0.00    -0.283 C  
HETATM   11  C   UNL     1      -7.994   5.719  64.262  1.00  0.00    -0.125 C  
HETATM   12  C   UNL     1      -7.362   6.554  67.780  1.00  0.00    -0.096 C  
HETATM   13  H   UNL     1      -8.981  10.928  70.255  1.00  0.00     0.000 HD 
HETATM   14  C   UNL     1     -10.058   8.211  67.223  1.00  0.00    -0.241 C  
HETATM   15  C   UNL     1      -7.650   7.151  66.406  1.00  0.00    -0.092 C  
HETATM   16  C   UNL     1      -8.406   6.157  65.449  1.00  0.00    -0.150 C  
HETATM   17  O   UNL     1      -9.899   7.818  68.584  1.00  0.00    -0.161 OA 
HETATM   18  C   UNL     1      -8.527   8.451  66.528  1.00  0.00    -0.116 C  
HETATM   19  C   UNL     1      -7.661   9.799  67.069  1.00  0.00    -0.095 C  
HETATM   20  H   UNL     1      -9.249   7.124  68.583  1.00  0.00     0.000 HD 
HETATM   21  C   UNL     1      -6.311   9.948  66.275  1.00  0.00    -0.072 C  
HETATM   22  C   UNL     1      -5.498   8.651  66.298  1.00  0.00    -0.034 C  
HETATM   23 CL   UNL     1      -6.468  10.381  64.540  1.00  0.00    -0.086 Cl 
HETATM   24  C   UNL     1      -6.277   7.475  65.783  1.00  0.00    -0.038 C  
HETATM   25  C   UNL     1      -5.741   6.644  64.877  1.00  0.00    -0.030 C  
HETATM   26  C   UNL     1      -6.562   5.440  64.708  1.00  0.00    -0.043 C  
ENDROOT
BRANCH   4  27
HETATM   27  C   UNL     1     -10.992  10.194  69.638  1.00  0.00    -0.264 C  
HETATM   28  O   UNL     1     -12.176  10.549  69.505  1.00  0.00    -0.217 OA 
BRANCH  27  29
HETATM   29  C   UNL     1     -10.644   9.707  71.075  1.00  0.00    -0.292 C  
HETATM   30  O   UNL     1      -9.368   9.068  71.137  1.00  0.00    -0.235 OA 
HETATM   31  H   UNL     1      -9.155   8.770  72.014  1.00  0.00     0.000 HD 
ENDBRANCH  27  29
ENDBRANCH   4  27
TORSDOF 2
ENDMDL
MODEL       77
REMARK 921   NORMALIZED FREE ENERGY PREDICTED BY IDOCK:   -3.12 KCAL/MOL
REMARK 922        TOTAL FREE ENERGY PREDICTED BY IDOCK:   -2.84 KCAL/MOL
REMARK 923 INTER-LIGAND FREE ENERGY PREDICTED BY IDOCK:   -3.76 KCAL/MOL
REMARK 924 INTRA-LIGAND FREE ENERGY PREDICTED BY IDOCK:    0.91 KCAL/MOL
REMARK 927      BINDING AFFINITY PREDICTED BY RF-SCORE:    0.00 PKD
ROOT
HETATM    1  C   UNL     1     -10.427  14.666  68.439  1.00  0.00    -0.243 C  
HETATM    2  C   UNL     1     -11.032  15.009  67.229  1.00  0.00    -0.326 C  
HETATM    3  C   UNL     1     -11.673  13.891  67.978  1.00  0.00    -0.387 C  
HETATM    4  C   UNL     1     -11.262  13.892  70.025  1.00  0.00     0.031 C  
HETATM    5  C   UNL     1     -12.477  13.499  66.526  1.00  0.00    -0.309 C  
HETATM    6  O   UNL     1     -10.235  14.837  70.555  1.00  0.00    -0.358 OA 
HETATM    7  O   UNL     1      -8.397   7.242  67.084  1.00  0.00    -0.116 OA 
HETATM    8  C   UNL     1     -12.205  14.547  69.273  1.00  0.00    -0.264 C  
HETATM    9  C   UNL     1     -12.982  12.869  69.493  1.00  0.00     1.181 C  
HETATM   10  C   UNL     1     -12.785  15.894  69.513  1.00  0.00     0.529 C  
HETATM   11  C   UNL     1     -10.408   8.499  66.615  1.00  0.00    -0.303 C  
HETATM   12  C   UNL     1      -8.939  10.028  69.612  1.00  0.00    -0.221 C  
HETATM   13  H   UNL     1     -10.048  14.837  71.486  1.00  0.00     0.000 HD 
HETATM   14  C   UNL     1     -11.750  11.573  69.441  1.00  0.00    -0.346 C  
HETATM   15  C   UNL     1      -9.588  10.335  68.266  1.00  0.00    -0.151 C  
HETATM   16  C   UNL     1     -10.523   9.176  67.754  1.00  0.00    -0.306 C  
HETATM   17  O   UNL     1     -11.236  11.464  70.766  1.00  0.00    -0.145 OA 
HETATM   18  C   UNL     1     -10.456  11.644  68.345  1.00  0.00    -0.230 C  
HETATM   19  C   UNL     1      -9.535  13.062  68.363  1.00  0.00    -0.165 C  
HETATM   20  H   UNL     1     -10.582  10.776  70.739  1.00  0.00     0.000 HD 
HETATM   21  C   UNL     1      -8.436  13.027  67.236  1.00  0.00    -0.199 C  
HETATM   22  C   UNL     1      -7.594  11.751  67.311  1.00  0.00    -0.150 C  
HETATM   23 CL   UNL     1      -9.045  13.098  65.549  1.00  0.00     0.489 Cl 
HETATM   24  C   UNL     1      -8.431  10.505  67.260  1.00  0.00    -0.122 C  
HETATM   25  C   UNL     1      -8.110   9.499  66.434  1.00  0.00    -0.111 C  
HETATM   26  C   UNL     1      -8.899   8.298  66.726  1.00  0.00    -0.140 C  
ENDROOT
BRANCH   4  27
HETATM   27  C   UNL     1     -12.119  14.021  71.564  1.00  0.00    -0.094 C  
HETATM   28  O   UNL     1     -13.069  13.289  71.894  1.00  0.00    -0.386 OA 
BRANCH  27  29
HETATM   29  C   UNL     1     -11.820  15.155  72.588  1.00  0.00    -0.381 C  
HETATM   30  O   UNL     1     -12.306  14.848  73.896  1.00  0.00    -0.535 OA 
HETATM   31  H   UNL     1     -12.124  15.540  74.521  1.00  0.00     0.000 HD 
ENDBRANCH  27  29
ENDBRANCH   4  27
TORSDOF 2
ENDMDL
MODEL       78
REMARK 921   NORMALIZED FREE ENERGY PREDICTED BY IDOCK:   -2.91 KCAL/MOL
REMARK 922        TOTAL FREE ENERGY PREDICTED BY IDOCK:   -2.61 KCAL/MOL
REMARK 923 INTER-LIGAND FREE ENERGY PREDICTED BY IDOCK:   -3.24 KCAL/MOL
REMARK 924 INTRA-LIGAND FREE ENERGY PREDICTED BY IDOCK:    0.63 KCAL/MOL
REMARK 927      BINDING AFFINITY PREDICTED BY RF-SCORE:    0.00 PKD
ROOT
HETATM    1  C   UNL     1      -8.509   7.492  69.944  1.00  0.00    -0.138 C  
HETATM    2  C   UNL     1      -9.526   8.417  70.189  1.00  0.00    -0.165 C  
HETATM    3  C   UNL     1      -9.684   7.596  68.955  1.00  0.00    -0.160 C  
HETATM    4  C   UNL     1      -8.635   5.790  68.994  1.00  0.00    -0.106 C  
HETATM    5  C   UNL     1     -10.836   8.745  68.446  1.00  0.00    -0.019 C  
HETATM    6  O   UNL     1      -7.671   5.538  70.105  1.00  0.00    -0.081 OA 
HETATM    7  O   UNL     1      -5.778  10.012  63.069  1.00  0.00    -0.097 OA 
HETATM    8  C   UNL     1      -9.869   6.150  69.472  1.00  0.00    -0.193 C  
HETATM    9  C   UNL     1     -10.229   5.831  67.673  1.00  0.00    -0.236 C  
HETATM   10  C   UNL     1     -10.564   5.631  70.680  1.00  0.00    -0.347 C  
HETATM   11  C   UNL     1      -8.018   9.718  63.930  1.00  0.00    -0.146 C  
HETATM   12  C   UNL     1      -5.940   7.227  65.650  1.00  0.00    -0.037 C  
HETATM   13  H   UNL     1      -7.194   4.718  70.123  1.00  0.00     0.000 HD 
HETATM   14  C   UNL     1      -8.877   6.375  66.636  1.00  0.00    -0.130 C  
HETATM   15  C   UNL     1      -7.036   8.269  65.855  1.00  0.00    -0.071 C  
HETATM   16  C   UNL     1      -7.870   8.550  64.551  1.00  0.00    -0.138 C  
HETATM   17  O   UNL     1      -7.948   5.293  66.601  1.00  0.00    -0.103 OA 
HETATM   18  C   UNL     1      -8.044   7.815  66.974  1.00  0.00    -0.117 C  
HETATM   19  C   UNL     1      -7.428   7.975  68.540  1.00  0.00    -0.102 C  
HETATM   20  H   UNL     1      -7.230   5.582  66.050  1.00  0.00     0.000 HD 
HETATM   21  C   UNL     1      -6.768   9.390  68.737  1.00  0.00    -0.052 C  
HETATM   22  C   UNL     1      -5.739   9.689  67.643  1.00  0.00    -0.040 C  
HETATM   23 CL   UNL     1      -7.895  10.787  68.725  1.00  0.00    -0.120 Cl 
HETATM   24  C   UNL     1      -6.318   9.572  66.262  1.00  0.00    -0.069 C  
HETATM   25  C   UNL     1      -6.115  10.536  65.352  1.00  0.00    -0.122 C  
HETATM   26  C   UNL     1      -6.544  10.106  64.017  1.00  0.00    -0.113 C  
ENDROOT
BRANCH   4  27
HETATM   27  C   UNL     1      -8.952   4.054  68.926  1.00  0.00    -0.116 C  
HETATM   28  O   UNL     1      -9.756   3.524  68.139  1.00  0.00    -0.138 OA 
BRANCH  27  29
HETATM   29  C   UNL     1      -8.326   3.056  69.944  1.00  0.00    -0.048 C  
HETATM   30  O   UNL     1      -6.924   2.878  69.737  1.00  0.00    -0.034 OA 
HETATM   31  H   UNL     1      -6.542   2.269  70.358  1.00  0.00     0.000 HD 
ENDBRANCH  27  29
ENDBRANCH   4  27
TORSDOF 2
ENDMDL
MODEL       79
REMARK 921   NORMALIZED FREE ENERGY PREDICTED BY IDOCK:   -2.82 KCAL/MOL
REMARK 922        TOTAL FREE ENERGY PREDICTED BY IDOCK:   -2.50 KCAL/MOL
REMARK 923 INTER-LIGAND FREE ENERGY PREDICTED BY IDOCK:   -3.85 KCAL/MOL
REMARK 924 INTRA-LIGAND FREE ENERGY PREDICTED BY IDOCK:    1.35 KCAL/MOL
REMARK 927      BINDING AFFINITY PREDICTED BY RF-SCORE:    0.00 PKD
ROOT
HETATM    1  C   UNL     1      -7.249   7.097  69.136  1.00  0.00    -0.086 C  
HETATM    2  C   UNL     1      -6.920   8.133  68.260  1.00  0.00    -0.076 C  
HETATM    3  C   UNL     1      -8.343   7.693  68.233  1.00  0.00    -0.125 C  
HETATM    4  C   UNL     1      -8.973   6.739  69.980  1.00  0.00    -0.141 C  
HETATM    5  C   UNL     1      -8.474   8.511  66.742  1.00  0.00    -0.111 C  
HETATM    6  O   UNL     1      -7.958   6.383  71.015  1.00  0.00    -0.111 OA 
HETATM    7  O   UNL     1      -9.650   1.585  64.143  1.00  0.00    -0.127 OA 
HETATM    8  C   UNL     1      -8.891   8.063  69.631  1.00  0.00    -0.141 C  
HETATM    9  C   UNL     1     -10.502   7.555  68.846  1.00  0.00    -0.214 C  
HETATM   10  C   UNL     1      -8.596   9.220  70.516  1.00  0.00    -0.271 C  
HETATM   11  C   UNL     1     -10.059   3.964  64.273  1.00  0.00    -0.216 C  
HETATM   12  C   UNL     1      -9.496   2.847  67.724  1.00  0.00    -0.187 C  
HETATM   13  H   UNL     1      -8.245   5.949  71.809  1.00  0.00     0.000 HD 
HETATM   14  C   UNL     1     -10.410   5.891  68.198  1.00  0.00    -0.210 C  
HETATM   15  C   UNL     1      -9.157   3.938  66.713  1.00  0.00    -0.161 C  
HETATM   16  C   UNL     1     -10.244   4.091  65.585  1.00  0.00    -0.083 C  
HETATM   17  O   UNL     1     -10.714   5.025  69.289  1.00  0.00    -0.065 OA 
HETATM   18  C   UNL     1      -9.007   5.335  67.419  1.00  0.00    -0.108 C  
HETATM   19  C   UNL     1      -7.558   5.505  68.274  1.00  0.00    -0.081 C  
HETATM   20  H   UNL     1     -10.665   4.140  68.944  1.00  0.00     0.000 HD 
HETATM   21  C   UNL     1      -6.336   5.039  67.397  1.00  0.00    -0.040 C  
HETATM   22  C   UNL     1      -6.553   3.631  66.835  1.00  0.00    -0.042 C  
HETATM   23 CL   UNL     1      -5.957   6.066  65.976  1.00  0.00    -0.027 Cl 
HETATM   24  C   UNL     1      -7.829   3.513  66.053  1.00  0.00    -0.089 C  
HETATM   25  C   UNL     1      -7.838   2.938  64.842  1.00  0.00    -0.082 C  
HETATM   26  C   UNL     1      -9.208   2.702  64.375  1.00  0.00    -0.128 C  
ENDROOT
BRANCH   4  27
HETATM   27  C   UNL     1     -10.160   6.952  71.271  1.00  0.00    -0.190 C  
HETATM   28  O   UNL     1     -10.351   6.128  72.182  1.00  0.00    -0.192 OA 
BRANCH  27  29
HETATM   29  C   UNL     1     -11.151   8.152  71.297  1.00  0.00    -0.248 C  
HETATM   30  O   UNL     1     -12.338   7.860  72.036  1.00  0.00    -0.299 OA 
HETATM   31  H   UNL     1     -12.943   8.593  72.052  1.00  0.00     0.000 HD 
ENDBRANCH  27  29
ENDBRANCH   4  27
TORSDOF 2
ENDMDL
MODEL       80
REMARK 921   NORMALIZED FREE ENERGY PREDICTED BY IDOCK:   -2.62 KCAL/MOL
REMARK 922        TOTAL FREE ENERGY PREDICTED BY IDOCK:   -2.28 KCAL/MOL
REMARK 923 INTER-LIGAND FREE ENERGY PREDICTED BY IDOCK:   -3.72 KCAL/MOL
REMARK 924 INTRA-LIGAND FREE ENERGY PREDICTED BY IDOCK:    1.43 KCAL/MOL
REMARK 927      BINDING AFFINITY PREDICTED BY RF-SCORE:    0.00 PKD
ROOT
HETATM    1  C   UNL     1      -9.678   6.887  72.260  1.00  0.00    -0.159 C  
HETATM    2  C   UNL     1     -10.966   7.152  71.790  1.00  0.00    -0.258 C  
HETATM    3  C   UNL     1     -10.164   6.199  70.972  1.00  0.00    -0.244 C  
HETATM    4  C   UNL     1      -8.622   5.261  72.024  1.00  0.00    -0.130 C  
HETATM    5  C   UNL     1     -11.291   6.464  69.721  1.00  0.00    -0.494 C  
HETATM    6  O   UNL     1      -8.298   5.733  73.402  1.00  0.00    -0.116 OA 
HETATM    7  O   UNL     1      -5.327   9.409  66.277  1.00  0.00    -0.039 OA 
HETATM    8  C   UNL     1      -9.957   4.974  71.894  1.00  0.00    -0.245 C  
HETATM    9  C   UNL     1      -9.250   4.246  70.331  1.00  0.00    -0.191 C  
HETATM   10  C   UNL     1     -10.857   4.353  72.901  1.00  0.00    -0.257 C  
HETATM   11  C   UNL     1      -7.356   8.100  66.386  1.00  0.00    -0.080 C  
HETATM   12  C   UNL     1      -5.531   7.393  69.492  1.00  0.00    -0.022 C  
HETATM   13  H   UNL     1      -7.597   5.307  73.881  1.00  0.00     0.000 HD 
HETATM   14  C   UNL     1      -7.931   5.265  69.683  1.00  0.00    -0.084 C  
HETATM   15  C   UNL     1      -6.910   7.706  68.918  1.00  0.00    -0.061 C  
HETATM   16  C   UNL     1      -7.054   7.299  67.405  1.00  0.00    -0.088 C  
HETATM   17  O   UNL     1      -6.746   4.855  70.362  1.00  0.00    -0.034 OA 
HETATM   18  C   UNL     1      -8.038   6.959  69.720  1.00  0.00    -0.126 C  
HETATM   19  C   UNL     1      -8.369   7.656  71.224  1.00  0.00    -0.108 C  
HETATM   20  H   UNL     1      -6.045   5.396  70.018  1.00  0.00     0.000 HD 
HETATM   21  C   UNL     1      -8.534   9.216  71.092  1.00  0.00    -0.113 C  
HETATM   22  C   UNL     1      -7.337   9.848  70.375  1.00  0.00    -0.139 C  
HETATM   23 CL   UNL     1      -9.980   9.775  70.188  1.00  0.00    -0.300 Cl 
HETATM   24  C   UNL     1      -7.083   9.235  69.029  1.00  0.00    -0.067 C  
HETATM   25  C   UNL     1      -6.890  10.009  67.950  1.00  0.00    -0.075 C  
HETATM   26  C   UNL     1      -6.412   9.222  66.809  1.00  0.00    -0.067 C  
ENDROOT
BRANCH   4  27
HETATM   27  C   UNL     1      -8.120   3.637  72.502  1.00  0.00    -0.077 C  
HETATM   28  O   UNL     1      -7.510   3.380  73.554  1.00  0.00    -0.054 OA 
BRANCH  27  29
HETATM   29  C   UNL     1      -8.305   2.404  71.570  1.00  0.00    -0.062 C  
HETATM   30  O   UNL     1      -7.059   1.883  71.106  1.00  0.00    -0.031 OA 
HETATM   31  H   UNL     1      -7.171   1.130  70.537  1.00  0.00     0.000 HD 
ENDBRANCH  27  29
ENDBRANCH   4  27
TORSDOF 2
ENDMDL
MODEL       81
REMARK 921   NORMALIZED FREE ENERGY PREDICTED BY IDOCK:   -2.62 KCAL/MOL
REMARK 922        TOTAL FREE ENERGY PREDICTED BY IDOCK:   -2.28 KCAL/MOL
REMARK 923 INTER-LIGAND FREE ENERGY PREDICTED BY IDOCK:   -2.88 KCAL/MOL
REMARK 924 INTRA-LIGAND FREE ENERGY PREDICTED BY IDOCK:    0.60 KCAL/MOL
REMARK 927      BINDING AFFINITY PREDICTED BY RF-SCORE:    0.00 PKD
ROOT
HETATM    1  C   UNL     1      -9.088  14.749  67.023  1.00  0.00    -0.257 C  
HETATM    2  C   UNL     1      -9.902  14.615  65.897  1.00  0.00    -0.358 C  
HETATM    3  C   UNL     1     -10.249  15.737  66.813  1.00  0.00    -0.284 C  
HETATM    4  C   UNL     1      -8.665  16.378  68.013  1.00  0.00    -0.183 C  
HETATM    5  C   UNL     1     -11.760  15.795  66.025  1.00  0.00     0.571 C  
HETATM    6  O   UNL     1      -7.405  15.578  68.033  1.00  0.00    -0.116 OA 
HETATM    7  O   UNL     1     -14.282  13.767  72.780  1.00  0.00    -0.650 OA 
HETATM    8  C   UNL     1      -9.037  16.694  66.732  1.00  0.00    -0.261 C  
HETATM    9  C   UNL     1     -10.161  17.783  67.742  1.00  0.00    -0.362 C  
HETATM   10  C   UNL     1      -8.155  17.051  65.589  1.00  0.00     0.642 C  
HETATM   11  C   UNL     1     -14.349  15.019  70.713  1.00  0.00     0.186 C  
HETATM   12  C   UNL     1     -10.820  14.925  71.722  1.00  0.00     0.613 C  
HETATM   13  H   UNL     1      -6.684  15.869  68.579  1.00  0.00     0.000 HD 
HETATM   14  C   UNL     1     -10.701  16.951  69.230  1.00  0.00    -0.288 C  
HETATM   15  C   UNL     1     -11.766  14.770  70.534  1.00  0.00    -0.350 C  
HETATM   16  C   UNL     1     -13.125  15.540  70.724  1.00  0.00    -0.446 C  
HETATM   17  O   UNL     1      -9.680  17.174  70.200  1.00  0.00     0.846 OA 
HETATM   18  C   UNL     1     -11.101  15.301  69.211  1.00  0.00    -0.277 C  
HETATM   19  C   UNL     1      -9.934  14.254  68.577  1.00  0.00    -0.235 C  
HETATM   20  H   UNL     1      -9.967  16.733  70.991  1.00  0.00     0.000 HD 
HETATM   21  C   UNL     1     -10.475  12.777  68.534  1.00  0.00    -0.238 C  
HETATM   22  C   UNL     1     -11.016  12.336  69.897  1.00  0.00     0.365 C  
HETATM   23 CL   UNL     1     -11.807  12.466  67.371  1.00  0.00    -0.414 Cl 
HETATM   24  C   UNL     1     -12.073  13.263  70.424  1.00  0.00    -0.401 C  
HETATM   25  C   UNL     1     -13.228  12.779  70.906  1.00  0.00     0.188 C  
HETATM   26  C   UNL     1     -13.996  13.822  71.592  1.00  0.00    -0.178 C  
ENDROOT
BRANCH   4  27
HETATM   27  C   UNL     1      -7.702  17.831  68.300  1.00  0.00    -0.266 C  
HETATM   28  O   UNL     1      -8.136  18.989  68.169  1.00  0.00    -0.290 OA 
BRANCH  27  29
HETATM   29  C   UNL     1      -6.182  17.767  68.628  1.00  0.00    -0.196 C  
HETATM   30  O   UNL     1      -5.929  17.241  69.932  1.00  0.00    -0.241 OA 
HETATM   31  H   UNL     1      -5.002  17.202  70.133  1.00  0.00     0.000 HD 
ENDBRANCH  27  29
ENDBRANCH   4  27
TORSDOF 2
ENDMDL
MODEL       82
REMARK 921   NORMALIZED FREE ENERGY PREDICTED BY IDOCK:   -2.62 KCAL/MOL
REMARK 922        TOTAL FREE ENERGY PREDICTED BY IDOCK:   -2.28 KCAL/MOL
REMARK 923 INTER-LIGAND FREE ENERGY PREDICTED BY IDOCK:   -3.65 KCAL/MOL
REMARK 924 INTRA-LIGAND FREE ENERGY PREDICTED BY IDOCK:    1.37 KCAL/MOL
REMARK 927      BINDING AFFINITY PREDICTED BY RF-SCORE:    0.00 PKD
ROOT
HETATM    1  C   UNL     1      -8.045   7.516  66.968  1.00  0.00    -0.117 C  
HETATM    2  C   UNL     1      -9.033   6.585  66.644  1.00  0.00    -0.144 C  
HETATM    3  C   UNL     1      -9.371   7.526  67.749  1.00  0.00    -0.150 C  
HETATM    4  C   UNL     1      -8.278   9.305  67.717  1.00  0.00    -0.115 C  
HETATM    5  C   UNL     1     -10.625   6.448  68.163  1.00  0.00    -0.314 C  
HETATM    6  O   UNL     1      -7.135   9.433  66.766  1.00  0.00    -0.081 OA 
HETATM    7  O   UNL     1      -6.578   5.655  74.416  1.00  0.00    -0.070 OA 
HETATM    8  C   UNL     1      -9.425   8.916  67.073  1.00  0.00    -0.215 C  
HETATM    9  C   UNL     1     -10.071   9.416  68.747  1.00  0.00    -0.208 C  
HETATM   10  C   UNL     1      -9.892   9.321  65.721  1.00  0.00    -0.302 C  
HETATM   11  C   UNL     1      -8.632   5.891  73.163  1.00  0.00    -0.119 C  
HETATM   12  C   UNL     1      -6.224   8.172  71.590  1.00  0.00    -0.043 C  
HETATM   13  H   UNL     1      -6.637  10.242  66.751  1.00  0.00     0.000 HD 
HETATM   14  C   UNL     1      -8.928   8.960  70.044  1.00  0.00    -0.165 C  
HETATM   15  C   UNL     1      -7.300   7.129  71.303  1.00  0.00    -0.079 C  
HETATM   16  C   UNL     1      -8.349   6.989  72.468  1.00  0.00    -0.118 C  
HETATM   17  O   UNL     1      -7.987  10.028  70.133  1.00  0.00    -0.222 OA 
HETATM   18  C   UNL     1      -8.092   7.483  69.992  1.00  0.00    -0.127 C  
HETATM   19  C   UNL     1      -7.228   7.161  68.575  1.00  0.00    -0.094 C  
HETATM   20  H   UNL     1      -7.379   9.786  70.823  1.00  0.00     0.000 HD 
HETATM   21  C   UNL     1      -6.586   5.724  68.628  1.00  0.00    -0.048 C  
HETATM   22  C   UNL     1      -5.765   5.523  69.905  1.00  0.00    -0.016 C  
HETATM   23 CL   UNL     1      -7.740   4.351  68.583  1.00  0.00    -0.070 Cl 
HETATM   24  C   UNL     1      -6.563   5.783  71.150  1.00  0.00    -0.045 C  
HETATM   25  C   UNL     1      -6.543   4.911  72.169  1.00  0.00    -0.043 C  
HETATM   26  C   UNL     1      -7.177   5.477  73.365  1.00  0.00    -0.087 C  
ENDROOT
BRANCH   4  27
HETATM   27  C   UNL     1      -8.550  11.044  67.564  1.00  0.00    -0.128 C  
HETATM   28  O   UNL     1      -7.639  11.888  67.509  1.00  0.00    -0.121 OA 
BRANCH  27  29
HETATM   29  C   UNL     1      -9.977  11.666  67.606  1.00  0.00    -0.188 C  
HETATM   30  O   UNL     1      -9.961  13.030  68.030  1.00  0.00    -0.220 OA 
HETATM   31  H   UNL     1     -10.831  13.410  68.057  1.00  0.00     0.000 HD 
ENDBRANCH  27  29
ENDBRANCH   4  27
TORSDOF 2
ENDMDL
MODEL       83
REMARK 921   NORMALIZED FREE ENERGY PREDICTED BY IDOCK:   -2.58 KCAL/MOL
REMARK 922        TOTAL FREE ENERGY PREDICTED BY IDOCK:   -2.24 KCAL/MOL
REMARK 923 INTER-LIGAND FREE ENERGY PREDICTED BY IDOCK:   -3.57 KCAL/MOL
REMARK 924 INTRA-LIGAND FREE ENERGY PREDICTED BY IDOCK:    1.33 KCAL/MOL
REMARK 927      BINDING AFFINITY PREDICTED BY RF-SCORE:    0.00 PKD
ROOT
HETATM    1  C   UNL     1      -8.976   5.676  69.266  1.00  0.00    -0.122 C  
HETATM    2  C   UNL     1     -10.349   5.435  69.188  1.00  0.00    -0.300 C  
HETATM    3  C   UNL     1      -9.678   5.766  67.900  1.00  0.00    -0.134 C  
HETATM    4  C   UNL     1      -7.624   5.386  67.888  1.00  0.00    -0.088 C  
HETATM    5  C   UNL     1     -11.233   6.075  67.272  1.00  0.00    -0.071 C  
HETATM    6  O   UNL     1      -6.949   5.025  69.169  1.00  0.00    -0.052 OA 
HETATM    7  O   UNL     1      -8.575  13.057  66.730  1.00  0.00    -0.162 OA 
HETATM    8  C   UNL     1      -8.712   4.584  67.651  1.00  0.00    -0.111 C  
HETATM    9  C   UNL     1      -8.500   5.443  66.012  1.00  0.00    -0.123 C  
HETATM   10  C   UNL     1      -8.854   3.134  67.944  1.00  0.00    -0.163 C  
HETATM   11  C   UNL     1      -9.806  11.126  65.955  1.00  0.00    -0.275 C  
HETATM   12  C   UNL     1      -6.756   9.815  67.522  1.00  0.00    -0.070 C  
HETATM   13  H   UNL     1      -6.015   4.852  69.163  1.00  0.00     0.000 HD 
HETATM   14  C   UNL     1      -7.990   7.143  66.234  1.00  0.00    -0.110 C  
HETATM   15  C   UNL     1      -8.265   9.619  67.411  1.00  0.00    -0.114 C  
HETATM   16  C   UNL     1      -8.864  10.194  66.074  1.00  0.00    -0.160 C  
HETATM   17  O   UNL     1      -6.570   7.116  66.358  1.00  0.00    -0.049 OA 
HETATM   18  C   UNL     1      -8.642   8.093  67.481  1.00  0.00    -0.129 C  
HETATM   19  C   UNL     1      -8.548   7.448  69.041  1.00  0.00    -0.133 C  
HETATM   20  H   UNL     1      -6.299   8.020  66.476  1.00  0.00     0.000 HD 
HETATM   21  C   UNL     1      -9.272   8.387  70.077  1.00  0.00    -0.158 C  
HETATM   22  C   UNL     1      -8.764   9.828  69.980  1.00  0.00    -0.237 C  
HETATM   23 CL   UNL     1     -11.056   8.500  69.915  1.00  0.00    -0.173 Cl 
HETATM   24  C   UNL     1      -8.887  10.390  68.593  1.00  0.00    -0.142 C  
HETATM   25  C   UNL     1      -9.424  11.602  68.392  1.00  0.00    -0.193 C  
HETATM   26  C   UNL     1      -9.215  12.054  67.012  1.00  0.00    -0.195 C  
ENDROOT
BRANCH   4  27
HETATM   27  C   UNL     1      -6.452   4.380  67.030  1.00  0.00    -0.042 C  
HETATM   28  O   UNL     1      -6.048   4.613  65.878  1.00  0.00    -0.025 OA 
BRANCH  27  29
HETATM   29  C   UNL     1      -5.919   3.042  67.620  1.00  0.00    -0.027 C  
HETATM   30  O   UNL     1      -5.286   3.221  68.888  1.00  0.00    -0.011 OA 
HETATM   31  H   UNL     1      -4.961   2.404  69.248  1.00  0.00     0.000 HD 
ENDBRANCH  27  29
ENDBRANCH   4  27
TORSDOF 2
ENDMDL
MODEL       84
REMARK 921   NORMALIZED FREE ENERGY PREDICTED BY IDOCK:   -2.08 KCAL/MOL
REMARK 922        TOTAL FREE ENERGY PREDICTED BY IDOCK:   -1.68 KCAL/MOL
REMARK 923 INTER-LIGAND FREE ENERGY PREDICTED BY IDOCK:   -3.05 KCAL/MOL
REMARK 924 INTRA-LIGAND FREE ENERGY PREDICTED BY IDOCK:    1.37 KCAL/MOL
REMARK 927      BINDING AFFINITY PREDICTED BY RF-SCORE:    0.00 PKD
ROOT
HETATM    1  C   UNL     1      -7.871  15.847  67.922  1.00  0.00    -0.148 C  
HETATM    2  C   UNL     1      -8.681  16.392  68.920  1.00  0.00    -0.253 C  
HETATM    3  C   UNL     1      -8.727  14.909  68.790  1.00  0.00    -0.182 C  
HETATM    4  C   UNL     1      -7.041  14.081  67.878  1.00  0.00    -0.160 C  
HETATM    5  C   UNL     1     -10.161  14.963  69.711  1.00  0.00    -0.062 C  
HETATM    6  O   UNL     1      -6.038  14.991  67.252  1.00  0.00    -0.318 OA 
HETATM    7  O   UNL     1     -13.193  12.382  63.367  1.00  0.00    -0.552 OA 
HETATM    8  C   UNL     1      -7.304  14.441  69.175  1.00  0.00    -0.113 C  
HETATM    9  C   UNL     1      -8.109  12.764  69.067  1.00  0.00     0.350 C  
HETATM   10  C   UNL     1      -6.349  14.965  70.186  1.00  0.00    -0.162 C  
HETATM   11  C   UNL     1     -12.907  12.478  65.765  1.00  0.00     0.798 C  
HETATM   12  C   UNL     1      -9.539  12.771  64.335  1.00  0.00     0.271 C  
HETATM   13  H   UNL     1      -5.271  14.615  66.837  1.00  0.00     0.000 HD 
HETATM   14  C   UNL     1      -8.864  12.511  67.466  1.00  0.00    -0.184 C  
HETATM   15  C   UNL     1     -10.481  13.338  65.394  1.00  0.00    -0.306 C  
HETATM   16  C   UNL     1     -11.589  12.315  65.843  1.00  0.00    -0.450 C  
HETATM   17  O   UNL     1      -7.829  12.025  66.614  1.00  0.00    -0.349 OA 
HETATM   18  C   UNL     1      -9.686  13.772  66.680  1.00  0.00    -0.293 C  
HETATM   19  C   UNL     1      -8.833  15.219  66.488  1.00  0.00    -0.335 C  
HETATM   20  H   UNL     1      -8.230  11.890  65.763  1.00  0.00     0.000 HD 
HETATM   21  C   UNL     1      -9.745  16.322  65.834  1.00  0.00    -0.321 C  
HETATM   22  C   UNL     1     -10.396  15.820  64.542  1.00  0.00     0.675 C  
HETATM   23 CL   UNL     1     -11.100  16.917  66.848  1.00  0.00     0.120 Cl 
HETATM   24  C   UNL     1     -11.175  14.552  64.744  1.00  0.00    -0.395 C  
HETATM   25  C   UNL     1     -12.421  14.432  64.263  1.00  0.00    -0.303 C  
HETATM   26  C   UNL     1     -12.892  13.046  64.349  1.00  0.00    -0.094 C  
ENDROOT
BRANCH   4  27
HETATM   27  C   UNL     1      -5.731  12.956  68.251  1.00  0.00    -0.076 C  
HETATM   28  O   UNL     1      -5.131  12.925  69.340  1.00  0.00    -0.073 OA 
BRANCH  27  29
HETATM   29  C   UNL     1      -5.142  11.986  67.186  1.00  0.00    -0.095 C  
HETATM   30  O   UNL     1      -5.350  10.614  67.527  1.00  0.00    -0.040 OA 
HETATM   31  H   UNL     1      -4.990  10.022  66.877  1.00  0.00     0.000 HD 
ENDBRANCH  27  29
ENDBRANCH   4  27
TORSDOF 2
ENDMDL
MODEL       85
REMARK 921   NORMALIZED FREE ENERGY PREDICTED BY IDOCK:   -1.89 KCAL/MOL
REMARK 922        TOTAL FREE ENERGY PREDICTED BY IDOCK:   -1.46 KCAL/MOL
REMARK 923 INTER-LIGAND FREE ENERGY PREDICTED BY IDOCK:   -2.96 KCAL/MOL
REMARK 924 INTRA-LIGAND FREE ENERGY PREDICTED BY IDOCK:    1.50 KCAL/MOL
REMARK 927      BINDING AFFINITY PREDICTED BY RF-SCORE:    0.00 PKD
ROOT
HETATM    1  C   UNL     1      -9.522   8.535  68.452  1.00  0.00    -0.141 C  
HETATM    2  C   UNL     1      -8.190   8.951  68.485  1.00  0.00    -0.116 C  
HETATM    3  C   UNL     1      -8.969   9.180  69.735  1.00  0.00    -0.168 C  
HETATM    4  C   UNL     1     -10.632   7.933  69.942  1.00  0.00    -0.242 C  
HETATM    5  C   UNL     1      -7.735  10.261  70.199  1.00  0.00     0.007 C  
HETATM    6  O   UNL     1     -11.042   7.078  68.790  1.00  0.00    -0.441 OA 
HETATM    7  O   UNL     1     -13.263  15.288  69.668  1.00  0.00     0.346 OA 
HETATM    8  C   UNL     1      -9.306   7.761  70.248  1.00  0.00    -0.156 C  
HETATM    9  C   UNL     1      -9.921   8.723  71.720  1.00  0.00    -0.396 C  
HETATM   10  C   UNL     1      -8.519   6.500  70.206  1.00  0.00    -0.135 C  
HETATM   11  C   UNL     1     -11.313  14.291  70.692  1.00  0.00    -0.021 C  
HETATM   12  C   UNL     1     -13.409  11.492  69.575  1.00  0.00     2.186 C  
HETATM   13  H   UNL     1     -11.798   6.511  68.884  1.00  0.00     0.000 HD 
HETATM   14  C   UNL     1     -11.135   9.942  71.234  1.00  0.00    -0.232 C  
HETATM   15  C   UNL     1     -11.976  12.014  69.624  1.00  0.00    -0.360 C  
HETATM   16  C   UNL     1     -11.732  13.033  70.798  1.00  0.00     0.292 C  
HETATM   17  O   UNL     1     -12.388   9.262  71.206  1.00  0.00    -0.310 OA 
HETATM   18  C   UNL     1     -10.952  10.833  69.800  1.00  0.00    -0.314 C  
HETATM   19  C   UNL     1     -10.707   9.937  68.387  1.00  0.00    -0.271 C  
HETATM   20  H   UNL     1     -13.033   9.910  70.948  1.00  0.00     0.000 HD 
HETATM   21  C   UNL     1     -10.459  10.890  67.159  1.00  0.00    -0.237 C  
HETATM   22  C   UNL     1     -11.564  11.942  67.032  1.00  0.00    -0.365 C  
HETATM   23 CL   UNL     1      -8.921  11.815  67.186  1.00  0.00    -0.171 Cl 
HETATM   24  C   UNL     1     -11.740  12.747  68.288  1.00  0.00    -0.388 C  
HETATM   25  C   UNL     1     -11.810  14.085  68.238  1.00  0.00    -0.406 C  
HETATM   26  C   UNL     1     -12.233  14.644  69.527  1.00  0.00    -0.258 C  
ENDROOT
BRANCH   4  27
HETATM   27  C   UNL     1     -11.246   6.689  71.035  1.00  0.00    -0.300 C  
HETATM   28  O   UNL     1     -12.020   6.916  71.981  1.00  0.00    -0.298 OA 
BRANCH  27  29
HETATM   29  C   UNL     1     -10.762   5.211  70.965  1.00  0.00    -0.063 C  
HETATM   30  O   UNL     1     -10.936   4.523  72.204  1.00  0.00    -0.002 OA 
HETATM   31  H   UNL     1     -10.641   3.621  72.162  1.00  0.00     0.000 HD 
ENDBRANCH  27  29
ENDBRANCH   4  27
TORSDOF 2
ENDMDL
MODEL       86
REMARK 921   NORMALIZED FREE ENERGY PREDICTED BY IDOCK:   -1.73 KCAL/MOL
REMARK 922        TOTAL FREE ENERGY PREDICTED BY IDOCK:   -1.28 KCAL/MOL
REMARK 923 INTER-LIGAND FREE ENERGY PREDICTED BY IDOCK:   -2.49 KCAL/MOL
REMARK 924 INTRA-LIGAND FREE ENERGY PREDICTED BY IDOCK:    1.21 KCAL/MOL
REMARK 927      BINDING AFFINITY PREDICTED BY RF-SCORE:    0.00 PKD
ROOT
HETATM    1  C   UNL     1     -11.618  15.270  69.405  1.00  0.00    -0.347 C  
HETATM    2  C   UNL     1     -10.826  15.823  70.413  1.00  0.00    -0.345 C  
HETATM    3  C   UNL     1     -10.142  14.849  69.516  1.00  0.00    -0.120 C  
HETATM    4  C   UNL     1     -11.054  14.622  67.651  1.00  0.00    -0.304 C  
HETATM    5  C   UNL     1      -8.919  14.755  70.701  1.00  0.00     1.973 C  
HETATM    6  O   UNL     1     -12.385  15.255  67.417  1.00  0.00    -0.127 OA 
HETATM    7  O   UNL     1     -11.309   7.675  71.223  1.00  0.00    -0.255 OA 
HETATM    8  C   UNL     1     -10.144  15.531  68.128  1.00  0.00    -0.218 C  
HETATM    9  C   UNL     1      -9.056  14.080  67.703  1.00  0.00    -0.192 C  
HETATM   10  C   UNL     1     -10.001  16.961  67.748  1.00  0.00    -0.278 C  
HETATM   11  C   UNL     1      -9.625   9.408  71.146  1.00  0.00    -0.220 C  
HETATM   12  C   UNL     1     -12.152  10.344  68.653  1.00  0.00     0.416 C  
HETATM   13  H   UNL     1     -12.801  15.152  66.569  1.00  0.00     0.000 HD 
HETATM   14  C   UNL     1      -9.869  12.531  68.076  1.00  0.00    -0.214 C  
HETATM   15  C   UNL     1     -11.274  10.884  69.779  1.00  0.00    -0.351 C  
HETATM   16  C   UNL     1      -9.981  10.020  70.020  1.00  0.00    -0.273 C  
HETATM   17  O   UNL     1     -10.664  12.218  66.935  1.00  0.00    -0.224 OA 
HETATM   18  C   UNL     1     -10.812  12.356  69.478  1.00  0.00     0.110 C  
HETATM   19  C   UNL     1     -12.030  13.506  69.710  1.00  0.00    -0.405 C  
HETATM   20  H   UNL     1     -11.096  11.395  67.133  1.00  0.00     0.000 HD 
HETATM   21  C   UNL     1     -12.756  13.277  71.088  1.00  0.00    -0.320 C  
HETATM   22  C   UNL     1     -13.242  11.833  71.235  1.00  0.00    -0.079 C  
HETATM   23 CL   UNL     1     -11.770  13.599  72.553  1.00  0.00     1.626 Cl 
HETATM   24  C   UNL     1     -12.137  10.833  71.056  1.00  0.00    -0.452 C  
HETATM   25  C   UNL     1     -11.972   9.833  71.935  1.00  0.00    -0.270 C  
HETATM   26  C   UNL     1     -11.011   8.841  71.439  1.00  0.00    -0.289 C  
ENDROOT
BRANCH   4  27
HETATM   27  C   UNL     1     -10.684  14.857  65.940  1.00  0.00    -0.323 C  
HETATM   28  O   UNL     1      -9.675  15.452  65.523  1.00  0.00    -0.331 OA 
BRANCH  27  29
HETATM   29  C   UNL     1     -11.669  14.432  64.813  1.00  0.00    -0.416 C  
HETATM   30  O   UNL     1     -11.422  15.122  63.587  1.00  0.00    -0.265 OA 
HETATM   31  H   UNL     1     -12.023  14.863  62.898  1.00  0.00     0.000 HD 
ENDBRANCH  27  29
ENDBRANCH   4  27
TORSDOF 2
ENDMDL
MODEL       87
REMARK 921   NORMALIZED FREE ENERGY PREDICTED BY IDOCK:   -1.71 KCAL/MOL
REMARK 922        TOTAL FREE ENERGY PREDICTED BY IDOCK:   -1.27 KCAL/MOL
REMARK 923 INTER-LIGAND FREE ENERGY PREDICTED BY IDOCK:   -2.96 KCAL/MOL
REMARK 924 INTRA-LIGAND FREE ENERGY PREDICTED BY IDOCK:    1.69 KCAL/MOL
REMARK 927      BINDING AFFINITY PREDICTED BY RF-SCORE:    0.00 PKD
ROOT
HETATM    1  C   UNL     1     -10.088   4.740  66.883  1.00  0.00    -0.246 C  
HETATM    2  C   UNL     1     -10.338   5.363  65.659  1.00  0.00     0.188 C  
HETATM    3  C   UNL     1      -8.906   5.287  66.064  1.00  0.00    -0.141 C  
HETATM    4  C   UNL     1      -8.487   3.765  67.431  1.00  0.00    -0.099 C  
HETATM    5  C   UNL     1      -8.603   6.483  64.887  1.00  0.00     0.105 C  
HETATM    6  O   UNL     1      -9.621   3.020  68.052  1.00  0.00    -0.191 OA 
HETATM    7  O   UNL     1      -6.736  10.550  70.895  1.00  0.00    -0.323 OA 
HETATM    8  C   UNL     1      -8.582   3.775  66.063  1.00  0.00    -0.113 C  
HETATM    9  C   UNL     1      -6.853   4.411  66.336  1.00  0.00    -0.055 C  
HETATM   10  C   UNL     1      -9.056   2.679  65.176  1.00  0.00    -0.140 C  
HETATM   11  C   UNL     1      -6.464   9.759  68.626  1.00  0.00    -0.047 C  
HETATM   12  C   UNL     1      -7.461   6.830  70.603  1.00  0.00    -0.083 C  
HETATM   13  H   UNL     1      -9.431   2.328  68.674  1.00  0.00     0.000 HD 
HETATM   14  C   UNL     1      -6.772   5.467  67.776  1.00  0.00    -0.055 C  
HETATM   15  C   UNL     1      -7.704   7.571  69.291  1.00  0.00    -0.112 C  
HETATM   16  C   UNL     1      -6.476   8.446  68.841  1.00  0.00    -0.049 C  
HETATM   17  O   UNL     1      -6.585   4.599  68.892  1.00  0.00    -0.042 OA 
HETATM   18  C   UNL     1      -8.020   6.563  68.126  1.00  0.00    -0.110 C  
HETATM   19  C   UNL     1      -9.583   5.922  68.196  1.00  0.00    -0.130 C  
HETATM   20  H   UNL     1      -6.542   5.160  69.658  1.00  0.00     0.000 HD 
HETATM   21  C   UNL     1     -10.643   7.062  68.431  1.00  0.00    -0.202 C  
HETATM   22  C   UNL     1     -10.281   7.924  69.644  1.00  0.00    -0.207 C  
HETATM   23 CL   UNL     1     -10.864   8.216  67.075  1.00  0.00    -0.241 Cl 
HETATM   24  C   UNL     1      -8.902   8.509  69.543  1.00  0.00    -0.141 C  
HETATM   25  C   UNL     1      -8.692   9.811  69.786  1.00  0.00    -0.228 C  
HETATM   26  C   UNL     1      -7.259  10.110  69.880  1.00  0.00    -0.154 C  
ENDROOT
BRANCH   4  27
HETATM   27  C   UNL     1      -7.509   2.299  67.548  1.00  0.00    -0.056 C  
HETATM   28  O   UNL     1      -7.132   1.798  68.621  1.00  0.00    -0.039 OA 
BRANCH  27  29
HETATM   29  C   UNL     1      -6.940   1.580  66.290  1.00  0.00    -0.042 C  
HETATM   30  O   UNL     1      -5.533   1.780  66.141  1.00  0.00    -0.012 OA 
HETATM   31  H   UNL     1      -5.185   1.341  65.373  1.00  0.00     0.000 HD 
ENDBRANCH  27  29
ENDBRANCH   4  27
TORSDOF 2
ENDMDL
MODEL       88
REMARK 921   NORMALIZED FREE ENERGY PREDICTED BY IDOCK:   -1.53 KCAL/MOL
REMARK 922        TOTAL FREE ENERGY PREDICTED BY IDOCK:   -1.06 KCAL/MOL
REMARK 923 INTER-LIGAND FREE ENERGY PREDICTED BY IDOCK:   -2.66 KCAL/MOL
REMARK 924 INTRA-LIGAND FREE ENERGY PREDICTED BY IDOCK:    1.60 KCAL/MOL
REMARK 927      BINDING AFFINITY PREDICTED BY RF-SCORE:    0.00 PKD
ROOT
HETATM    1  C   UNL     1     -10.040  15.875  66.253  1.00  0.00    -0.317 C  
HETATM    2  C   UNL     1      -9.044  15.113  65.639  1.00  0.00     0.253 C  
HETATM    3  C   UNL     1      -9.029  15.115  67.129  1.00  0.00    -0.231 C  
HETATM    4  C   UNL     1     -10.866  15.591  67.999  1.00  0.00    -0.300 C  
HETATM    5  C   UNL     1      -7.438  14.510  67.024  1.00  0.00     0.187 C  
HETATM    6  O   UNL     1     -11.973  16.081  67.127  1.00  0.00     0.512 OA 
HETATM    7  O   UNL     1      -5.758  21.076  70.213  1.00  0.00    -0.522 OA 
HETATM    8  C   UNL     1     -10.345  14.411  67.533  1.00  0.00    -0.251 C  
HETATM    9  C   UNL     1      -9.582  14.527  69.228  1.00  0.00     0.042 C  
HETATM   10  C   UNL     1     -11.075  13.280  66.902  1.00  0.00    -0.310 C  
HETATM   11  C   UNL     1      -5.552  18.688  69.901  1.00  0.00    -0.242 C  
HETATM   12  C   UNL     1      -9.140  19.431  69.666  1.00  0.00     0.363 C  
HETATM   13  H   UNL     1     -12.809  16.298  67.522  1.00  0.00     0.000 HD 
HETATM   14  C   UNL     1      -9.168  16.218  69.636  1.00  0.00     0.159 C  
HETATM   15  C   UNL     1      -8.002  18.639  69.028  1.00  0.00    -0.167 C  
HETATM   16  C   UNL     1      -6.828  18.332  70.029  1.00  0.00     0.491 C  
HETATM   17  O   UNL     1     -10.355  16.796  70.174  1.00  0.00     0.031 OA 
HETATM   18  C   UNL     1      -8.519  17.264  68.466  1.00  0.00    -0.267 C  
HETATM   19  C   UNL     1      -9.391  17.410  67.025  1.00  0.00    -0.265 C  
HETATM   20  H   UNL     1     -10.134  17.695  70.391  1.00  0.00     0.000 HD 
HETATM   21  C   UNL     1      -8.627  18.331  66.002  1.00  0.00     0.019 C  
HETATM   22  C   UNL     1      -8.252  19.677  66.629  1.00  0.00    -0.342 C  
HETATM   23 CL   UNL     1      -7.093  17.668  65.348  1.00  0.00     0.311 Cl 
HETATM   24  C   UNL     1      -7.451  19.522  67.889  1.00  0.00    -0.310 C  
HETATM   25  C   UNL     1      -6.329  20.232  68.077  1.00  0.00    -0.307 C  
HETATM   26  C   UNL     1      -5.852  20.118  69.460  1.00  0.00    -0.319 C  
ENDROOT
BRANCH   4  27
HETATM   27  C   UNL     1     -12.076  14.861  69.060  1.00  0.00    -0.212 C  
HETATM   28  O   UNL     1     -12.418  13.667  69.006  1.00  0.00    -0.170 OA 
BRANCH  27  29
HETATM   29  C   UNL     1     -12.903  15.702  70.077  1.00  0.00     0.085 C  
HETATM   30  O   UNL     1     -13.969  14.953  70.661  1.00  0.00    -0.585 OA 
HETATM   31  H   UNL     1     -14.473  15.466  71.282  1.00  0.00     0.000 HD 
ENDBRANCH  27  29
ENDBRANCH   4  27
TORSDOF 2
ENDMDL
MODEL       89
REMARK 921   NORMALIZED FREE ENERGY PREDICTED BY IDOCK:   -1.49 KCAL/MOL
REMARK 922        TOTAL FREE ENERGY PREDICTED BY IDOCK:   -1.02 KCAL/MOL
REMARK 923 INTER-LIGAND FREE ENERGY PREDICTED BY IDOCK:   -2.56 KCAL/MOL
REMARK 924 INTRA-LIGAND FREE ENERGY PREDICTED BY IDOCK:    1.54 KCAL/MOL
REMARK 927      BINDING AFFINITY PREDICTED BY RF-SCORE:    0.00 PKD
ROOT
HETATM    1  C   UNL     1      -9.619  15.944  69.615  1.00  0.00    -0.177 C  
HETATM    2  C   UNL     1      -9.594  17.192  68.990  1.00  0.00    -0.189 C  
HETATM    3  C   UNL     1     -10.913  16.497  68.993  1.00  0.00    -0.306 C  
HETATM    4  C   UNL     1     -11.122  15.076  70.509  1.00  0.00    -0.211 C  
HETATM    5  C   UNL     1     -11.386  17.581  67.765  1.00  0.00     0.416 C  
HETATM    6  O   UNL     1      -9.927  14.708  71.324  1.00  0.00     1.005 OA 
HETATM    7  O   UNL     1     -11.728  11.306  63.689  1.00  0.00    -0.159 OA 
HETATM    8  C   UNL     1     -11.314  16.434  70.485  1.00  0.00    -0.211 C  
HETATM    9  C   UNL     1     -12.910  15.805  69.760  1.00  0.00     0.375 C  
HETATM   10  C   UNL     1     -11.098  17.403  71.592  1.00  0.00     1.724 C  
HETATM   11  C   UNL     1     -12.511  13.470  64.431  1.00  0.00    -0.324 C  
HETATM   12  C   UNL     1     -11.291  11.752  67.438  1.00  0.00    -0.376 C  
HETATM   13  H   UNL     1     -10.022  14.061  72.013  1.00  0.00     0.000 HD 
HETATM   14  C   UNL     1     -12.629  14.376  68.721  1.00  0.00     0.380 C  
HETATM   15  C   UNL     1     -11.285  13.084  66.693  1.00  0.00    -0.341 C  
HETATM   16  C   UNL     1     -12.529  13.265  65.746  1.00  0.00    -0.480 C  
HETATM   17  O   UNL     1     -12.628  13.248  69.593  1.00  0.00    -0.062 OA 
HETATM   18  C   UNL     1     -11.276  14.293  67.699  1.00  0.00    -0.321 C  
HETATM   19  C   UNL     1      -9.771  14.552  68.426  1.00  0.00    -0.224 C  
HETATM   20  H   UNL     1     -12.479  12.489  69.042  1.00  0.00     0.000 HD 
HETATM   21  C   UNL     1      -8.623  14.540  67.350  1.00  0.00    -0.201 C  
HETATM   22  C   UNL     1      -8.675  13.277  66.486  1.00  0.00     0.082 C  
HETATM   23 CL   UNL     1      -8.625  15.910  66.190  1.00  0.00    -0.350 Cl 
HETATM   24  C   UNL     1     -10.010  13.085  65.826  1.00  0.00    -0.260 C  
HETATM   25  C   UNL     1     -10.091  12.801  64.517  1.00  0.00    -0.267 C  
HETATM   26  C   UNL     1     -11.453  12.409  64.142  1.00  0.00    -0.381 C  
ENDROOT
BRANCH   4  27
HETATM   27  C   UNL     1     -12.135  14.762  71.921  1.00  0.00    -0.335 C  
HETATM   28  O   UNL     1     -13.099  13.976  71.924  1.00  0.00    -0.343 OA 
BRANCH  27  29
HETATM   29  C   UNL     1     -11.966  15.547  73.255  1.00  0.00    -0.458 C  
HETATM   30  O   UNL     1     -11.862  14.681  74.386  1.00  0.00    -0.569 OA 
HETATM   31  H   UNL     1     -11.759  15.160  75.200  1.00  0.00     0.000 HD 
ENDBRANCH  27  29
ENDBRANCH   4  27
TORSDOF 2
ENDMDL
MODEL       90
REMARK 921   NORMALIZED FREE ENERGY PREDICTED BY IDOCK:   -1.23 KCAL/MOL
REMARK 922        TOTAL FREE ENERGY PREDICTED BY IDOCK:   -0.73 KCAL/MOL
REMARK 923 INTER-LIGAND FREE ENERGY PREDICTED BY IDOCK:   -2.84 KCAL/MOL
REMARK 924 INTRA-LIGAND FREE ENERGY PREDICTED BY IDOCK:    2.11 KCAL/MOL
REMARK 927      BINDING AFFINITY PREDICTED BY RF-SCORE:    0.00 PKD
ROOT
HETATM    1  C   UNL     1      -6.568   4.718  66.113  1.00  0.00    -0.045 C  
HETATM    2  C   UNL     1      -7.385   3.729  65.562  1.00  0.00    -0.072 C  
HETATM    3  C   UNL     1      -8.045   5.039  65.824  1.00  0.00    -0.113 C  
HETATM    4  C   UNL     1      -6.724   6.654  65.915  1.00  0.00    -0.048 C  
HETATM    5  C   UNL     1      -9.532   4.219  65.673  1.00  0.00    -0.176 C  
HETATM    6  O   UNL     1      -5.256   6.387  65.924  1.00  0.00    -0.013 OA 
HETATM    7  O   UNL     1     -10.202   6.098  72.893  1.00  0.00    -0.179 OA 
HETATM    8  C   UNL     1      -7.342   6.027  64.864  1.00  0.00    -0.073 C  
HETATM    9  C   UNL     1      -8.682   7.167  65.475  1.00  0.00    -0.042 C  
HETATM   10  C   UNL     1      -6.821   5.837  63.484  1.00  0.00    -0.040 C  
HETATM   11  C   UNL     1     -11.013   5.783  70.637  1.00  0.00    -0.319 C  
HETATM   12  C   UNL     1      -7.655   7.231  70.310  1.00  0.00    -0.089 C  
HETATM   13  H   UNL     1      -4.655   7.122  65.966  1.00  0.00     0.000 HD 
HETATM   14  C   UNL     1      -8.659   7.294  67.258  1.00  0.00    -0.121 C  
HETATM   15  C   UNL     1      -8.590   6.155  69.765  1.00  0.00    -0.132 C  
HETATM   16  C   UNL     1     -10.112   6.500  69.971  1.00  0.00    -0.203 C  
HETATM   17  O   UNL     1      -7.708   8.310  67.569  1.00  0.00    -0.096 OA 
HETATM   18  C   UNL     1      -8.358   5.932  68.226  1.00  0.00    -0.112 C  
HETATM   19  C   UNL     1      -6.952   5.061  67.876  1.00  0.00    -0.061 C  
HETATM   20  H   UNL     1      -7.697   8.378  68.517  1.00  0.00     0.000 HD 
HETATM   21  C   UNL     1      -6.851   3.778  68.783  1.00  0.00    -0.046 C  
HETATM   22  C   UNL     1      -7.002   4.126  70.267  1.00  0.00    -0.038 C  
HETATM   23 CL   UNL     1      -8.070   2.500  68.468  1.00  0.00    -0.065 Cl 
HETATM   24  C   UNL     1      -8.272   4.870  70.558  1.00  0.00    -0.096 C  
HETATM   25  C   UNL     1      -9.068   4.496  71.571  1.00  0.00    -0.174 C  
HETATM   26  C   UNL     1     -10.105   5.499  71.831  1.00  0.00    -0.189 C  
ENDROOT
BRANCH   4  27
HETATM   27  C   UNL     1      -6.404   8.174  65.073  1.00  0.00    -0.049 C  
HETATM   28  O   UNL     1      -5.307   8.758  65.086  1.00  0.00    -0.038 OA 
BRANCH  27  29
HETATM   29  C   UNL     1      -7.525   8.967  64.339  1.00  0.00    -0.106 C  
HETATM   30  O   UNL     1      -7.576   8.668  62.943  1.00  0.00    -0.102 OA 
HETATM   31  H   UNL     1      -8.260   9.151  62.494  1.00  0.00     0.000 HD 
ENDBRANCH  27  29
ENDBRANCH   4  27
TORSDOF 2
ENDMDL
MODEL       91
REMARK 921   NORMALIZED FREE ENERGY PREDICTED BY IDOCK:   -1.13 KCAL/MOL
REMARK 922        TOTAL FREE ENERGY PREDICTED BY IDOCK:   -0.62 KCAL/MOL
REMARK 923 INTER-LIGAND FREE ENERGY PREDICTED BY IDOCK:   -1.79 KCAL/MOL
REMARK 924 INTRA-LIGAND FREE ENERGY PREDICTED BY IDOCK:    1.17 KCAL/MOL
REMARK 927      BINDING AFFINITY PREDICTED BY RF-SCORE:    0.00 PKD
ROOT
HETATM    1  C   UNL     1      -9.728  12.083  67.784  1.00  0.00    -0.192 C  
HETATM    2  C   UNL     1     -10.099  11.904  66.450  1.00  0.00    -0.241 C  
HETATM    3  C   UNL     1     -10.889  11.129  67.448  1.00  0.00    -0.317 C  
HETATM    4  C   UNL     1     -10.853  11.936  69.374  1.00  0.00    -0.032 C  
HETATM    5  C   UNL     1     -11.427  10.171  66.145  1.00  0.00     1.510 C  
HETATM    6  O   UNL     1      -9.917  13.061  69.669  1.00  0.00     0.260 OA 
HETATM    7  O   UNL     1      -7.654   4.816  69.778  1.00  0.00    -0.055 OA 
HETATM    8  C   UNL     1     -11.630  12.205  68.276  1.00  0.00    -0.382 C  
HETATM    9  C   UNL     1     -12.471  10.703  68.988  1.00  0.00     0.436 C  
HETATM   10  C   UNL     1     -12.214  13.511  67.872  1.00  0.00    -0.168 C  
HETATM   11  C   UNL     1      -9.519   5.696  68.517  1.00  0.00    -0.149 C  
HETATM   12  C   UNL     1      -8.579   8.328  70.898  1.00  0.00    -0.152 C  
HETATM   13  H   UNL     1      -9.901  13.428  70.544  1.00  0.00     0.000 HD 
HETATM   14  C   UNL     1     -11.279   9.549  69.655  1.00  0.00    -0.108 C  
HETATM   15  C   UNL     1      -8.969   8.063  69.447  1.00  0.00    -0.148 C  
HETATM   16  C   UNL     1      -9.822   6.752  69.268  1.00  0.00    -0.160 C  
HETATM   17  O   UNL     1     -11.015   9.983  70.988  1.00  0.00    -0.322 OA 
HETATM   18  C   UNL     1      -9.808   9.258  68.861  1.00  0.00    -0.170 C  
HETATM   19  C   UNL     1      -8.874  10.618  68.490  1.00  0.00    -0.148 C  
HETATM   20  H   UNL     1     -10.381   9.370  71.343  1.00  0.00     0.000 HD 
HETATM   21  C   UNL     1      -7.591  10.208  67.675  1.00  0.00    -0.090 C  
HETATM   22  C   UNL     1      -6.805   9.101  68.383  1.00  0.00    -0.064 C  
HETATM   23 CL   UNL     1      -7.884   9.596  66.014  1.00  0.00    -0.101 Cl 
HETATM   24  C   UNL     1      -7.647   7.892  68.672  1.00  0.00    -0.101 C  
HETATM   25  C   UNL     1      -7.205   6.662  68.367  1.00  0.00    -0.085 C  
HETATM   26  C   UNL     1      -8.060   5.628  68.959  1.00  0.00    -0.097 C  
ENDROOT
BRANCH   4  27
HETATM   27  C   UNL     1     -11.970  12.603  70.569  1.00  0.00    -0.192 C  
HETATM   28  O   UNL     1     -12.863  11.944  71.129  1.00  0.00    -0.343 OA 
BRANCH  27  29
HETATM   29  C   UNL     1     -11.994  14.118  70.928  1.00  0.00    -0.297 C  
HETATM   30  O   UNL     1     -10.733  14.581  71.412  1.00  0.00     0.116 OA 
HETATM   31  H   UNL     1     -10.747  15.505  71.631  1.00  0.00     0.000 HD 
ENDBRANCH  27  29
ENDBRANCH   4  27
TORSDOF 2
ENDMDL
MODEL       92
REMARK 921   NORMALIZED FREE ENERGY PREDICTED BY IDOCK:   -0.10 KCAL/MOL
REMARK 922        TOTAL FREE ENERGY PREDICTED BY IDOCK:    0.54 KCAL/MOL
REMARK 923 INTER-LIGAND FREE ENERGY PREDICTED BY IDOCK:   -0.29 KCAL/MOL
REMARK 924 INTRA-LIGAND FREE ENERGY PREDICTED BY IDOCK:    0.83 KCAL/MOL
REMARK 927      BINDING AFFINITY PREDICTED BY RF-SCORE:    0.00 PKD
ROOT
HETATM    1  C   UNL     1      -6.205  11.148  67.583  1.00  0.00    -0.053 C  
HETATM    2  C   UNL     1      -6.055  10.789  66.243  1.00  0.00    -0.126 C  
HETATM    3  C   UNL     1      -7.453  11.049  66.688  1.00  0.00    -0.146 C  
HETATM    4  C   UNL     1      -7.595  12.265  68.381  1.00  0.00    -0.128 C  
HETATM    5  C   UNL     1      -7.959  10.240  65.275  1.00  0.00    -0.148 C  
HETATM    6  O   UNL     1      -6.350  12.609  69.129  1.00  0.00    -0.087 OA 
HETATM    7  O   UNL     1     -10.721   5.342  70.224  1.00  0.00    -0.285 OA 
HETATM    8  C   UNL     1      -7.473  12.554  67.045  1.00  0.00    -0.009 C  
HETATM    9  C   UNL     1      -9.300  12.224  67.205  1.00  0.00    -0.185 C  
HETATM   10  C   UNL     1      -6.774  13.709  66.424  1.00  0.00     3.228 C  
HETATM   11  C   UNL     1     -10.782   6.674  68.207  1.00  0.00    -0.317 C  
HETATM   12  C   UNL     1      -9.273   8.812  70.782  1.00  0.00    -0.242 C  
HETATM   13  H   UNL     1      -6.414  13.161  69.898  1.00  0.00     0.000 HD 
HETATM   14  C   UNL     1      -9.618  10.900  68.365  1.00  0.00    -0.177 C  
HETATM   15  C   UNL     1      -9.152   8.362  69.329  1.00  0.00    -0.150 C  
HETATM   16  C   UNL     1     -10.518   7.873  68.720  1.00  0.00    -0.198 C  
HETATM   17  O   UNL     1      -9.655  11.506  69.655  1.00  0.00    -0.036 OA 
HETATM   18  C   UNL     1      -8.618   9.529  68.421  1.00  0.00    -0.120 C  
HETATM   19  C   UNL     1      -6.961   9.817  68.599  1.00  0.00    -0.063 C  
HETATM   20  H   UNL     1      -9.825  10.802  70.271  1.00  0.00     0.000 HD 
HETATM   21  C   UNL     1      -6.152   8.469  68.539  1.00  0.00    -0.046 C  
HETATM   22  C   UNL     1      -6.702   7.438  69.528  1.00  0.00    -0.041 C  
HETATM   23 CL   UNL     1      -6.132   7.640  66.948  1.00  0.00    -0.046 Cl 
HETATM   24  C   UNL     1      -8.167   7.175  69.329  1.00  0.00    -0.128 C  
HETATM   25  C   UNL     1      -8.634   5.919  69.269  1.00  0.00    -0.112 C  
HETATM   26  C   UNL     1     -10.099   5.893  69.326  1.00  0.00    -0.194 C  
ENDROOT
BRANCH   4  27
HETATM   27  C   UNL     1      -8.268  13.827  68.856  1.00  0.00     0.089 C  
HETATM   28  O   UNL     1      -9.432  14.187  68.609  1.00  0.00    -0.207 OA 
BRANCH  27  29
HETATM   29  C   UNL     1      -7.402  14.933  69.528  1.00  0.00    -0.178 C  
HETATM   30  O   UNL     1      -7.616  16.219  68.946  1.00  0.00    -0.186 OA 
HETATM   31  H   UNL     1      -7.088  16.894  69.355  1.00  0.00     0.000 HD 
ENDBRANCH  27  29
ENDBRANCH   4  27
TORSDOF 2
ENDMDL
MODEL       93
REMARK 921   NORMALIZED FREE ENERGY PREDICTED BY IDOCK:    0.60 KCAL/MOL
REMARK 922        TOTAL FREE ENERGY PREDICTED BY IDOCK:    1.31 KCAL/MOL
REMARK 923 INTER-LIGAND FREE ENERGY PREDICTED BY IDOCK:   -0.35 KCAL/MOL
REMARK 924 INTRA-LIGAND FREE ENERGY PREDICTED BY IDOCK:    1.67 KCAL/MOL
REMARK 927      BINDING AFFINITY PREDICTED BY RF-SCORE:    0.00 PKD
ROOT
HETATM    1  C   UNL     1      -8.758  16.227  66.098  1.00  0.00    -0.353 C  
HETATM    2  C   UNL     1      -9.738  17.068  65.567  1.00  0.00     0.216 C  
HETATM    3  C   UNL     1      -9.538  17.159  67.041  1.00  0.00    -0.262 C  
HETATM    4  C   UNL     1      -7.661  16.512  67.688  1.00  0.00    -0.149 C  
HETATM    5  C   UNL     1     -11.047  17.950  67.105  1.00  0.00     0.189 C  
HETATM    6  O   UNL     1      -6.756  15.834  66.714  1.00  0.00    -0.227 OA 
HETATM    7  O   UNL     1     -12.994  11.854  70.998  1.00  0.00    -0.237 OA 
HETATM    8  C   UNL     1      -8.105  17.716  67.205  1.00  0.00    -0.222 C  
HETATM    9  C   UNL     1      -8.624  17.801  68.992  1.00  0.00    -0.013 C  
HETATM   10  C   UNL     1      -7.349  18.706  66.394  1.00  0.00    -0.272 C  
HETATM   11  C   UNL     1     -12.966  14.225  70.530  1.00  0.00    -0.259 C  
HETATM   12  C   UNL     1      -9.560  13.026  69.869  1.00  0.00     2.534 C  
HETATM   13  H   UNL     1      -5.902  15.539  67.008  1.00  0.00     0.000 HD 
HETATM   14  C   UNL     1      -9.167  16.203  69.584  1.00  0.00     0.077 C  
HETATM   15  C   UNL     1     -10.679  13.914  69.331  1.00  0.00    -0.051 C  
HETATM   16  C   UNL     1     -11.653  14.426  70.456  1.00  0.00    -0.270 C  
HETATM   17  O   UNL     1      -7.990  15.515  70.000  1.00  0.00    -0.032 OA 
HETATM   18  C   UNL     1     -10.094  15.177  68.599  1.00  0.00    -0.222 C  
HETATM   19  C   UNL     1      -9.462  14.835  67.068  1.00  0.00    -0.241 C  
HETATM   20  H   UNL     1      -8.278  14.666  70.315  1.00  0.00     0.000 HD 
HETATM   21  C   UNL     1     -10.466  13.956  66.234  1.00  0.00    -0.287 C  
HETATM   22  C   UNL     1     -10.899  12.708  67.010  1.00  0.00    -0.282 C  
HETATM   23 CL   UNL     1     -11.992  14.764  65.744  1.00  0.00    -0.224 Cl 
HETATM   24  C   UNL     1     -11.486  13.039  68.351  1.00  0.00    -0.345 C  
HETATM   25  C   UNL     1     -12.644  12.488  68.745  1.00  0.00     0.842 C  
HETATM   26  C   UNL     1     -12.900  12.745  70.166  1.00  0.00     0.412 C  
ENDROOT
BRANCH   4  27
HETATM   27  C   UNL     1      -6.235  17.147  68.514  1.00  0.00    -0.151 C  
HETATM   28  O   UNL     1      -5.860  16.776  69.639  1.00  0.00    -0.181 OA 
BRANCH  27  29
HETATM   29  C   UNL     1      -5.397  18.324  67.933  1.00  0.00    -0.156 C  
HETATM   30  O   UNL     1      -5.281  19.412  68.851  1.00  0.00    -0.188 OA 
HETATM   31  H   UNL     1      -4.769  20.131  68.498  1.00  0.00     0.000 HD 
ENDBRANCH  27  29
ENDBRANCH   4  27
TORSDOF 2
ENDMDL
MODEL       94
REMARK 921   NORMALIZED FREE ENERGY PREDICTED BY IDOCK:    1.54 KCAL/MOL
REMARK 922        TOTAL FREE ENERGY PREDICTED BY IDOCK:    2.36 KCAL/MOL
REMARK 923 INTER-LIGAND FREE ENERGY PREDICTED BY IDOCK:    0.94 KCAL/MOL
REMARK 924 INTRA-LIGAND FREE ENERGY PREDICTED BY IDOCK:    1.42 KCAL/MOL
REMARK 927      BINDING AFFINITY PREDICTED BY RF-SCORE:    0.00 PKD
ROOT
HETATM    1  C   UNL     1     -10.427   9.222  70.058  1.00  0.00    -0.254 C  
HETATM    2  C   UNL     1     -11.425   8.832  69.163  1.00  0.00     0.599 C  
HETATM    3  C   UNL     1     -10.058   8.967  68.586  1.00  0.00    -0.207 C  
HETATM    4  C   UNL     1      -8.521   8.803  69.991  1.00  0.00    -0.133 C  
HETATM    5  C   UNL     1     -10.804   8.986  67.053  1.00  0.00    -0.044 C  
HETATM    6  O   UNL     1      -8.869   8.774  71.442  1.00  0.00    -0.191 OA 
HETATM    7  O   UNL     1      -8.063  15.955  66.870  1.00  0.00    -0.201 OA 
HETATM    8  C   UNL     1      -9.231   7.864  69.286  1.00  0.00    -0.148 C  
HETATM    9  C   UNL     1      -7.952   8.398  68.041  1.00  0.00    -0.119 C  
HETATM   10  C   UNL     1      -9.609   6.494  69.722  1.00  0.00    -0.161 C  
HETATM   11  C   UNL     1      -8.591  13.794  65.924  1.00  0.00     1.228 C  
HETATM   12  C   UNL     1      -7.386  13.137  69.329  1.00  0.00     0.227 C  
HETATM   13  H   UNL     1      -8.171   8.700  72.081  1.00  0.00     0.000 HD 
HETATM   14  C   UNL     1      -7.620  10.151  68.166  1.00  0.00    -0.087 C  
HETATM   15  C   UNL     1      -8.462  12.770  68.312  1.00  0.00    -0.161 C  
HETATM   16  C   UNL     1      -8.009  13.004  66.823  1.00  0.00     0.234 C  
HETATM   17  O   UNL     1      -6.631  10.294  69.183  1.00  0.00    -0.051 OA 
HETATM   18  C   UNL     1      -8.875  11.258  68.449  1.00  0.00    -0.159 C  
HETATM   19  C   UNL     1      -9.861  10.949  69.788  1.00  0.00     0.304 C  
HETATM   20  H   UNL     1      -6.455  11.225  69.249  1.00  0.00     0.000 HD 
HETATM   21  C   UNL     1     -11.033  11.996  69.871  1.00  0.00     0.357 C  
HETATM   22  C   UNL     1     -10.507  13.433  69.818  1.00  0.00     0.763 C  
HETATM   23 CL   UNL     1     -12.267  11.892  68.572  1.00  0.00    -0.099 Cl 
HETATM   24  C   UNL     1      -9.663  13.693  68.605  1.00  0.00    -0.118 C  
HETATM   25  C   UNL     1      -9.870  14.780  67.847  1.00  0.00    -0.212 C  
HETATM   26  C   UNL     1      -8.786  14.968  66.878  1.00  0.00    -0.256 C  
ENDROOT
BRANCH   4  27
HETATM   27  C   UNL     1      -7.131   7.772  70.343  1.00  0.00    -0.050 C  
HETATM   28  O   UNL     1      -6.105   8.164  70.925  1.00  0.00    -0.033 OA 
BRANCH  27  29
HETATM   29  C   UNL     1      -7.039   6.303  69.836  1.00  0.00    -0.072 C  
HETATM   30  O   UNL     1      -5.841   6.057  69.098  1.00  0.00    -0.017 OA 
HETATM   31  H   UNL     1      -5.784   5.161  68.788  1.00  0.00     0.000 HD 
ENDBRANCH  27  29
ENDBRANCH   4  27
TORSDOF 2
ENDMDL
MODEL       95
REMARK 921   NORMALIZED FREE ENERGY PREDICTED BY IDOCK:    1.74 KCAL/MOL
REMARK 922        TOTAL FREE ENERGY PREDICTED BY IDOCK:    2.59 KCAL/MOL
REMARK 923 INTER-LIGAND FREE ENERGY PREDICTED BY IDOCK:    1.73 KCAL/MOL
REMARK 924 INTRA-LIGAND FREE ENERGY PREDICTED BY IDOCK:    0.86 KCAL/MOL
REMARK 927      BINDING AFFINITY PREDICTED BY RF-SCORE:    0.00 PKD
ROOT
HETATM    1  C   UNL     1     -12.068  14.604  66.763  1.00  0.00    -0.223 C  
HETATM    2  C   UNL     1     -12.173  15.893  66.239  1.00  0.00     1.560 C  
HETATM    3  C   UNL     1     -11.009  15.095  65.760  1.00  0.00    -0.350 C  
HETATM    4  C   UNL     1     -11.266  13.030  65.930  1.00  0.00    -0.289 C  
HETATM    5  C   UNL     1     -10.337  16.567  65.221  1.00  0.00    -0.162 C  
HETATM    6  O   UNL     1     -12.448  12.508  66.677  1.00  0.00    -0.352 OA 
HETATM    7  O   UNL     1      -5.164  14.990  70.404  1.00  0.00    -0.109 OA 
HETATM    8  C   UNL     1     -11.640  13.929  64.964  1.00  0.00    -0.350 C  
HETATM    9  C   UNL     1      -9.858  13.609  64.526  1.00  0.00     0.270 C  
HETATM   10  C   UNL     1     -12.847  13.884  64.098  1.00  0.00     0.277 C  
HETATM   11  C   UNL     1      -5.920  15.771  68.244  1.00  0.00    -0.114 C  
HETATM   12  C   UNL     1      -7.967  12.825  69.026  1.00  0.00     0.308 C  
HETATM   13  H   UNL     1     -12.565  11.569  66.755  1.00  0.00     0.000 HD 
HETATM   14  C   UNL     1      -8.856  13.414  65.995  1.00  0.00     0.556 C  
HETATM   15  C   UNL     1      -8.017  14.250  68.482  1.00  0.00    -0.145 C  
HETATM   16  C   UNL     1      -6.647  14.723  67.867  1.00  0.00    -0.175 C  
HETATM   17  O   UNL     1      -8.968  12.042  66.369  1.00  0.00    -0.222 OA 
HETATM   18  C   UNL     1      -9.112  14.387  67.362  1.00  0.00    -0.202 C  
HETATM   19  C   UNL     1     -10.691  14.431  67.966  1.00  0.00    -0.244 C  
HETATM   20  H   UNL     1      -8.436  11.938  67.149  1.00  0.00     0.000 HD 
HETATM   21  C   UNL     1     -10.800  15.442  69.167  1.00  0.00    -0.249 C  
HETATM   22  C   UNL     1      -9.743  15.158  70.238  1.00  0.00     0.313 C  
HETATM   23 CL   UNL     1     -10.601  17.176  68.750  1.00  0.00    -0.349 Cl 
HETATM   24  C   UNL     1      -8.348  15.157  69.685  1.00  0.00    -0.065 C  
HETATM   25  C   UNL     1      -7.369  15.842  70.295  1.00  0.00     0.700 C  
HETATM   26  C   UNL     1      -6.055  15.500  69.740  1.00  0.00    -0.153 C  
ENDROOT
BRANCH   4  27
HETATM   27  C   UNL     1     -11.333  11.598  64.898  1.00  0.00    -0.184 C  
HETATM   28  O   UNL     1     -11.413  11.638  63.658  1.00  0.00    -0.418 OA 
BRANCH  27  29
HETATM   29  C   UNL     1     -11.418  10.157  65.483  1.00  0.00     2.301 C  
HETATM   30  O   UNL     1     -10.639  10.007  66.671  1.00  0.00    -0.198 OA 
HETATM   31  H   UNL     1     -10.690   9.128  67.028  1.00  0.00     0.000 HD 
ENDBRANCH  27  29
ENDBRANCH   4  27
TORSDOF 2
ENDMDL
MODEL       96
REMARK 921   NORMALIZED FREE ENERGY PREDICTED BY IDOCK:    2.14 KCAL/MOL
REMARK 922        TOTAL FREE ENERGY PREDICTED BY IDOCK:    3.04 KCAL/MOL
REMARK 923 INTER-LIGAND FREE ENERGY PREDICTED BY IDOCK:    1.44 KCAL/MOL
REMARK 924 INTRA-LIGAND FREE ENERGY PREDICTED BY IDOCK:    1.60 KCAL/MOL
REMARK 927      BINDING AFFINITY PREDICTED BY RF-SCORE:    0.00 PKD
ROOT
HETATM    1  C   UNL     1      -9.352  14.734  69.657  1.00  0.00     0.186 C  
HETATM    2  C   UNL     1      -9.607  15.368  70.874  1.00  0.00     1.495 C  
HETATM    3  C   UNL     1     -10.662  15.524  69.833  1.00  0.00    -0.321 C  
HETATM    4  C   UNL     1     -10.645  14.029  68.375  1.00  0.00    -0.254 C  
HETATM    5  C   UNL     1     -11.266  16.817  70.766  1.00  0.00     0.282 C  
HETATM    6  O   UNL     1      -9.508  13.063  68.343  1.00  0.00    -0.255 OA 
HETATM    7  O   UNL     1      -9.282  20.820  64.754  1.00  0.00     1.028 OA 
HETATM    8  C   UNL     1     -11.213  14.095  69.622  1.00  0.00    -0.241 C  
HETATM    9  C   UNL     1     -12.458  15.010  68.581  1.00  0.00     0.216 C  
HETATM   10  C   UNL     1     -11.425  12.982  70.585  1.00  0.00     0.630 C  
HETATM   11  C   UNL     1     -10.738  20.213  66.586  1.00  0.00    -0.235 C  
HETATM   12  C   UNL     1      -9.467  17.052  65.216  1.00  0.00     1.092 C  
HETATM   13  H   UNL     1      -9.501  12.383  67.680  1.00  0.00     0.000 HD 
HETATM   14  C   UNL     1     -11.651  15.985  67.317  1.00  0.00     0.304 C  
HETATM   15  C   UNL     1      -9.749  17.808  66.511  1.00  0.00    -0.324 C  
HETATM   16  C   UNL     1     -10.862  18.908  66.353  1.00  0.00    -0.231 C  
HETATM   17  O   UNL     1     -11.438  15.105  66.216  1.00  0.00    -0.280 OA 
HETATM   18  C   UNL     1     -10.212  16.824  67.648  1.00  0.00    -0.289 C  
HETATM   19  C   UNL     1      -8.949  15.915  68.308  1.00  0.00    -0.184 C  
HETATM   20  H   UNL     1     -11.010  15.623  65.544  1.00  0.00     0.000 HD 
HETATM   21  C   UNL     1      -7.719  16.835  68.650  1.00  0.00    -0.232 C  
HETATM   22  C   UNL     1      -7.299  17.682  67.445  1.00  0.00    -0.202 C  
HETATM   23 CL   UNL     1      -7.967  18.004  69.990  1.00  0.00     1.500 Cl 
HETATM   24  C   UNL     1      -8.428  18.505  66.897  1.00  0.00    -0.277 C  
HETATM   25  C   UNL     1      -8.259  19.809  66.633  1.00  0.00    -0.353 C  
HETATM   26  C   UNL     1      -9.393  20.350  65.877  1.00  0.00     0.063 C  
ENDROOT
BRANCH   4  27
HETATM   27  C   UNL     1     -11.696  12.753  67.751  1.00  0.00    -0.359 C  
HETATM   28  O   UNL     1     -12.214  12.771  66.621  1.00  0.00    -0.481 OA 
BRANCH  27  29
HETATM   29  C   UNL     1     -12.154  11.552  68.629  1.00  0.00    -0.129 C  
HETATM   30  O   UNL     1     -11.834  10.293  68.035  1.00  0.00    -0.708 OA 
HETATM   31  H   UNL     1     -12.113   9.559  68.570  1.00  0.00     0.000 HD 
ENDBRANCH  27  29
ENDBRANCH   4  27
TORSDOF 2
ENDMDL
MODEL       97
REMARK 921   NORMALIZED FREE ENERGY PREDICTED BY IDOCK:    3.52 KCAL/MOL
REMARK 922        TOTAL FREE ENERGY PREDICTED BY IDOCK:    4.57 KCAL/MOL
REMARK 923 INTER-LIGAND FREE ENERGY PREDICTED BY IDOCK:    0.57 KCAL/MOL
REMARK 924 INTRA-LIGAND FREE ENERGY PREDICTED BY IDOCK:    4.00 KCAL/MOL
REMARK 927      BINDING AFFINITY PREDICTED BY RF-SCORE:    0.00 PKD
ROOT
HETATM    1  C   UNL     1      -9.098  14.123  68.744  1.00  0.00    -0.071 C  
HETATM    2  C   UNL     1      -7.944  14.824  68.390  1.00  0.00    -0.138 C  
HETATM    3  C   UNL     1      -8.690  14.198  67.262  1.00  0.00    -0.229 C  
HETATM    4  C   UNL     1     -10.705  13.833  67.673  1.00  0.00    -0.249 C  
HETATM    5  C   UNL     1      -7.281  14.415  66.328  1.00  0.00     3.123 C  
HETATM    6  O   UNL     1     -11.202  14.015  69.069  1.00  0.00    -0.254 OA 
HETATM    7  O   UNL     1      -7.332   6.925  66.265  1.00  0.00    -0.073 OA 
HETATM    8  C   UNL     1     -10.042  14.949  67.228  1.00  0.00    -0.235 C  
HETATM    9  C   UNL     1     -10.249  13.968  65.657  1.00  0.00    -0.351 C  
HETATM   10  C   UNL     1     -10.371  16.372  67.502  1.00  0.00    -0.288 C  
HETATM   11  C   UNL     1      -7.044   9.112  65.276  1.00  0.00    -0.088 C  
HETATM   12  C   UNL     1      -9.994   9.367  67.446  1.00  0.00    -0.252 C  
HETATM   13  H   UNL     1     -12.118  13.849  69.256  1.00  0.00     0.000 HD 
HETATM   14  C   UNL     1     -10.067  12.215  65.961  1.00  0.00    -0.235 C  
HETATM   15  C   UNL     1      -8.706  10.072  67.031  1.00  0.00    -0.137 C  
HETATM   16  C   UNL     1      -8.213   9.660  65.595  1.00  0.00    -0.121 C  
HETATM   17  O   UNL     1     -11.350  11.751  66.372  1.00  0.00    -0.329 OA 
HETATM   18  C   UNL     1      -8.891  11.634  67.039  1.00  0.00    -0.177 C  
HETATM   19  C   UNL     1      -8.903  12.303  68.592  1.00  0.00     0.022 C  
HETATM   20  H   UNL     1     -11.254  10.819  66.533  1.00  0.00     0.000 HD 
HETATM   21  C   UNL     1      -7.706  11.744  69.449  1.00  0.00     0.354 C  
HETATM   22  C   UNL     1      -7.677  10.213  69.442  1.00  0.00    -0.138 C  
HETATM   23 CL   UNL     1      -6.067  12.253  68.926  1.00  0.00    -0.068 Cl 
HETATM   24  C   UNL     1      -7.634   9.643  68.054  1.00  0.00    -0.083 C  
HETATM   25  C   UNL     1      -6.751   8.686  67.735  1.00  0.00    -0.066 C  
HETATM   26  C   UNL     1      -7.049   8.104  66.422  1.00  0.00    -0.075 C  
ENDROOT
BRANCH   4  27
HETATM   27  C   UNL     1     -12.301  14.309  67.083  1.00  0.00    -0.134 C  
HETATM   28  O   UNL     1     -13.139  14.925  67.765  1.00  0.00     1.700 OA 
BRANCH  27  29
HETATM   29  C   UNL     1     -12.829  13.880  65.683  1.00  0.00    -0.424 C  
HETATM   30  O   UNL     1     -12.014  14.378  64.620  1.00  0.00    -0.417 OA 
HETATM   31  H   UNL     1     -12.336  14.117  63.765  1.00  0.00     0.000 HD 
ENDBRANCH  27  29
ENDBRANCH   4  27
TORSDOF 2
ENDMDL
MODEL       98
REMARK 921   NORMALIZED FREE ENERGY PREDICTED BY IDOCK:    4.55 KCAL/MOL
REMARK 922        TOTAL FREE ENERGY PREDICTED BY IDOCK:    5.72 KCAL/MOL
REMARK 923 INTER-LIGAND FREE ENERGY PREDICTED BY IDOCK:    2.57 KCAL/MOL
REMARK 924 INTRA-LIGAND FREE ENERGY PREDICTED BY IDOCK:    3.15 KCAL/MOL
REMARK 927      BINDING AFFINITY PREDICTED BY RF-SCORE:    0.00 PKD
ROOT
HETATM    1  C   UNL     1      -8.819  19.025  67.664  1.00  0.00    -0.319 C  
HETATM    2  C   UNL     1      -9.798  19.630  68.452  1.00  0.00    -0.531 C  
HETATM    3  C   UNL     1      -9.450  18.229  68.820  1.00  0.00    -0.298 C  
HETATM    4  C   UNL     1      -7.556  17.627  68.178  1.00  0.00    -0.234 C  
HETATM    5  C   UNL     1     -10.899  18.199  69.717  1.00  0.00     1.464 C  
HETATM    6  O   UNL     1      -6.790  18.515  67.256  1.00  0.00    -0.199 OA 
HETATM    7  O   UNL     1     -12.781  12.986  64.678  1.00  0.00    -0.658 OA 
HETATM    8  C   UNL     1      -7.979  18.307  69.292  1.00  0.00     0.152 C  
HETATM    9  C   UNL     1      -8.312  16.537  69.768  1.00  0.00     0.756 C  
HETATM   10  C   UNL     1      -7.253  19.365  70.043  1.00  0.00     0.244 C  
HETATM   11  C   UNL     1     -12.670  13.931  66.901  1.00  0.00     0.211 C  
HETATM   12  C   UNL     1      -9.416  14.622  65.347  1.00  0.00     0.138 C  
HETATM   13  H   UNL     1      -5.929  18.241  66.963  1.00  0.00     0.000 HD 
HETATM   14  C   UNL     1      -8.881  15.586  68.365  1.00  0.00    -0.183 C  
HETATM   15  C   UNL     1     -10.533  15.233  66.189  1.00  0.00    -0.318 C  
HETATM   16  C   UNL     1     -11.362  14.157  66.985  1.00  0.00    -0.346 C  
HETATM   17  O   UNL     1      -7.707  15.140  67.689  1.00  0.00    -0.136 OA 
HETATM   18  C   UNL     1      -9.956  16.256  67.234  1.00  0.00    -0.250 C  
HETATM   19  C   UNL     1      -9.498  17.732  66.549  1.00  0.00    -0.300 C  
HETATM   20  H   UNL     1      -8.009  14.634  66.943  1.00  0.00     0.000 HD 
HETATM   21  C   UNL     1     -10.626  18.279  65.598  1.00  0.00    -0.090 C  
HETATM   22  C   UNL     1     -11.047  17.230  64.565  1.00  0.00     1.084 C  
HETATM   23 CL   UNL     1     -12.146  18.791  66.402  1.00  0.00     3.329 Cl 
HETATM   24  C   UNL     1     -11.480  15.940  65.198  1.00  0.00    -0.002 C  
HETATM   25  C   UNL     1     -12.622  15.343  64.823  1.00  0.00     0.328 C  
HETATM   26  C   UNL     1     -12.721  13.988  65.376  1.00  0.00    -0.471 C  
ENDROOT
BRANCH   4  27
HETATM   27  C   UNL     1      -6.022  17.075  68.859  1.00  0.00    -0.158 C  
HETATM   28  O   UNL     1      -5.469  17.599  69.842  1.00  0.00    -0.202 OA 
BRANCH  27  29
HETATM   29  C   UNL     1      -5.178  15.948  68.195  1.00  0.00    -0.115 C  
HETATM   30  O   UNL     1      -5.923  15.213  67.223  1.00  0.00    -0.325 OA 
HETATM   31  H   UNL     1      -5.408  14.525  66.818  1.00  0.00     0.000 HD 
ENDBRANCH  27  29
ENDBRANCH   4  27
TORSDOF 2
ENDMDL
MODEL       99
REMARK 921   NORMALIZED FREE ENERGY PREDICTED BY IDOCK:    5.40 KCAL/MOL
REMARK 922        TOTAL FREE ENERGY PREDICTED BY IDOCK:    6.67 KCAL/MOL
REMARK 923 INTER-LIGAND FREE ENERGY PREDICTED BY IDOCK:    5.14 KCAL/MOL
REMARK 924 INTRA-LIGAND FREE ENERGY PREDICTED BY IDOCK:    1.53 KCAL/MOL
REMARK 927      BINDING AFFINITY PREDICTED BY RF-SCORE:    0.00 PKD
ROOT
HETATM    1  C   UNL     1      -9.520   7.430  65.083  1.00  0.00     1.133 C  
HETATM    2  C   UNL     1      -8.636   7.962  64.143  1.00  0.00     0.277 C  
HETATM    3  C   UNL     1      -8.234   8.120  65.569  1.00  0.00    -0.144 C  
HETATM    4  C   UNL     1      -9.109   6.731  66.859  1.00  0.00    -0.137 C  
HETATM    5  C   UNL     1      -7.131   9.306  65.033  1.00  0.00    -0.097 C  
HETATM    6  O   UNL     1     -10.191   5.844  66.340  1.00  0.00    -0.311 OA 
HETATM    7  O   UNL     1     -11.486  13.825  69.122  1.00  0.00    -0.262 OA 
HETATM    8  C   UNL     1      -7.991   6.676  66.066  1.00  0.00    -0.112 C  
HETATM    9  C   UNL     1      -7.356   7.578  67.567  1.00  0.00    -0.102 C  
HETATM   10  C   UNL     1      -7.427   5.490  65.369  1.00  0.00    -0.074 C  
HETATM   11  C   UNL     1      -9.370  13.003  68.289  1.00  0.00    -0.199 C  
HETATM   12  C   UNL     1     -11.431  10.030  68.916  1.00  0.00    -0.057 C  
HETATM   13  H   UNL     1     -10.589   5.213  66.927  1.00  0.00     0.000 HD 
HETATM   14  C   UNL     1      -8.595   8.686  68.228  1.00  0.00    -0.138 C  
HETATM   15  C   UNL     1     -10.474  10.677  67.919  1.00  0.00    -0.243 C  
HETATM   16  C   UNL     1      -9.496  11.712  68.587  1.00  0.00    -0.129 C  
HETATM   17  O   UNL     1      -9.407   7.898  69.094  1.00  0.00    -0.154 OA 
HETATM   18  C   UNL     1      -9.595   9.591  67.196  1.00  0.00    -0.206 C  
HETATM   19  C   UNL     1     -10.435   8.722  66.014  1.00  0.00     0.611 C  
HETATM   20  H   UNL     1     -10.066   8.487  69.446  1.00  0.00     0.000 HD 
HETATM   21  C   UNL     1     -11.243   9.694  65.076  1.00  0.00     4.040 C  
HETATM   22  C   UNL     1     -12.131  10.645  65.882  1.00  0.00     3.209 C  
HETATM   23 CL   UNL     1     -10.257  10.751  64.012  1.00  0.00    -0.408 Cl 
HETATM   24  C   UNL     1     -11.358  11.429  66.902  1.00  0.00    -0.284 C  
HETATM   25  C   UNL     1     -11.519  12.756  67.011  1.00  0.00    -0.397 C  
HETATM   26  C   UNL     1     -10.871  13.274  68.220  1.00  0.00    -0.256 C  
ENDROOT
BRANCH   4  27
HETATM   27  C   UNL     1      -8.628   5.436  67.961  1.00  0.00    -0.100 C  
HETATM   28  O   UNL     1      -8.518   5.576  69.191  1.00  0.00    -0.103 OA 
BRANCH  27  29
HETATM   29  C   UNL     1      -8.186   4.034  67.449  1.00  0.00    -0.098 C  
HETATM   30  O   UNL     1      -8.925   2.975  68.060  1.00  0.00    -0.116 OA 
HETATM   31  H   UNL     1      -8.655   2.119  67.748  1.00  0.00     0.000 HD 
ENDBRANCH  27  29
ENDBRANCH   4  27
TORSDOF 2
ENDMDL
MODEL      100
REMARK 921   NORMALIZED FREE ENERGY PREDICTED BY IDOCK:    5.87 KCAL/MOL
REMARK 922        TOTAL FREE ENERGY PREDICTED BY IDOCK:    7.20 KCAL/MOL
REMARK 923 INTER-LIGAND FREE ENERGY PREDICTED BY IDOCK:    6.51 KCAL/MOL
REMARK 924 INTRA-LIGAND FREE ENERGY PREDICTED BY IDOCK:    0.68 KCAL/MOL
REMARK 927      BINDING AFFINITY PREDICTED BY RF-SCORE:    0.00 PKD
ROOT
HETATM    1  C   UNL     1     -12.523  16.088  69.574  1.00  0.00     0.317 C  
HETATM    2  C   UNL     1     -13.227  15.376  68.601  1.00  0.00     2.527 C  
HETATM    3  C   UNL     1     -12.287  14.573  69.433  1.00  0.00    -0.213 C  
HETATM    4  C   UNL     1     -11.840  15.434  71.282  1.00  0.00    -0.380 C  
HETATM    5  C   UNL     1     -12.410  13.360  68.242  1.00  0.00     0.085 C  
HETATM    6  O   UNL     1     -12.296  16.828  71.559  1.00  0.00     0.005 OA 
HETATM    7  O   UNL     1      -5.144  14.907  67.285  1.00  0.00    -0.303 OA 
HETATM    8  C   UNL     1     -12.877  14.642  70.861  1.00  0.00    -0.427 C  
HETATM    9  C   UNL     1     -11.541  13.387  71.192  1.00  0.00     0.934 C  
HETATM   10  C   UNL     1     -14.288  14.664  71.329  1.00  0.00    -0.347 C  
HETATM   11  C   UNL     1      -7.055  13.437  67.466  1.00  0.00    -0.154 C  
HETATM   12  C   UNL     1      -7.532  16.032  70.019  1.00  0.00     0.542 C  
HETATM   13  H   UNL     1     -12.092  17.220  72.400  1.00  0.00     0.000 HD 
HETATM   14  C   UNL     1      -9.933  14.016  70.725  1.00  0.00     3.250 C  
HETATM   15  C   UNL     1      -8.239  15.235  68.926  1.00  0.00    -0.186 C  
HETATM   16  C   UNL     1      -7.550  13.852  68.629  1.00  0.00    -0.130 C  
HETATM   17  O   UNL     1      -9.459  14.758  71.847  1.00  0.00     2.618 OA 
HETATM   18  C   UNL     1      -9.735  14.946  69.318  1.00  0.00    -0.147 C  
HETATM   19  C   UNL     1     -10.745  16.292  69.161  1.00  0.00    -0.305 C  
HETATM   20  H   UNL     1      -8.604  15.092  71.599  1.00  0.00     0.000 HD 
HETATM   21  C   UNL     1     -10.518  17.000  67.773  1.00  0.00    -0.349 C  
HETATM   22  C   UNL     1      -9.038  17.315  67.538  1.00  0.00    -0.223 C  
HETATM   23 CL   UNL     1     -11.043  16.074  66.329  1.00  0.00    -0.060 Cl 
HETATM   24  C   UNL     1      -8.166  16.098  67.650  1.00  0.00    -0.161 C  
HETATM   25  C   UNL     1      -7.248  15.826  66.711  1.00  0.00    -0.002 C  
HETATM   26  C   UNL     1      -6.349  14.750  67.142  1.00  0.00     0.585 C  
ENDROOT
BRANCH   4  27
HETATM   27  C   UNL     1     -12.010  15.077  73.004  1.00  0.00    -0.293 C  
HETATM   28  O   UNL     1     -12.189  13.935  73.462  1.00  0.00     0.183 OA 
BRANCH  27  29
HETATM   29  C   UNL     1     -12.069  16.199  74.082  1.00  0.00    -0.357 C  
HETATM   30  O   UNL     1     -13.344  16.840  74.129  1.00  0.00    -0.490 OA 
HETATM   31  H   UNL     1     -13.380  17.525  74.787  1.00  0.00     0.000 HD 
ENDBRANCH  27  29
ENDBRANCH   4  27
TORSDOF 2
ENDMDL
MODEL      101
REMARK 921   NORMALIZED FREE ENERGY PREDICTED BY IDOCK:    6.87 KCAL/MOL
REMARK 922        TOTAL FREE ENERGY PREDICTED BY IDOCK:    8.31 KCAL/MOL
REMARK 923 INTER-LIGAND FREE ENERGY PREDICTED BY IDOCK:    7.40 KCAL/MOL
REMARK 924 INTRA-LIGAND FREE ENERGY PREDICTED BY IDOCK:    0.91 KCAL/MOL
REMARK 927      BINDING AFFINITY PREDICTED BY RF-SCORE:    0.00 PKD
ROOT
HETATM    1  C   UNL     1      -6.360  14.132  69.059  1.00  0.00    -0.098 C  
HETATM    2  C   UNL     1      -6.673  15.092  70.022  1.00  0.00    -0.129 C  
HETATM    3  C   UNL     1      -7.688  14.018  69.829  1.00  0.00     0.601 C  
HETATM    4  C   UNL     1      -6.921  12.262  68.998  1.00  0.00    -0.078 C  
HETATM    5  C   UNL     1      -8.785  15.030  70.653  1.00  0.00     1.750 C  
HETATM    6  O   UNL     1      -5.522  12.260  68.479  1.00  0.00    -0.053 OA 
HETATM    7  O   UNL     1     -12.263  15.050  64.019  1.00  0.00    -0.607 OA 
HETATM    8  C   UNL     1      -6.976  12.724  70.288  1.00  0.00     1.192 C  
HETATM    9  C   UNL     1      -8.683  12.015  70.058  1.00  0.00     3.113 C  
HETATM   10  C   UNL     1      -5.997  12.490  71.382  1.00  0.00     0.859 C  
HETATM   11  C   UNL     1     -12.172  14.964  66.434  1.00  0.00     0.110 C  
HETATM   12  C   UNL     1      -9.372  12.909  65.245  1.00  0.00     0.400 C  
HETATM   13  H   UNL     1      -5.174  11.461  68.101  1.00  0.00     0.000 HD 
HETATM   14  C   UNL     1      -9.287  12.309  68.401  1.00  0.00    -0.162 C  
HETATM   15  C   UNL     1      -9.772  13.975  66.261  1.00  0.00    -0.311 C  
HETATM   16  C   UNL     1     -11.311  13.963  66.592  1.00  0.00    -0.342 C  
HETATM   17  O   UNL     1      -8.780  11.243  67.601  1.00  0.00    -0.128 OA 
HETATM   18  C   UNL     1      -8.994  13.785  67.614  1.00  0.00    -0.194 C  
HETATM   19  C   UNL     1      -7.381  14.287  67.539  1.00  0.00    -0.199 C  
HETATM   20  H   UNL     1      -9.102  11.399  66.720  1.00  0.00     0.000 HD 
HETATM   21  C   UNL     1      -7.270  15.708  66.872  1.00  0.00    -0.033 C  
HETATM   22  C   UNL     1      -7.987  15.751  65.519  1.00  0.00     2.798 C  
HETATM   23 CL   UNL     1      -7.954  17.071  67.817  1.00  0.00    -0.186 Cl 
HETATM   24  C   UNL     1      -9.425  15.333  65.617  1.00  0.00    -0.240 C  
HETATM   25  C   UNL     1     -10.391  16.070  65.049  1.00  0.00    -0.140 C  
HETATM   26  C   UNL     1     -11.673  15.356  65.046  1.00  0.00    -0.102 C  
ENDROOT
BRANCH   4  27
HETATM   27  C   UNL     1      -6.731  10.556  69.412  1.00  0.00    -0.076 C  
HETATM   28  O   UNL     1      -7.041  10.068  70.512  1.00  0.00    -0.224 OA 
BRANCH  27  29
HETATM   29  C   UNL     1      -6.038   9.543  68.453  1.00  0.00    -0.044 C  
HETATM   30  O   UNL     1      -6.980   8.767  67.710  1.00  0.00    -0.073 OA 
HETATM   31  H   UNL     1      -6.558   8.149  67.126  1.00  0.00     0.000 HD 
ENDBRANCH  27  29
ENDBRANCH   4  27
TORSDOF 2
ENDMDL
MODEL      102
REMARK 921   NORMALIZED FREE ENERGY PREDICTED BY IDOCK:    7.81 KCAL/MOL
REMARK 922        TOTAL FREE ENERGY PREDICTED BY IDOCK:    9.37 KCAL/MOL
REMARK 923 INTER-LIGAND FREE ENERGY PREDICTED BY IDOCK:    8.75 KCAL/MOL
REMARK 924 INTRA-LIGAND FREE ENERGY PREDICTED BY IDOCK:    0.62 KCAL/MOL
REMARK 927      BINDING AFFINITY PREDICTED BY RF-SCORE:    0.00 PKD
ROOT
HETATM    1  C   UNL     1      -9.857  14.305  69.132  1.00  0.00     0.006 C  
HETATM    2  C   UNL     1      -9.848  13.294  70.095  1.00  0.00     2.899 C  
HETATM    3  C   UNL     1      -8.687  13.306  69.162  1.00  0.00     0.626 C  
HETATM    4  C   UNL     1      -8.326  15.162  68.275  1.00  0.00    -0.149 C  
HETATM    5  C   UNL     1      -8.373  11.710  69.674  1.00  0.00     1.124 C  
HETATM    6  O   UNL     1      -9.326  16.255  68.455  1.00  0.00    -0.199 OA 
HETATM    7  O   UNL     1      -9.968  10.125  62.530  1.00  0.00    -0.026 OA 
HETATM    8  C   UNL     1      -7.947  14.626  69.480  1.00  0.00     0.063 C  
HETATM    9  C   UNL     1      -6.688  13.896  68.318  1.00  0.00    -0.109 C  
HETATM   10  C   UNL     1      -7.741  15.338  70.768  1.00  0.00     1.626 C  
HETATM   11  C   UNL     1      -8.717   9.901  64.586  1.00  0.00    -0.215 C  
HETATM   12  C   UNL     1      -9.406  13.487  64.209  1.00  0.00     2.110 C  
HETATM   13  H   UNL     1      -9.163  17.099  68.052  1.00  0.00     0.000 HD 
HETATM   14  C   UNL     1      -7.422  13.498  66.736  1.00  0.00     0.817 C  
HETATM   15  C   UNL     1      -9.396  12.334  65.208  1.00  0.00     0.169 C  
HETATM   16  C   UNL     1      -8.409  11.177  64.803  1.00  0.00     0.325 C  
HETATM   17  O   UNL     1      -7.376  14.698  65.967  1.00  0.00     1.556 OA 
HETATM   18  C   UNL     1      -8.981  12.833  66.641  1.00  0.00    -0.152 C  
HETATM   19  C   UNL     1     -10.207  13.678  67.441  1.00  0.00    -0.241 C  
HETATM   20  H   UNL     1      -7.766  14.486  65.127  1.00  0.00     0.000 HD 
HETATM   21  C   UNL     1     -11.572  12.900  67.349  1.00  0.00    -0.360 C  
HETATM   22  C   UNL     1     -11.920  12.544  65.901  1.00  0.00    -0.472 C  
HETATM   23 CL   UNL     1     -11.650  11.351  68.252  1.00  0.00    -0.372 Cl 
HETATM   24  C   UNL     1     -10.830  11.766  65.222  1.00  0.00    -0.343 C  
HETATM   25  C   UNL     1     -11.114  10.651  64.533  1.00  0.00     0.620 C  
HETATM   26  C   UNL     1      -9.958  10.200  63.750  1.00  0.00     0.144 C  
ENDROOT
BRANCH   4  27
HETATM   27  C   UNL     1      -7.056  16.388  68.201  1.00  0.00    -0.140 C  
HETATM   28  O   UNL     1      -5.849  16.149  68.372  1.00  0.00    -0.102 OA 
BRANCH  27  29
HETATM   29  C   UNL     1      -7.375  17.903  68.030  1.00  0.00    -0.230 C  
HETATM   30  O   UNL     1      -7.969  18.193  66.764  1.00  0.00    -0.223 OA 
HETATM   31  H   UNL     1      -8.163  19.117  66.659  1.00  0.00     0.000 HD 
ENDBRANCH  27  29
ENDBRANCH   4  27
TORSDOF 2
ENDMDL
MODEL      103
REMARK 921   NORMALIZED FREE ENERGY PREDICTED BY IDOCK:   10.42 KCAL/MOL
REMARK 922        TOTAL FREE ENERGY PREDICTED BY IDOCK:   12.28 KCAL/MOL
REMARK 923 INTER-LIGAND FREE ENERGY PREDICTED BY IDOCK:    8.15 KCAL/MOL
REMARK 924 INTRA-LIGAND FREE ENERGY PREDICTED BY IDOCK:    4.13 KCAL/MOL
REMARK 927      BINDING AFFINITY PREDICTED BY RF-SCORE:    0.00 PKD
ROOT
HETATM    1  C   UNL     1      -9.402  11.632  67.189  1.00  0.00    -0.178 C  
HETATM    2  C   UNL     1     -10.277  11.065  66.261  1.00  0.00    -0.295 C  
HETATM    3  C   UNL     1     -10.915  11.655  67.471  1.00  0.00    -0.312 C  
HETATM    4  C   UNL     1      -9.751  13.101  68.427  1.00  0.00    -0.196 C  
HETATM    5  C   UNL     1     -12.312  10.770  67.056  1.00  0.00     3.273 C  
HETATM    6  O   UNL     1      -8.337  13.296  67.990  1.00  0.00    -0.142 OA 
HETATM    7  O   UNL     1     -10.836   7.260  73.506  1.00  0.00    -0.375 OA 
HETATM    8  C   UNL     1     -10.618  13.169  67.367  1.00  0.00    -0.247 C  
HETATM    9  C   UNL     1     -11.780  13.231  68.822  1.00  0.00    -0.366 C  
HETATM   10  C   UNL     1     -10.540  14.065  66.183  1.00  0.00    -0.290 C  
HETATM   11  C   UNL     1     -12.283   8.279  71.860  1.00  0.00    -0.383 C  
HETATM   12  C   UNL     1      -9.307  10.420  72.050  1.00  0.00     6.622 C  
HETATM   13  H   UNL     1      -7.808  13.953  68.424  1.00  0.00     0.000 HD 
HETATM   14  C   UNL     1     -11.213  12.173  70.148  1.00  0.00     0.372 C  
HETATM   15  C   UNL     1     -10.285   9.755  71.087  1.00  0.00    -0.007 C  
HETATM   16  C   UNL     1     -11.688   9.463  71.737  1.00  0.00    -0.444 C  
HETATM   17  O   UNL     1     -10.287  12.950  70.904  1.00  0.00     3.588 OA 
HETATM   18  C   UNL     1     -10.528  10.654  69.819  1.00  0.00    -0.189 C  
HETATM   19  C   UNL     1      -9.242  10.633  68.722  1.00  0.00    -0.182 C  
HETATM   20  H   UNL     1      -9.986  12.388  71.609  1.00  0.00     0.000 HD 
HETATM   21  C   UNL     1      -8.772   9.157  68.443  1.00  0.00    -0.129 C  
HETATM   22  C   UNL     1      -8.479   8.405  69.743  1.00  0.00    -0.127 C  
HETATM   23 CL   UNL     1      -9.935   8.124  67.547  1.00  0.00    -0.229 Cl 
HETATM   24  C   UNL     1      -9.646   8.409  70.687  1.00  0.00    -0.195 C  
HETATM   25  C   UNL     1     -10.058   7.274  71.271  1.00  0.00    -0.195 C  
HETATM   26  C   UNL     1     -11.032   7.546  72.334  1.00  0.00    -0.286 C  
ENDROOT
BRANCH   4  27
HETATM   27  C   UNL     1      -9.818  14.817  68.843  1.00  0.00    -0.222 C  
HETATM   28  O   UNL     1     -10.338  15.260  69.882  1.00  0.00    -0.269 OA 
BRANCH  27  29
HETATM   29  C   UNL     1      -9.329  15.927  67.867  1.00  0.00    -0.207 C  
HETATM   30  O   UNL     1      -9.291  15.479  66.511  1.00  0.00    -0.239 OA 
HETATM   31  H   UNL     1      -8.992  16.156  65.915  1.00  0.00     0.000 HD 
ENDBRANCH  27  29
ENDBRANCH   4  27
TORSDOF 2
ENDMDL
MODEL      104
REMARK 921   NORMALIZED FREE ENERGY PREDICTED BY IDOCK:   10.55 KCAL/MOL
REMARK 922        TOTAL FREE ENERGY PREDICTED BY IDOCK:   12.43 KCAL/MOL
REMARK 923 INTER-LIGAND FREE ENERGY PREDICTED BY IDOCK:   10.78 KCAL/MOL
REMARK 924 INTRA-LIGAND FREE ENERGY PREDICTED BY IDOCK:    1.64 KCAL/MOL
REMARK 927      BINDING AFFINITY PREDICTED BY RF-SCORE:    0.00 PKD
ROOT
HETATM    1  C   UNL     1      -7.285  19.948  68.573  1.00  0.00    -0.331 C  
HETATM    2  C   UNL     1      -8.196  20.933  68.956  1.00  0.00     1.741 C  
HETATM    3  C   UNL     1      -8.424  19.581  69.540  1.00  0.00     0.270 C  
HETATM    4  C   UNL     1      -6.720  18.375  69.581  1.00  0.00    -0.027 C  
HETATM    5  C   UNL     1      -9.994  20.115  69.937  1.00  0.00     0.331 C  
HETATM    6  O   UNL     1      -5.492  18.834  68.869  1.00  0.00    -0.190 OA 
HETATM    7  O   UNL     1     -11.993  14.797  65.055  1.00  0.00    -0.366 OA 
HETATM    8  C   UNL     1      -7.190  19.335  70.440  1.00  0.00     0.793 C  
HETATM    9  C   UNL     1      -8.184  17.843  70.946  1.00  0.00     6.152 C  
HETATM   10  C   UNL     1      -6.398  20.271  71.281  1.00  0.00    -0.065 C  
HETATM   11  C   UNL     1     -12.194  16.062  67.105  1.00  0.00     1.483 C  
HETATM   12  C   UNL     1      -8.597  15.536  66.593  1.00  0.00    -0.325 C  
HETATM   13  H   UNL     1      -4.717  18.286  68.887  1.00  0.00     0.000 HD 
HETATM   14  C   UNL     1      -8.622  16.846  69.527  1.00  0.00     0.472 C  
HETATM   15  C   UNL     1      -9.647  16.573  66.985  1.00  0.00    -0.249 C  
HETATM   16  C   UNL     1     -10.956  15.931  67.575  1.00  0.00    -0.280 C  
HETATM   17  O   UNL     1      -7.514  15.980  69.296  1.00  0.00    -0.214 OA 
HETATM   18  C   UNL     1      -9.080  17.570  68.061  1.00  0.00    -0.269 C  
HETATM   19  C   UNL     1      -8.010  18.713  67.423  1.00  0.00    -0.247 C  
HETATM   20  H   UNL     1      -7.747  15.450  68.542  1.00  0.00     0.000 HD 
HETATM   21  C   UNL     1      -8.604  19.367  66.121  1.00  0.00    -0.284 C  
HETATM   22  C   UNL     1      -9.040  18.305  65.107  1.00  0.00     2.494 C  
HETATM   23 CL   UNL     1     -10.041  20.415  66.359  1.00  0.00    -0.473 Cl 
HETATM   24  C   UNL     1     -10.015  17.321  65.687  1.00  0.00     0.003 C  
HETATM   25  C   UNL     1     -11.140  17.005  65.029  1.00  0.00     0.094 C  
HETATM   26  C   UNL     1     -11.810  15.854  65.644  1.00  0.00     0.758 C  
ENDROOT
BRANCH   4  27
HETATM   27  C   UNL     1      -5.686  17.555  70.755  1.00  0.00     0.141 C  
HETATM   28  O   UNL     1      -5.255  18.086  71.793  1.00  0.00    -0.505 OA 
BRANCH  27  29
HETATM   29  C   UNL     1      -5.131  16.120  70.513  1.00  0.00    -0.185 C  
HETATM   30  O   UNL     1      -5.933  15.116  71.136  1.00  0.00     0.063 OA 
HETATM   31  H   UNL     1      -5.595  14.240  70.989  1.00  0.00     0.000 HD 
ENDBRANCH  27  29
ENDBRANCH   4  27
TORSDOF 2
ENDMDL
MODEL      105
REMARK 921   NORMALIZED FREE ENERGY PREDICTED BY IDOCK:   10.63 KCAL/MOL
REMARK 922        TOTAL FREE ENERGY PREDICTED BY IDOCK:   12.52 KCAL/MOL
REMARK 923 INTER-LIGAND FREE ENERGY PREDICTED BY IDOCK:   11.71 KCAL/MOL
REMARK 924 INTRA-LIGAND FREE ENERGY PREDICTED BY IDOCK:    0.81 KCAL/MOL
REMARK 927      BINDING AFFINITY PREDICTED BY RF-SCORE:    0.00 PKD
ROOT
HETATM    1  C   UNL     1      -9.487  10.619  68.064  1.00  0.00    -0.164 C  
HETATM    2  C   UNL     1     -10.056  10.140  69.245  1.00  0.00    -0.237 C  
HETATM    3  C   UNL     1     -10.579  11.449  68.763  1.00  0.00    -0.235 C  
HETATM    4  C   UNL     1     -10.304  11.774  66.718  1.00  0.00    -0.219 C  
HETATM    5  C   UNL     1     -11.224  11.667  70.326  1.00  0.00     0.215 C  
HETATM    6  O   UNL     1      -9.457  10.820  65.942  1.00  0.00    -0.182 OA 
HETATM    7  O   UNL     1      -6.340  17.343  70.507  1.00  0.00     0.362 OA 
HETATM    8  C   UNL     1     -11.280  11.118  67.425  1.00  0.00    -0.363 C  
HETATM    9  C   UNL     1     -11.823  12.894  67.570  1.00  0.00    -0.407 C  
HETATM   10  C   UNL     1     -12.060   9.924  67.006  1.00  0.00     4.346 C  
HETATM   11  C   UNL     1      -8.475  16.289  70.927  1.00  0.00     4.168 C  
HETATM   12  C   UNL     1      -7.433  15.165  67.590  1.00  0.00    -0.202 C  
HETATM   13  H   UNL     1      -9.332  10.967  65.013  1.00  0.00     0.000 HD 
HETATM   14  C   UNL     1     -10.419  13.988  67.738  1.00  0.00    -0.236 C  
HETATM   15  C   UNL     1      -8.032  14.701  68.915  1.00  0.00    -0.149 C  
HETATM   16  C   UNL     1      -8.758  15.855  69.701  1.00  0.00     0.030 C  
HETATM   17  O   UNL     1      -9.980  14.273  66.412  1.00  0.00    -0.272 OA 
HETATM   18  C   UNL     1      -9.080  13.550  68.686  1.00  0.00    -0.008 C  
HETATM   19  C   UNL     1      -8.373  12.054  68.340  1.00  0.00    -0.151 C  
HETATM   20  H   UNL     1      -9.234  14.855  66.501  1.00  0.00     0.000 HD 
HETATM   21  C   UNL     1      -7.211  11.739  69.353  1.00  0.00     0.076 C  
HETATM   22  C   UNL     1      -6.203  12.889  69.428  1.00  0.00    -0.114 C  
HETATM   23 CL   UNL     1      -7.714  11.436  71.049  1.00  0.00     4.423 Cl 
HETATM   24  C   UNL     1      -6.849  14.200  69.769  1.00  0.00    -0.019 C  
HETATM   25  C   UNL     1      -6.336  14.987  70.726  1.00  0.00     0.144 C  
HETATM   26  C   UNL     1      -6.964  16.313  70.718  1.00  0.00     2.030 C  
ENDROOT
BRANCH   4  27
HETATM   27  C   UNL     1     -11.267  12.043  65.262  1.00  0.00    -0.322 C  
HETATM   28  O   UNL     1     -12.211  12.850  65.192  1.00  0.00    -0.415 OA 
BRANCH  27  29
HETATM   29  C   UNL     1     -11.078  11.190  63.973  1.00  0.00    -0.099 C  
HETATM   30  O   UNL     1      -9.768  11.326  63.420  1.00  0.00    -0.289 OA 
HETATM   31  H   UNL     1      -9.653  10.806  62.633  1.00  0.00     0.000 HD 
ENDBRANCH  27  29
ENDBRANCH   4  27
TORSDOF 2
ENDMDL
MODEL      106
REMARK 921   NORMALIZED FREE ENERGY PREDICTED BY IDOCK:   13.73 KCAL/MOL
REMARK 922        TOTAL FREE ENERGY PREDICTED BY IDOCK:   15.98 KCAL/MOL
REMARK 923 INTER-LIGAND FREE ENERGY PREDICTED BY IDOCK:   14.31 KCAL/MOL
REMARK 924 INTRA-LIGAND FREE ENERGY PREDICTED BY IDOCK:    1.67 KCAL/MOL
REMARK 927      BINDING AFFINITY PREDICTED BY RF-SCORE:    0.00 PKD
ROOT
HETATM    1  C   UNL     1      -9.979  15.679  65.906  1.00  0.00    -0.379 C  
HETATM    2  C   UNL     1      -9.321  14.711  65.146  1.00  0.00     0.766 C  
HETATM    3  C   UNL     1      -9.749  14.281  66.506  1.00  0.00    -0.304 C  
HETATM    4  C   UNL     1     -11.319  15.406  67.301  1.00  0.00    -0.220 C  
HETATM    5  C   UNL     1      -8.672  12.970  66.333  1.00  0.00     0.167 C  
HETATM    6  O   UNL     1     -11.755  16.642  66.587  1.00  0.00     0.898 OA 
HETATM    7  O   UNL     1      -5.164  16.345  72.026  1.00  0.00    -0.124 OA 
HETATM    8  C   UNL     1     -11.294  14.323  66.459  1.00  0.00    -0.351 C  
HETATM    9  C   UNL     1     -11.107  13.519  68.129  1.00  0.00    -0.283 C  
HETATM   10  C   UNL     1     -12.241  14.004  65.359  1.00  0.00    -0.453 C  
HETATM   11  C   UNL     1      -6.011  14.434  70.812  1.00  0.00    -0.195 C  
HETATM   12  C   UNL     1      -8.588  17.033  70.526  1.00  0.00     3.895 C  
HETATM   13  H   UNL     1     -12.469  17.154  66.948  1.00  0.00     0.000 HD 
HETATM   14  C   UNL     1     -10.096  14.516  69.216  1.00  0.00    -0.071 C  
HETATM   15  C   UNL     1      -7.818  15.971  69.745  1.00  0.00     0.265 C  
HETATM   16  C   UNL     1      -7.278  14.807  70.656  1.00  0.00     0.727 C  
HETATM   17  O   UNL     1     -10.977  15.463  69.816  1.00  0.00    -0.246 OA 
HETATM   18  C   UNL     1      -8.721  15.324  68.633  1.00  0.00    -0.182 C  
HETATM   19  C   UNL     1      -8.953  16.321  67.288  1.00  0.00    -0.209 C  
HETATM   20  H   UNL     1     -10.440  15.993  70.394  1.00  0.00     0.000 HD 
HETATM   21  C   UNL     1      -7.584  16.926  66.801  1.00  0.00    -0.245 C  
HETATM   22  C   UNL     1      -6.832  17.610  67.946  1.00  0.00    -0.192 C  
HETATM   23 CL   UNL     1      -6.419  15.757  66.097  1.00  0.00     2.136 Cl 
HETATM   24  C   UNL     1      -6.610  16.695  69.115  1.00  0.00    -0.207 C  
HETATM   25  C   UNL     1      -5.399  16.594  69.684  1.00  0.00    -0.152 C  
HETATM   26  C   UNL     1      -5.465  15.852  70.948  1.00  0.00    -0.024 C  
ENDROOT
BRANCH   4  27
HETATM   27  C   UNL     1     -12.982  15.183  67.853  1.00  0.00     2.363 C  
HETATM   28  O   UNL     1     -13.895  14.730  67.142  1.00  0.00     4.588 OA 
BRANCH  27  29
HETATM   29  C   UNL     1     -13.460  15.658  69.256  1.00  0.00     2.400 C  
HETATM   30  O   UNL     1     -13.679  14.567  70.152  1.00  0.00    -0.057 OA 
HETATM   31  H   UNL     1     -13.971  14.856  71.009  1.00  0.00     0.000 HD 
ENDBRANCH  27  29
ENDBRANCH   4  27
TORSDOF 2
ENDMDL
MODEL      107
REMARK 921   NORMALIZED FREE ENERGY PREDICTED BY IDOCK:   23.74 KCAL/MOL
REMARK 922        TOTAL FREE ENERGY PREDICTED BY IDOCK:   27.16 KCAL/MOL
REMARK 923 INTER-LIGAND FREE ENERGY PREDICTED BY IDOCK:   20.91 KCAL/MOL
REMARK 924 INTRA-LIGAND FREE ENERGY PREDICTED BY IDOCK:    6.25 KCAL/MOL
REMARK 927      BINDING AFFINITY PREDICTED BY RF-SCORE:    0.00 PKD
ROOT
HETATM    1  C   UNL     1      -9.003  13.758  69.134  1.00  0.00     0.428 C  
HETATM    2  C   UNL     1      -8.133  14.746  68.669  1.00  0.00    -0.153 C  
HETATM    3  C   UNL     1      -9.559  15.156  68.810  1.00  0.00    -0.219 C  
HETATM    4  C   UNL     1     -10.651  13.990  70.155  1.00  0.00     0.714 C  
HETATM    5  C   UNL     1      -9.180  16.491  67.819  1.00  0.00    -0.202 C  
HETATM    6  O   UNL     1     -10.029  12.751  70.708  1.00  0.00     4.399 OA 
HETATM    7  O   UNL     1     -13.967  13.145  63.129  1.00  0.00     3.304 OA 
HETATM    8  C   UNL     1      -9.836  15.080  70.329  1.00  0.00     0.307 C  
HETATM    9  C   UNL     1     -11.440  15.874  69.811  1.00  0.00    -0.342 C  
HETATM   10  C   UNL     1      -8.964  15.388  71.493  1.00  0.00     4.266 C  
HETATM   11  C   UNL     1     -12.982  15.048  64.248  1.00  0.00     0.843 C  
HETATM   12  C   UNL     1     -13.210  12.396  66.777  1.00  0.00     4.437 C  
HETATM   13  H   UNL     1     -10.525  12.221  71.319  1.00  0.00     0.000 HD 
HETATM   14  C   UNL     1     -12.278  14.890  68.575  1.00  0.00    -0.049 C  
HETATM   15  C   UNL     1     -12.299  13.480  66.209  1.00  0.00    -0.440 C  
HETATM   16  C   UNL     1     -13.091  14.648  65.513  1.00  0.00     0.273 C  
HETATM   17  O   UNL     1     -13.037  13.919  69.292  1.00  0.00     0.217 OA 
HETATM   18  C   UNL     1     -11.409  14.118  67.338  1.00  0.00    -0.346 C  
HETATM   19  C   UNL     1     -10.130  13.126  67.827  1.00  0.00    -0.226 C  
HETATM   20  H   UNL     1     -13.483  13.396  68.635  1.00  0.00     0.000 HD 
HETATM   21  C   UNL     1      -9.359  12.555  66.580  1.00  0.00    -0.233 C  
HETATM   22  C   UNL     1     -10.312  11.879  65.591  1.00  0.00    -0.285 C  
HETATM   23 CL   UNL     1      -8.441  13.756  65.612  1.00  0.00     1.778 Cl 
HETATM   24  C   UNL     1     -11.420  12.789  65.146  1.00  0.00    -0.356 C  
HETATM   25  C   UNL     1     -11.724  12.911  63.845  1.00  0.00    -0.526 C  
HETATM   26  C   UNL     1     -12.983  13.640  63.659  1.00  0.00     0.885 C  
ENDROOT
BRANCH   4  27
HETATM   27  C   UNL     1     -11.542  14.171  71.670  1.00  0.00     0.634 C  
HETATM   28  O   UNL     1     -11.067  13.921  72.791  1.00  0.00     2.845 OA 
BRANCH  27  29
HETATM   29  C   UNL     1     -13.052  14.551  71.703  1.00  0.00    -0.343 C  
HETATM   30  O   UNL     1     -13.432  15.363  70.591  1.00  0.00    -0.705 OA 
HETATM   31  H   UNL     1     -14.353  15.595  70.611  1.00  0.00     0.000 HD 
ENDBRANCH  27  29
ENDBRANCH   4  27
TORSDOF 2
ENDMDL
MODEL      108
REMARK 921   NORMALIZED FREE ENERGY PREDICTED BY IDOCK:   26.93 KCAL/MOL
REMARK 922        TOTAL FREE ENERGY PREDICTED BY IDOCK:   30.73 KCAL/MOL
REMARK 923 INTER-LIGAND FREE ENERGY PREDICTED BY IDOCK:   28.75 KCAL/MOL
REMARK 924 INTRA-LIGAND FREE ENERGY PREDICTED BY IDOCK:    1.97 KCAL/MOL
REMARK 927      BINDING AFFINITY PREDICTED BY RF-SCORE:    0.00 PKD
ROOT
HETATM    1  C   UNL     1     -11.231  12.947  69.988  1.00  0.00     0.216 C  
HETATM    2  C   UNL     1     -11.115  12.640  71.345  1.00  0.00     4.210 C  
HETATM    3  C   UNL     1      -9.840  12.644  70.573  1.00  0.00     5.322 C  
HETATM    4  C   UNL     1      -9.905  13.789  68.828  1.00  0.00    -0.088 C  
HETATM    5  C   UNL     1      -9.154  11.781  71.873  1.00  0.00    16.972 C  
HETATM    6  O   UNL     1     -11.217  14.335  68.370  1.00  0.00    -0.248 OA 
HETATM    7  O   UNL     1      -8.508   6.398  66.705  1.00  0.00    -0.110 OA 
HETATM    8  C   UNL     1      -9.655  14.116  70.136  1.00  0.00     1.677 C  
HETATM    9  C   UNL     1      -8.001  13.468  69.575  1.00  0.00     0.811 C  
HETATM   10  C   UNL     1      -9.983  15.385  70.836  1.00  0.00     0.899 C  
HETATM   11  C   UNL     1      -7.747   7.729  68.573  1.00  0.00    -0.118 C  
HETATM   12  C   UNL     1      -9.448  10.058  66.302  1.00  0.00    -0.241 C  
HETATM   13  H   UNL     1     -11.247  14.855  67.577  1.00  0.00     0.000 HD 
HETATM   14  C   UNL     1      -8.193  12.091  68.451  1.00  0.00    -0.151 C  
HETATM   15  C   UNL     1      -9.293   9.660  67.767  1.00  0.00    -0.142 C  
HETATM   16  C   UNL     1      -7.922   8.948  68.069  1.00  0.00    -0.102 C  
HETATM   17  O   UNL     1      -8.364  12.661  67.155  1.00  0.00    -0.181 OA 
HETATM   18  C   UNL     1      -9.392  10.917  68.707  1.00  0.00    -0.190 C  
HETATM   19  C   UNL     1     -10.972  11.488  68.902  1.00  0.00    -0.279 C  
HETATM   20  H   UNL     1      -8.466  11.929  66.557  1.00  0.00     0.000 HD 
HETATM   21  C   UNL     1     -11.957  10.304  69.224  1.00  0.00     0.067 C  
HETATM   22  C   UNL     1     -11.837   9.177  68.195  1.00  0.00     2.215 C  
HETATM   23 CL   UNL     1     -11.734   9.515  70.821  1.00  0.00    -0.353 Cl 
HETATM   24  C   UNL     1     -10.433   8.664  68.063  1.00  0.00    -0.254 C  
HETATM   25  C   UNL     1     -10.181   7.347  68.084  1.00  0.00    -0.223 C  
HETATM   26  C   UNL     1      -8.797   7.063  67.689  1.00  0.00    -0.119 C  
ENDROOT
BRANCH   4  27
HETATM   27  C   UNL     1      -9.115  15.202  68.121  1.00  0.00    -0.176 C  
HETATM   28  O   UNL     1      -9.289  16.367  68.518  1.00  0.00    -0.209 OA 
BRANCH  27  29
HETATM   29  C   UNL     1      -8.218  15.102  66.852  1.00  0.00    -0.199 C  
HETATM   30  O   UNL     1      -6.836  15.312  67.145  1.00  0.00    -0.254 OA 
HETATM   31  H   UNL     1      -6.289  15.252  66.371  1.00  0.00     0.000 HD 
ENDBRANCH  27  29
ENDBRANCH   4  27
TORSDOF 2
ENDMDL
MODEL      109
REMARK 921   NORMALIZED FREE ENERGY PREDICTED BY IDOCK:   27.01 KCAL/MOL
REMARK 922        TOTAL FREE ENERGY PREDICTED BY IDOCK:   30.82 KCAL/MOL
REMARK 923 INTER-LIGAND FREE ENERGY PREDICTED BY IDOCK:   29.45 KCAL/MOL
REMARK 924 INTRA-LIGAND FREE ENERGY PREDICTED BY IDOCK:    1.37 KCAL/MOL
REMARK 927      BINDING AFFINITY PREDICTED BY RF-SCORE:    0.00 PKD
ROOT
HETATM    1  C   UNL     1      -9.192  17.509  67.041  1.00  0.00    -0.253 C  
HETATM    2  C   UNL     1      -9.659  17.497  65.725  1.00  0.00     0.112 C  
HETATM    3  C   UNL     1     -10.516  16.792  66.721  1.00  0.00    -0.258 C  
HETATM    4  C   UNL     1     -10.237  17.433  68.689  1.00  0.00    -0.361 C  
HETATM    5  C   UNL     1     -11.281  16.040  65.396  1.00  0.00    -0.047 C  
HETATM    6  O   UNL     1      -9.106  18.359  68.993  1.00  0.00    -0.203 OA 
HETATM    7  O   UNL     1      -8.298   9.867  68.412  1.00  0.00    -0.105 OA 
HETATM    8  C   UNL     1     -11.014  17.912  67.665  1.00  0.00    -0.104 C  
HETATM    9  C   UNL     1     -12.062  16.523  68.331  1.00  0.00     0.813 C  
HETATM   10  C   UNL     1     -11.385  19.324  67.387  1.00  0.00     0.240 C  
HETATM   11  C   UNL     1     -10.049  11.142  67.338  1.00  0.00    -0.213 C  
HETATM   12  C   UNL     1      -8.540  13.389  69.818  1.00  0.00     2.001 C  
HETATM   13  H   UNL     1      -8.979  18.650  69.888  1.00  0.00     0.000 HD 
HETATM   14  C   UNL     1     -11.053  15.138  68.841  1.00  0.00    -0.270 C  
HETATM   15  C   UNL     1      -9.049  13.304  68.382  1.00  0.00    -0.137 C  
HETATM   16  C   UNL     1     -10.123  12.173  68.175  1.00  0.00    -0.206 C  
HETATM   17  O   UNL     1     -10.645  15.418  70.178  1.00  0.00    -0.294 OA 
HETATM   18  C   UNL     1      -9.699  14.664  67.932  1.00  0.00    -0.216 C  
HETATM   19  C   UNL     1      -8.566  15.872  67.591  1.00  0.00    -0.172 C  
HETATM   20  H   UNL     1     -10.109  14.682  70.449  1.00  0.00     0.000 HD 
HETATM   21  C   UNL     1      -7.420  15.315  66.667  1.00  0.00     0.472 C  
HETATM   22  C   UNL     1      -6.799  14.041  67.246  1.00  0.00     0.170 C  
HETATM   23 CL   UNL     1      -7.904  14.889  64.992  1.00  0.00     7.238 Cl 
HETATM   24  C   UNL     1      -7.820  12.972  67.511  1.00  0.00    -0.178 C  
HETATM   25  C   UNL     1      -7.614  11.713  67.098  1.00  0.00    -0.152 C  
HETATM   26  C   UNL     1      -8.602  10.795  67.676  1.00  0.00    -0.123 C  
ENDROOT
BRANCH   4  27
HETATM   27  C   UNL     1     -11.155  18.186  69.997  1.00  0.00     2.476 C  
HETATM   28  O   UNL     1     -12.344  18.535  69.899  1.00  0.00     9.204 OA 
BRANCH  27  29
HETATM   29  C   UNL     1     -10.497  18.581  71.351  1.00  0.00     3.188 C  
HETATM   30  O   UNL     1      -9.094  18.315  71.371  1.00  0.00     6.824 OA 
HETATM   31  H   UNL     1      -8.692  18.556  72.198  1.00  0.00     0.000 HD 
ENDBRANCH  27  29
ENDBRANCH   4  27
TORSDOF 2
ENDMDL
MODEL      110
REMARK 921   NORMALIZED FREE ENERGY PREDICTED BY IDOCK:   27.28 KCAL/MOL
REMARK 922        TOTAL FREE ENERGY PREDICTED BY IDOCK:   31.11 KCAL/MOL
REMARK 923 INTER-LIGAND FREE ENERGY PREDICTED BY IDOCK:   30.35 KCAL/MOL
REMARK 924 INTRA-LIGAND FREE ENERGY PREDICTED BY IDOCK:    0.76 KCAL/MOL
REMARK 927      BINDING AFFINITY PREDICTED BY RF-SCORE:    0.00 PKD
ROOT
HETATM    1  C   UNL     1     -12.475  16.492  69.523  1.00  0.00     1.513 C  
HETATM    2  C   UNL     1     -13.766  16.118  69.145  1.00  0.00     4.494 C  
HETATM    3  C   UNL     1     -13.102  15.228  70.139  1.00  0.00    -0.030 C  
HETATM    4  C   UNL     1     -11.574  16.153  71.222  1.00  0.00    -0.413 C  
HETATM    5  C   UNL     1     -14.286  14.064  69.754  1.00  0.00     5.447 C  
HETATM    6  O   UNL     1     -11.119  17.514  70.811  1.00  0.00     0.297 OA 
HETATM    7  O   UNL     1      -8.349  10.269  67.214  1.00  0.00    -0.121 OA 
HETATM    8  C   UNL     1     -12.934  16.111  71.398  1.00  0.00     0.360 C  
HETATM    9  C   UNL     1     -12.396  14.490  72.142  1.00  0.00    -0.341 C  
HETATM   10  C   UNL     1     -13.811  17.167  71.969  1.00  0.00     7.232 C  
HETATM   11  C   UNL     1     -10.466  10.494  68.360  1.00  0.00    -0.212 C  
HETATM   12  C   UNL     1      -8.498  13.452  69.284  1.00  0.00     0.734 C  
HETATM   13  H   UNL     1     -10.424  17.935  71.303  1.00  0.00     0.000 HD 
HETATM   14  C   UNL     1     -11.045  13.771  71.218  1.00  0.00     2.161 C  
HETATM   15  C   UNL     1      -9.883  12.982  68.848  1.00  0.00     0.132 C  
HETATM   16  C   UNL     1     -10.162  11.475  69.206  1.00  0.00     0.049 C  
HETATM   17  O   UNL     1      -9.854  14.358  71.737  1.00  0.00     2.948 OA 
HETATM   18  C   UNL     1     -11.010  13.846  69.522  1.00  0.00    -0.109 C  
HETATM   19  C   UNL     1     -11.181  15.382  68.837  1.00  0.00    -0.296 C  
HETATM   20  H   UNL     1      -9.136  13.976  71.246  1.00  0.00     0.000 HD 
HETATM   21  C   UNL     1     -11.227  15.290  67.266  1.00  0.00    -0.306 C  
HETATM   22  C   UNL     1     -10.035  14.504  66.714  1.00  0.00    -0.267 C  
HETATM   23 CL   UNL     1     -12.681  14.499  66.572  1.00  0.00     0.081 Cl 
HETATM   24  C   UNL     1      -9.923  13.132  67.313  1.00  0.00    -0.230 C  
HETATM   25  C   UNL     1      -9.741  12.057  66.532  1.00  0.00    -0.230 C  
HETATM   26  C   UNL     1      -9.407  10.871  67.327  1.00  0.00    -0.155 C  
ENDROOT
BRANCH   4  27
HETATM   27  C   UNL     1     -11.175  16.566  72.892  1.00  0.00     1.198 C  
HETATM   28  O   UNL     1     -11.382  15.816  73.862  1.00  0.00     0.499 OA 
BRANCH  27  29
HETATM   29  C   UNL     1     -10.634  17.970  73.293  1.00  0.00     4.002 C  
HETATM   30  O   UNL     1     -11.680  18.870  73.662  1.00  0.00     1.913 OA 
HETATM   31  H   UNL     1     -11.350  19.726  73.906  1.00  0.00     0.000 HD 
ENDBRANCH  27  29
ENDBRANCH   4  27
TORSDOF 2
ENDMDL
MODEL      111
REMARK 921   NORMALIZED FREE ENERGY PREDICTED BY IDOCK:   32.37 KCAL/MOL
REMARK 922        TOTAL FREE ENERGY PREDICTED BY IDOCK:   36.80 KCAL/MOL
REMARK 923 INTER-LIGAND FREE ENERGY PREDICTED BY IDOCK:   33.68 KCAL/MOL
REMARK 924 INTRA-LIGAND FREE ENERGY PREDICTED BY IDOCK:    3.12 KCAL/MOL
REMARK 927      BINDING AFFINITY PREDICTED BY RF-SCORE:    0.00 PKD
ROOT
HETATM    1  C   UNL     1     -10.344  16.373  71.593  1.00  0.00     2.643 C  
HETATM    2  C   UNL     1      -9.922  17.702  71.512  1.00  0.00     5.468 C  
HETATM    3  C   UNL     1     -10.352  17.082  70.227  1.00  0.00     0.656 C  
HETATM    4  C   UNL     1     -11.635  15.450  70.456  1.00  0.00    -0.326 C  
HETATM    5  C   UNL     1      -9.555  18.369  69.443  1.00  0.00     0.170 C  
HETATM    6  O   UNL     1     -11.865  14.899  71.824  1.00  0.00    -0.353 OA 
HETATM    7  O   UNL     1      -5.173  12.845  66.914  1.00  0.00    -0.298 OA 
HETATM    8  C   UNL     1     -11.861  16.802  70.416  1.00  0.00     1.034 C  
HETATM    9  C   UNL     1     -11.743  16.376  68.607  1.00  0.00    -0.011 C  
HETATM   10  C   UNL     1     -12.909  17.572  71.138  1.00  0.00     9.820 C  
HETATM   11  C   UNL     1      -6.431  14.900  66.706  1.00  0.00     1.516 C  
HETATM   12  C   UNL     1      -8.478  12.668  68.783  1.00  0.00     0.160 C  
HETATM   13  H   UNL     1     -12.448  14.157  71.928  1.00  0.00     0.000 HD 
HETATM   14  C   UNL     1     -10.504  15.118  68.319  1.00  0.00    -0.241 C  
HETATM   15  C   UNL     1      -7.966  14.100  68.648  1.00  0.00    -0.132 C  
HETATM   16  C   UNL     1      -7.611  14.490  67.166  1.00  0.00    -0.045 C  
HETATM   17  O   UNL     1     -11.156  13.868  68.530  1.00  0.00    -0.244 OA 
HETATM   18  C   UNL     1      -9.034  15.131  69.168  1.00  0.00    -0.219 C  
HETATM   19  C   UNL     1      -9.142  15.197  70.853  1.00  0.00     2.159 C  
HETATM   20  H   UNL     1     -10.498  13.199  68.376  1.00  0.00     0.000 HD 
HETATM   21  C   UNL     1      -7.711  15.300  71.500  1.00  0.00     3.710 C  
HETATM   22  C   UNL     1      -6.783  14.193  70.990  1.00  0.00     0.696 C  
HETATM   23 CL   UNL     1      -6.828  16.834  71.206  1.00  0.00     3.287 Cl 
HETATM   24  C   UNL     1      -6.677  14.175  69.493  1.00  0.00    -0.112 C  
HETATM   25  C   UNL     1      -5.480  14.107  68.892  1.00  0.00    -0.083 C  
HETATM   26  C   UNL     1      -5.619  13.847  67.456  1.00  0.00     0.146 C  
ENDROOT
BRANCH   4  27
HETATM   27  C   UNL     1     -13.279  14.966  70.026  1.00  0.00     0.309 C  
HETATM   28  O   UNL     1     -14.273  15.703  70.144  1.00  0.00     0.672 OA 
BRANCH  27  29
HETATM   29  C   UNL     1     -13.624  13.518  69.572  1.00  0.00     3.279 C  
HETATM   30  O   UNL     1     -12.459  12.758  69.247  1.00  0.00     0.019 OA 
HETATM   31  H   UNL     1     -12.670  11.874  68.969  1.00  0.00     0.000 HD 
ENDBRANCH  27  29
ENDBRANCH   4  27
TORSDOF 2
ENDMDL
MODEL      112
REMARK 921   NORMALIZED FREE ENERGY PREDICTED BY IDOCK:   33.51 KCAL/MOL
REMARK 922        TOTAL FREE ENERGY PREDICTED BY IDOCK:   38.07 KCAL/MOL
REMARK 923 INTER-LIGAND FREE ENERGY PREDICTED BY IDOCK:   36.38 KCAL/MOL
REMARK 924 INTRA-LIGAND FREE ENERGY PREDICTED BY IDOCK:    1.69 KCAL/MOL
REMARK 927      BINDING AFFINITY PREDICTED BY RF-SCORE:    0.00 PKD
ROOT
HETATM    1  C   UNL     1      -9.503  14.616  70.117  1.00  0.00     0.832 C  
HETATM    2  C   UNL     1     -10.630  14.269  70.863  1.00  0.00     1.438 C  
HETATM    3  C   UNL     1      -9.638  13.178  70.648  1.00  0.00     6.192 C  
HETATM    4  C   UNL     1      -7.708  13.853  70.225  1.00  0.00     1.622 C  
HETATM    5  C   UNL     1     -10.867  12.091  71.113  1.00  0.00     4.165 C  
HETATM    6  O   UNL     1      -7.492  15.307  69.967  1.00  0.00    -0.147 OA 
HETATM    7  O   UNL     1     -10.143   9.749  64.035  1.00  0.00     0.321 OA 
HETATM    8  C   UNL     1      -8.375  13.647  71.406  1.00  0.00     8.553 C  
HETATM    9  C   UNL     1      -7.799  11.928  70.981  1.00  0.00     6.925 C  
HETATM   10  C   UNL     1      -8.229  14.404  72.677  1.00  0.00     7.920 C  
HETATM   11  C   UNL     1     -10.438   9.441  66.414  1.00  0.00    -0.165 C  
HETATM   12  C   UNL     1      -7.968  12.131  66.045  1.00  0.00     0.744 C  
HETATM   13  H   UNL     1      -6.615  15.615  69.774  1.00  0.00     0.000 HD 
HETATM   14  C   UNL     1      -7.878  11.636  69.218  1.00  0.00     0.222 C  
HETATM   15  C   UNL     1      -9.216  11.702  66.811  1.00  0.00    -0.190 C  
HETATM   16  C   UNL     1      -9.400  10.140  66.864  1.00  0.00    -0.185 C  
HETATM   17  O   UNL     1      -6.655  12.135  68.682  1.00  0.00    -0.066 OA 
HETATM   18  C   UNL     1      -9.174  12.225  68.294  1.00  0.00    -0.189 C  
HETATM   19  C   UNL     1      -9.505  13.877  68.434  1.00  0.00    -0.211 C  
HETATM   20  H   UNL     1      -6.696  11.980  67.745  1.00  0.00     0.000 HD 
HETATM   21  C   UNL     1     -10.784  14.262  67.601  1.00  0.00    -0.258 C  
HETATM   22  C   UNL     1     -10.676  13.782  66.151  1.00  0.00    -0.283 C  
HETATM   23 CL   UNL     1     -12.339  13.602  68.206  1.00  0.00    -0.135 Cl 
HETATM   24  C   UNL     1     -10.414  12.307  66.052  1.00  0.00    -0.284 C  
HETATM   25  C   UNL     1     -11.136  11.539  65.223  1.00  0.00    -0.257 C  
HETATM   26  C   UNL     1     -10.554  10.199  65.095  1.00  0.00     0.297 C  
ENDROOT
BRANCH   4  27
HETATM   27  C   UNL     1      -6.080  13.771  70.905  1.00  0.00    -0.061 C  
HETATM   28  O   UNL     1      -5.145  13.130  70.394  1.00  0.00    -0.087 OA 
BRANCH  27  29
HETATM   29  C   UNL     1      -5.722  14.410  72.279  1.00  0.00     0.036 C  
HETATM   30  O   UNL     1      -5.176  13.458  73.194  1.00  0.00    -0.370 OA 
HETATM   31  H   UNL     1      -4.957  13.848  74.033  1.00  0.00     0.000 HD 
ENDBRANCH  27  29
ENDBRANCH   4  27
TORSDOF 2
ENDMDL
MODEL      113
REMARK 921   NORMALIZED FREE ENERGY PREDICTED BY IDOCK:   34.69 KCAL/MOL
REMARK 922        TOTAL FREE ENERGY PREDICTED BY IDOCK:   39.39 KCAL/MOL
REMARK 923 INTER-LIGAND FREE ENERGY PREDICTED BY IDOCK:   37.93 KCAL/MOL
REMARK 924 INTRA-LIGAND FREE ENERGY PREDICTED BY IDOCK:    1.46 KCAL/MOL
REMARK 927      BINDING AFFINITY PREDICTED BY RF-SCORE:    0.00 PKD
ROOT
HETATM    1  C   UNL     1     -11.406  14.080  70.608  1.00  0.00     0.150 C  
HETATM    2  C   UNL     1     -11.134  12.775  71.024  1.00  0.00     2.887 C  
HETATM    3  C   UNL     1     -10.132  13.381  70.101  1.00  0.00     2.288 C  
HETATM    4  C   UNL     1     -10.132  15.469  70.097  1.00  0.00    -0.144 C  
HETATM    5  C   UNL     1      -9.556  11.799  69.833  1.00  0.00     1.954 C  
HETATM    6  O   UNL     1     -11.220  16.193  70.819  1.00  0.00    -0.369 OA 
HETATM    7  O   UNL     1     -11.983  13.130  62.873  1.00  0.00    -0.224 OA 
HETATM    8  C   UNL     1      -9.518  14.549  70.908  1.00  0.00     2.786 C  
HETATM    9  C   UNL     1      -8.365  14.608  69.446  1.00  0.00     0.085 C  
HETATM   10  C   UNL     1      -9.212  14.674  72.357  1.00  0.00     7.010 C  
HETATM   11  C   UNL     1     -10.425  12.279  64.513  1.00  0.00    -0.339 C  
HETATM   12  C   UNL     1     -11.589  15.510  65.809  1.00  0.00     0.181 C  
HETATM   13  H   UNL     1     -11.220  17.142  70.817  1.00  0.00     0.000 HD 
HETATM   14  C   UNL     1      -9.270  14.795  67.916  1.00  0.00    -0.191 C  
HETATM   15  C   UNL     1     -11.293  14.063  66.194  1.00  0.00    -0.322 C  
HETATM   16  C   UNL     1     -10.244  13.375  65.244  1.00  0.00    -0.312 C  
HETATM   17  O   UNL     1      -9.484  16.195  67.752  1.00  0.00    -0.215 OA 
HETATM   18  C   UNL     1     -10.735  13.974  67.662  1.00  0.00    -0.261 C  
HETATM   19  C   UNL     1     -11.923  14.176  68.848  1.00  0.00    -0.376 C  
HETATM   20  H   UNL     1      -9.965  16.294  66.938  1.00  0.00     0.000 HD 
HETATM   21  C   UNL     1     -13.182  13.287  68.532  1.00  0.00     3.382 C  
HETATM   22  C   UNL     1     -13.694  13.522  67.109  1.00  0.00     6.978 C  
HETATM   23 CL   UNL     1     -12.940  11.513  68.664  1.00  0.00     1.859 Cl 
HETATM   24  C   UNL     1     -12.631  13.305  66.072  1.00  0.00    -0.279 C  
HETATM   25  C   UNL     1     -12.876  12.554  64.987  1.00  0.00    -0.127 C  
HETATM   26  C   UNL     1     -11.802  12.683  63.997  1.00  0.00    -0.431 C  
ENDROOT
BRANCH   4  27
HETATM   27  C   UNL     1      -9.045  16.811  70.469  1.00  0.00     3.140 C  
HETATM   28  O   UNL     1      -8.204  16.791  71.384  1.00  0.00     6.648 OA 
BRANCH  27  29
HETATM   29  C   UNL     1      -9.143  18.183  69.741  1.00  0.00     1.160 C  
HETATM   30  O   UNL     1      -9.753  19.187  70.554  1.00  0.00     1.016 OA 
HETATM   31  H   UNL     1      -9.813  20.025  70.110  1.00  0.00     0.000 HD 
ENDBRANCH  27  29
ENDBRANCH   4  27
TORSDOF 2
ENDMDL
MODEL      114
REMARK 921   NORMALIZED FREE ENERGY PREDICTED BY IDOCK:   34.85 KCAL/MOL
REMARK 922        TOTAL FREE ENERGY PREDICTED BY IDOCK:   39.57 KCAL/MOL
REMARK 923 INTER-LIGAND FREE ENERGY PREDICTED BY IDOCK:   38.66 KCAL/MOL
REMARK 924 INTRA-LIGAND FREE ENERGY PREDICTED BY IDOCK:    0.91 KCAL/MOL
REMARK 927      BINDING AFFINITY PREDICTED BY RF-SCORE:    0.00 PKD
ROOT
HETATM    1  C   UNL     1      -9.062  15.911  69.038  1.00  0.00    -0.240 C  
HETATM    2  C   UNL     1     -10.191  16.648  69.401  1.00  0.00    -0.251 C  
HETATM    3  C   UNL     1      -9.853  15.503  70.293  1.00  0.00     0.159 C  
HETATM    4  C   UNL     1      -7.852  14.912  70.201  1.00  0.00     0.479 C  
HETATM    5  C   UNL     1     -11.436  15.636  70.913  1.00  0.00    -0.425 C  
HETATM    6  O   UNL     1      -6.973  15.501  69.148  1.00  0.00    -0.134 OA 
HETATM    7  O   UNL     1     -12.177   8.843  67.846  1.00  0.00     3.362 OA 
HETATM    8  C   UNL     1      -8.494  15.887  70.922  1.00  0.00     3.297 C  
HETATM    9  C   UNL     1      -8.831  14.366  71.942  1.00  0.00     6.856 C  
HETATM   10  C   UNL     1      -7.957  17.208  71.344  1.00  0.00     8.496 C  
HETATM   11  C   UNL     1     -12.500  10.502  69.574  1.00  0.00     0.035 C  
HETATM   12  C   UNL     1      -9.055  10.943  68.383  1.00  0.00    -0.164 C  
HETATM   13  H   UNL     1      -6.063  15.233  69.106  1.00  0.00     0.000 HD 
HETATM   14  C   UNL     1      -9.102  12.937  70.902  1.00  0.00     9.820 C  
HETATM   15  C   UNL     1     -10.328  11.689  68.774  1.00  0.00    -0.213 C  
HETATM   16  C   UNL     1     -11.238  10.876  69.768  1.00  0.00    -0.351 C  
HETATM   17  O   UNL     1      -7.810  12.408  70.614  1.00  0.00     2.871 OA 
HETATM   18  C   UNL     1      -9.988  13.063  69.459  1.00  0.00     1.013 C  
HETATM   19  C   UNL     1      -9.479  14.251  68.369  1.00  0.00    -0.213 C  
HETATM   20  H   UNL     1      -7.954  11.648  70.062  1.00  0.00     0.000 HD 
HETATM   21  C   UNL     1     -10.443  14.318  67.127  1.00  0.00    -0.266 C  
HETATM   22  C   UNL     1     -10.631  12.940  66.486  1.00  0.00    -0.272 C  
HETATM   23 CL   UNL     1     -12.102  14.919  67.458  1.00  0.00    -0.166 Cl 
HETATM   24  C   UNL     1     -11.114  11.910  67.466  1.00  0.00    -0.332 C  
HETATM   25  C   UNL     1     -12.145  11.108  67.162  1.00  0.00     1.052 C  
HETATM   26  C   UNL     1     -12.283  10.025  68.141  1.00  0.00     2.484 C  
ENDROOT
BRANCH   4  27
HETATM   27  C   UNL     1      -6.441  14.788  71.256  1.00  0.00     0.534 C  
HETATM   28  O   UNL     1      -6.305  15.429  72.313  1.00  0.00     1.438 OA 
BRANCH  27  29
HETATM   29  C   UNL     1      -5.191  13.943  70.873  1.00  0.00    -0.130 C  
HETATM   30  O   UNL     1      -5.270  13.430  69.542  1.00  0.00    -0.082 OA 
HETATM   31  H   UNL     1      -4.507  12.913  69.308  1.00  0.00     0.000 HD 
ENDBRANCH  27  29
ENDBRANCH   4  27
TORSDOF 2
ENDMDL
MODEL      115
REMARK 921   NORMALIZED FREE ENERGY PREDICTED BY IDOCK:   35.25 KCAL/MOL
REMARK 922        TOTAL FREE ENERGY PREDICTED BY IDOCK:   40.01 KCAL/MOL
REMARK 923 INTER-LIGAND FREE ENERGY PREDICTED BY IDOCK:   35.00 KCAL/MOL
REMARK 924 INTRA-LIGAND FREE ENERGY PREDICTED BY IDOCK:    5.01 KCAL/MOL
REMARK 927      BINDING AFFINITY PREDICTED BY RF-SCORE:    0.00 PKD
ROOT
HETATM    1  C   UNL     1      -9.583  12.693  67.181  1.00  0.00    -0.207 C  
HETATM    2  C   UNL     1     -10.918  12.941  67.506  1.00  0.00    -0.283 C  
HETATM    3  C   UNL     1     -10.443  13.541  66.227  1.00  0.00    -0.290 C  
HETATM    4  C   UNL     1      -8.778  12.586  65.406  1.00  0.00     1.122 C  
HETATM    5  C   UNL     1     -11.822  14.541  66.288  1.00  0.00    -0.354 C  
HETATM    6  O   UNL     1      -8.070  11.547  66.211  1.00  0.00    -0.321 OA 
HETATM    7  O   UNL     1      -6.686  19.949  66.987  1.00  0.00    -0.203 OA 
HETATM    8  C   UNL     1     -10.123  12.327  65.324  1.00  0.00    -0.295 C  
HETATM    9  C   UNL     1      -9.907  13.666  64.047  1.00  0.00     1.455 C  
HETATM   10  C   UNL     1     -10.789  11.004  65.201  1.00  0.00    -0.183 C  
HETATM   11  C   UNL     1      -8.733  18.982  66.138  1.00  0.00    -0.197 C  
HETATM   12  C   UNL     1      -6.250  16.277  66.108  1.00  0.00     1.586 C  
HETATM   13  H   UNL     1      -7.313  11.112  65.837  1.00  0.00     0.000 HD 
HETATM   14  C   UNL     1      -8.708  14.881  64.580  1.00  0.00     6.404 C  
HETATM   15  C   UNL     1      -7.695  16.618  66.462  1.00  0.00    -0.337 C  
HETATM   16  C   UNL     1      -8.257  17.841  65.646  1.00  0.00     0.451 C  
HETATM   17  O   UNL     1      -7.433  14.370  64.200  1.00  0.00    13.341 OA 
HETATM   18  C   UNL     1      -8.645  15.393  66.197  1.00  0.00     0.001 C  
HETATM   19  C   UNL     1      -8.517  14.177  67.364  1.00  0.00    -0.214 C  
HETATM   20  H   UNL     1      -6.796  15.016  64.483  1.00  0.00     0.000 HD 
HETATM   21  C   UNL     1      -8.565  14.788  68.814  1.00  0.00    -0.170 C  
HETATM   22  C   UNL     1      -7.537  15.910  68.985  1.00  0.00    -0.202 C  
HETATM   23 CL   UNL     1     -10.135  15.501  69.310  1.00  0.00    -0.239 Cl 
HETATM   24  C   UNL     1      -7.692  16.994  67.958  1.00  0.00    -0.181 C  
HETATM   25  C   UNL     1      -7.709  18.284  68.324  1.00  0.00    -0.303 C  
HETATM   26  C   UNL     1      -7.613  19.169  67.157  1.00  0.00    -0.232 C  
ENDROOT
BRANCH   4  27
HETATM   27  C   UNL     1      -8.323  11.707  63.942  1.00  0.00     1.190 C  
HETATM   28  O   UNL     1      -8.424  10.474  63.812  1.00  0.00    -0.171 OA 
BRANCH  27  29
HETATM   29  C   UNL     1      -7.641  12.408  62.732  1.00  0.00     4.557 C  
HETATM   30  O   UNL     1      -8.331  13.593  62.331  1.00  0.00     9.276 OA 
HETATM   31  H   UNL     1      -7.915  14.021  61.592  1.00  0.00     0.000 HD 
ENDBRANCH  27  29
ENDBRANCH   4  27
TORSDOF 2
ENDMDL
MODEL      116
REMARK 921   NORMALIZED FREE ENERGY PREDICTED BY IDOCK:   36.55 KCAL/MOL
REMARK 922        TOTAL FREE ENERGY PREDICTED BY IDOCK:   41.47 KCAL/MOL
REMARK 923 INTER-LIGAND FREE ENERGY PREDICTED BY IDOCK:   40.00 KCAL/MOL
REMARK 924 INTRA-LIGAND FREE ENERGY PREDICTED BY IDOCK:    1.47 KCAL/MOL
REMARK 927      BINDING AFFINITY PREDICTED BY RF-SCORE:    0.00 PKD
ROOT
HETATM    1  C   UNL     1      -6.388  15.935  68.761  1.00  0.00    -0.114 C  
HETATM    2  C   UNL     1      -6.421  16.319  67.419  1.00  0.00    -0.213 C  
HETATM    3  C   UNL     1      -7.743  16.019  68.037  1.00  0.00    -0.140 C  
HETATM    4  C   UNL     1      -7.769  16.188  70.118  1.00  0.00     1.089 C  
HETATM    5  C   UNL     1      -8.361  15.918  66.451  1.00  0.00    -0.310 C  
HETATM    6  O   UNL     1      -6.478  16.381  70.843  1.00  0.00     0.887 OA 
HETATM    7  O   UNL     1      -9.467   8.762  68.368  1.00  0.00    -0.140 OA 
HETATM    8  C   UNL     1      -7.924  17.112  69.117  1.00  0.00    -0.041 C  
HETATM    9  C   UNL     1      -9.626  16.361  69.219  1.00  0.00    -0.198 C  
HETATM   10  C   UNL     1      -7.522  18.543  69.128  1.00  0.00    -0.149 C  
HETATM   11  C   UNL     1     -10.073  10.861  67.332  1.00  0.00    -0.223 C  
HETATM   12  C   UNL     1      -8.475  11.733  70.521  1.00  0.00     5.144 C  
HETATM   13  H   UNL     1      -6.490  16.457  71.790  1.00  0.00     0.000 HD 
HETATM   14  C   UNL     1      -9.539  14.606  69.553  1.00  0.00     0.156 C  
HETATM   15  C   UNL     1      -8.542  12.090  69.039  1.00  0.00     0.326 C  
HETATM   16  C   UNL     1      -9.905  11.681  68.367  1.00  0.00    -0.202 C  
HETATM   17  O   UNL     1      -9.442  14.479  70.969  1.00  0.00     1.591 OA 
HETATM   18  C   UNL     1      -8.352  13.636  68.823  1.00  0.00     0.041 C  
HETATM   19  C   UNL     1      -6.751  14.150  69.001  1.00  0.00    -0.107 C  
HETATM   20  H   UNL     1      -9.396  13.546  71.147  1.00  0.00     0.000 HD 
HETATM   21  C   UNL     1      -5.773  13.215  68.197  1.00  0.00    -0.097 C  
HETATM   22  C   UNL     1      -5.986  11.740  68.553  1.00  0.00    -0.049 C  
HETATM   23 CL   UNL     1      -5.907  13.296  66.410  1.00  0.00     2.605 Cl 
HETATM   24  C   UNL     1      -7.407  11.300  68.356  1.00  0.00    -0.097 C  
HETATM   25  C   UNL     1      -7.686  10.167  67.694  1.00  0.00    -0.091 C  
HETATM   26  C   UNL     1      -9.099   9.801  67.838  1.00  0.00    -0.121 C  
ENDROOT
BRANCH   4  27
HETATM   27  C   UNL     1      -8.573  17.130  71.378  1.00  0.00     9.161 C  
HETATM   28  O   UNL     1      -8.973  16.653  72.454  1.00  0.00    10.922 OA 
BRANCH  27  29
HETATM   29  C   UNL     1      -8.953  18.627  71.178  1.00  0.00     6.014 C  
HETATM   30  O   UNL     1      -9.220  19.288  72.416  1.00  0.00     4.356 OA 
HETATM   31  H   UNL     1      -9.452  20.202  72.295  1.00  0.00     0.000 HD 
ENDBRANCH  27  29
ENDBRANCH   4  27
TORSDOF 2
ENDMDL
MODEL      117
REMARK 921   NORMALIZED FREE ENERGY PREDICTED BY IDOCK:   37.20 KCAL/MOL
REMARK 922        TOTAL FREE ENERGY PREDICTED BY IDOCK:   42.20 KCAL/MOL
REMARK 923 INTER-LIGAND FREE ENERGY PREDICTED BY IDOCK:   40.03 KCAL/MOL
REMARK 924 INTRA-LIGAND FREE ENERGY PREDICTED BY IDOCK:    2.16 KCAL/MOL
REMARK 927      BINDING AFFINITY PREDICTED BY RF-SCORE:    0.00 PKD
ROOT
HETATM    1  C   UNL     1      -8.382  18.939  70.814  1.00  0.00     3.785 C  
HETATM    2  C   UNL     1      -8.199  20.043  69.980  1.00  0.00     0.988 C  
HETATM    3  C   UNL     1      -9.491  19.318  69.816  1.00  0.00     0.386 C  
HETATM    4  C   UNL     1     -10.062  18.208  71.490  1.00  0.00     4.713 C  
HETATM    5  C   UNL     1      -9.654  20.129  68.325  1.00  0.00    -0.317 C  
HETATM    6  O   UNL     1      -9.093  18.044  72.613  1.00  0.00    11.660 OA 
HETATM    7  O   UNL     1      -9.116  13.180  65.582  1.00  0.00     0.264 OA 
HETATM    8  C   UNL     1     -10.227  19.529  71.159  1.00  0.00     2.268 C  
HETATM    9  C   UNL     1     -11.619  18.718  70.223  1.00  0.00     6.421 C  
HETATM   10  C   UNL     1     -10.262  20.699  72.075  1.00  0.00     4.111 C  
HETATM   11  C   UNL     1     -10.024  15.418  65.688  1.00  0.00    -0.396 C  
HETATM   12  C   UNL     1      -9.554  14.352  69.170  1.00  0.00     0.020 C  
HETATM   13  H   UNL     1      -9.353  17.540  73.374  1.00  0.00     0.000 HD 
HETATM   14  C   UNL     1     -11.122  17.127  69.576  1.00  0.00     0.385 C  
HETATM   15  C   UNL     1      -9.360  15.516  68.202  1.00  0.00    -0.197 C  
HETATM   16  C   UNL     1     -10.348  15.469  66.978  1.00  0.00    -0.279 C  
HETATM   17  O   UNL     1     -11.337  16.189  70.627  1.00  0.00    -0.375 OA 
HETATM   18  C   UNL     1      -9.570  16.895  68.928  1.00  0.00    -0.251 C  
HETATM   19  C   UNL     1      -8.272  17.340  69.916  1.00  0.00     1.577 C  
HETATM   20  H   UNL     1     -11.073  15.343  70.283  1.00  0.00     0.000 HD 
HETATM   21  C   UNL     1      -6.906  17.160  69.155  1.00  0.00    -0.236 C  
HETATM   22  C   UNL     1      -6.771  15.753  68.566  1.00  0.00    -0.119 C  
HETATM   23 CL   UNL     1      -6.623  18.280  67.782  1.00  0.00    -0.202 Cl 
HETATM   24  C   UNL     1      -7.919  15.394  67.667  1.00  0.00    -0.172 C  
HETATM   25  C   UNL     1      -7.698  14.861  66.456  1.00  0.00     0.771 C  
HETATM   26  C   UNL     1      -8.940  14.357  65.862  1.00  0.00     0.419 C  
ENDROOT
BRANCH   4  27
HETATM   27  C   UNL     1     -11.379  18.137  72.666  1.00  0.00     2.785 C  
HETATM   28  O   UNL     1     -11.524  18.949  73.596  1.00  0.00     1.912 OA 
BRANCH  27  29
HETATM   29  C   UNL     1     -12.403  16.965  72.694  1.00  0.00     0.727 C  
HETATM   30  O   UNL     1     -12.648  16.491  74.019  1.00  0.00    -0.615 OA 
HETATM   31  H   UNL     1     -13.273  15.775  74.037  1.00  0.00     0.000 HD 
ENDBRANCH  27  29
ENDBRANCH   4  27
TORSDOF 2
ENDMDL
MODEL      118
REMARK 921   NORMALIZED FREE ENERGY PREDICTED BY IDOCK:   38.67 KCAL/MOL
REMARK 922        TOTAL FREE ENERGY PREDICTED BY IDOCK:   43.84 KCAL/MOL
REMARK 923 INTER-LIGAND FREE ENERGY PREDICTED BY IDOCK:   43.12 KCAL/MOL
REMARK 924 INTRA-LIGAND FREE ENERGY PREDICTED BY IDOCK:    0.72 KCAL/MOL
REMARK 927      BINDING AFFINITY PREDICTED BY RF-SCORE:    0.00 PKD
ROOT
HETATM    1  C   UNL     1      -5.785  13.690  70.923  1.00  0.00    -0.197 C  
HETATM    2  C   UNL     1      -6.133  14.863  71.595  1.00  0.00     0.460 C  
HETATM    3  C   UNL     1      -7.250  13.910  71.340  1.00  0.00     3.217 C  
HETATM    4  C   UNL     1      -6.635  11.936  71.046  1.00  0.00     2.032 C  
HETATM    5  C   UNL     1      -8.310  15.204  71.672  1.00  0.00     4.680 C  
HETATM    6  O   UNL     1      -5.178  11.647  70.906  1.00  0.00    -0.116 OA 
HETATM    7  O   UNL     1     -10.162  14.273  64.474  1.00  0.00    -0.304 OA 
HETATM    8  C   UNL     1      -6.896  12.662  72.181  1.00  0.00     6.216 C  
HETATM    9  C   UNL     1      -8.605  12.143  71.652  1.00  0.00    15.936 C  
HETATM   10  C   UNL     1      -6.241  12.539  73.510  1.00  0.00     3.312 C  
HETATM   11  C   UNL     1     -10.629  14.685  66.810  1.00  0.00    -0.288 C  
HETATM   12  C   UNL     1      -8.035  12.087  66.742  1.00  0.00    -0.060 C  
HETATM   13  H   UNL     1      -4.898  10.749  70.773  1.00  0.00     0.000 HD 
HETATM   14  C   UNL     1      -8.763  12.157  69.871  1.00  0.00     2.740 C  
HETATM   15  C   UNL     1      -8.461  13.385  67.424  1.00  0.00    -0.197 C  
HETATM   16  C   UNL     1     -10.012  13.638  67.352  1.00  0.00    -0.234 C  
HETATM   17  O   UNL     1      -8.283  10.891  69.422  1.00  0.00    -0.347 OA 
HETATM   18  C   UNL     1      -8.049  13.385  68.942  1.00  0.00     0.147 C  
HETATM   19  C   UNL     1      -6.398  13.651  69.192  1.00  0.00    -0.103 C  
HETATM   20  H   UNL     1      -8.368  10.899  68.476  1.00  0.00     0.000 HD 
HETATM   21  C   UNL     1      -5.895  14.874  68.339  1.00  0.00    -0.106 C  
HETATM   22  C   UNL     1      -6.273  14.724  66.863  1.00  0.00     1.350 C  
HETATM   23 CL   UNL     1      -6.525  16.481  68.830  1.00  0.00    -0.153 Cl 
HETATM   24  C   UNL     1      -7.748  14.522  66.664  1.00  0.00     0.716 C  
HETATM   25  C   UNL     1      -8.419  15.240  65.751  1.00  0.00     1.165 C  
HETATM   26  C   UNL     1      -9.772  14.710  65.548  1.00  0.00    -0.212 C  
ENDROOT
BRANCH   4  27
HETATM   27  C   UNL     1      -6.842  10.344  71.783  1.00  0.00     2.092 C  
HETATM   28  O   UNL     1      -7.941   9.871  72.119  1.00  0.00     1.445 OA 
BRANCH  27  29
HETATM   29  C   UNL     1      -5.630   9.451  72.181  1.00  0.00    -0.037 C  
HETATM   30  O   UNL     1      -5.368   8.430  71.217  1.00  0.00    -0.032 OA 
HETATM   31  H   UNL     1      -4.629   7.885  71.460  1.00  0.00     0.000 HD 
ENDBRANCH  27  29
ENDBRANCH   4  27
TORSDOF 2
ENDMDL
MODEL      119
REMARK 921   NORMALIZED FREE ENERGY PREDICTED BY IDOCK:   40.40 KCAL/MOL
REMARK 922        TOTAL FREE ENERGY PREDICTED BY IDOCK:   45.76 KCAL/MOL
REMARK 923 INTER-LIGAND FREE ENERGY PREDICTED BY IDOCK:   44.73 KCAL/MOL
REMARK 924 INTRA-LIGAND FREE ENERGY PREDICTED BY IDOCK:    1.03 KCAL/MOL
REMARK 927      BINDING AFFINITY PREDICTED BY RF-SCORE:    0.00 PKD
ROOT
HETATM    1  C   UNL     1      -8.039   5.106  68.420  1.00  0.00    -0.086 C  
HETATM    2  C   UNL     1      -7.015   4.926  69.352  1.00  0.00    -0.054 C  
HETATM    3  C   UNL     1      -8.258   5.564  69.872  1.00  0.00    -0.105 C  
HETATM    4  C   UNL     1      -9.964   5.152  68.742  1.00  0.00    -0.166 C  
HETATM    5  C   UNL     1      -7.332   6.062  71.215  1.00  0.00    -0.080 C  
HETATM    6  O   UNL     1      -9.811   4.455  67.431  1.00  0.00    -0.185 OA 
HETATM    7  O   UNL     1      -8.828  12.881  68.500  1.00  0.00    -0.148 OA 
HETATM    8  C   UNL     1      -9.338   4.465  69.751  1.00  0.00    -0.224 C  
HETATM    9  C   UNL     1     -10.344   5.714  70.698  1.00  0.00    -0.320 C  
HETATM   10  C   UNL     1      -9.251   2.992  69.931  1.00  0.00    -0.225 C  
HETATM   11  C   UNL     1      -8.553  11.247  70.260  1.00  0.00     2.682 C  
HETATM   12  C   UNL     1     -10.269   9.502  67.523  1.00  0.00    -0.283 C  
HETATM   13  H   UNL     1     -10.587   4.267  66.916  1.00  0.00     0.000 HD 
HETATM   14  C   UNL     1     -10.392   7.286  69.846  1.00  0.00    -0.219 C  
HETATM   15  C   UNL     1      -9.150   9.377  68.553  1.00  0.00    -0.131 C  
HETATM   16  C   UNL     1      -9.367  10.294  69.813  1.00  0.00    -0.116 C  
HETATM   17  O   UNL     1     -11.463   7.194  68.909  1.00  0.00    -0.457 OA 
HETATM   18  C   UNL     1      -9.015   7.895  69.061  1.00  0.00    -0.145 C  
HETATM   19  C   UNL     1      -8.271   6.865  67.945  1.00  0.00    -0.114 C  
HETATM   20  H   UNL     1     -11.488   8.029  68.457  1.00  0.00     0.000 HD 
HETATM   21  C   UNL     1      -6.961   7.520  67.369  1.00  0.00    -0.083 C  
HETATM   22  C   UNL     1      -7.228   8.925  66.821  1.00  0.00    -0.082 C  
HETATM   23 CL   UNL     1      -5.608   7.713  68.532  1.00  0.00    -0.026 Cl 
HETATM   24  C   UNL     1      -7.859   9.830  67.840  1.00  0.00    -0.090 C  
HETATM   25  C   UNL     1      -7.379  11.065  68.047  1.00  0.00    -0.088 C  
HETATM   26  C   UNL     1      -8.286  11.855  68.886  1.00  0.00     0.116 C  
ENDROOT
BRANCH   4  27
HETATM   27  C   UNL     1     -11.540   4.375  68.927  1.00  0.00     7.185 C  
HETATM   28  O   UNL     1     -11.844   3.639  69.881  1.00  0.00     9.186 OA 
BRANCH  27  29
HETATM   29  C   UNL     1     -12.642   4.463  67.830  1.00  0.00    17.936 C  
HETATM   30  O   UNL     1     -12.477   3.472  66.815  1.00  0.00    11.053 OA 
HETATM   31  H   UNL     1     -13.149   3.525  66.146  1.00  0.00     0.000 HD 
ENDBRANCH  27  29
ENDBRANCH   4  27
TORSDOF 2
ENDMDL
MODEL      120
REMARK 921   NORMALIZED FREE ENERGY PREDICTED BY IDOCK:   72.45 KCAL/MOL
REMARK 922        TOTAL FREE ENERGY PREDICTED BY IDOCK:   81.57 KCAL/MOL
REMARK 923 INTER-LIGAND FREE ENERGY PREDICTED BY IDOCK:   78.13 KCAL/MOL
REMARK 924 INTRA-LIGAND FREE ENERGY PREDICTED BY IDOCK:    3.44 KCAL/MOL
REMARK 927      BINDING AFFINITY PREDICTED BY RF-SCORE:    0.00 PKD
ROOT
HETATM    1  C   UNL     1     -10.055   5.357  65.222  1.00  0.00     0.457 C  
HETATM    2  C   UNL     1      -9.923   4.950  63.893  1.00  0.00     0.596 C  
HETATM    3  C   UNL     1      -9.067   6.099  64.304  1.00  0.00     0.835 C  
HETATM    4  C   UNL     1      -8.712   6.203  66.359  1.00  0.00    -0.138 C  
HETATM    5  C   UNL     1      -8.846   6.412  62.642  1.00  0.00     0.469 C  
HETATM    6  O   UNL     1      -9.468   5.294  67.270  1.00  0.00    -0.119 OA 
HETATM    7  O   UNL     1     -12.519  12.719  64.326  1.00  0.00    -0.529 OA 
HETATM    8  C   UNL     1      -8.097   5.505  65.351  1.00  0.00    -0.123 C  
HETATM    9  C   UNL     1      -7.311   7.186  65.192  1.00  0.00    -0.081 C  
HETATM   10  C   UNL     1      -7.454   4.167  65.432  1.00  0.00    -0.077 C  
HETATM   11  C   UNL     1     -10.800  11.425  63.225  1.00  0.00    -0.292 C  
HETATM   12  C   UNL     1     -11.071  10.060  66.622  1.00  0.00     0.191 C  
HETATM   13  H   UNL     1      -9.307   5.342  68.204  1.00  0.00     0.000 HD 
HETATM   14  C   UNL     1      -8.494   8.487  65.524  1.00  0.00    -0.167 C  
HETATM   15  C   UNL     1     -10.948   9.681  65.149  1.00  0.00     2.549 C  
HETATM   16  C   UNL     1     -10.274  10.805  64.278  1.00  0.00    -0.422 C  
HETATM   17  O   UNL     1      -8.496   8.666  66.939  1.00  0.00    -0.110 OA 
HETATM   18  C   UNL     1     -10.096   8.370  64.974  1.00  0.00     2.376 C  
HETATM   19  C   UNL     1     -10.932   6.962  65.393  1.00  0.00     4.676 C  
HETATM   20  H   UNL     1      -9.124   9.357  67.115  1.00  0.00     0.000 HD 
HETATM   21  C   UNL     1     -12.363   6.948  64.739  1.00  0.00    13.668 C  
HETATM   22  C   UNL     1     -13.136   8.234  65.049  1.00  0.00    22.407 C  
HETATM   23 CL   UNL     1     -12.404   6.789  62.952  1.00  0.00    12.999 Cl 
HETATM   24  C   UNL     1     -12.388   9.468  64.638  1.00  0.00    12.538 C  
HETATM   25  C   UNL     1     -12.996  10.434  63.935  1.00  0.00     6.783 C  
HETATM   26  C   UNL     1     -12.168  11.643  63.863  1.00  0.00    -0.169 C  
ENDROOT
BRANCH   4  27
HETATM   27  C   UNL     1      -7.356   6.146  67.489  1.00  0.00    -0.077 C  
HETATM   28  O   UNL     1      -7.401   6.586  68.651  1.00  0.00    -0.082 OA 
BRANCH  27  29
HETATM   29  C   UNL     1      -5.945   5.640  67.067  1.00  0.00    -0.018 C  
HETATM   30  O   UNL     1      -5.377   6.427  66.020  1.00  0.00    -0.013 OA 
HETATM   31  H   UNL     1      -4.516   6.118  65.762  1.00  0.00     0.000 HD 
ENDBRANCH  27  29
ENDBRANCH   4  27
TORSDOF 2
ENDMDL
