MODEL        1
REMARK 921   NORMALIZED FREE ENERGY PREDICTED BY IDOCK:   -7.22 KCAL/MOL
REMARK 922        TOTAL FREE ENERGY PREDICTED BY IDOCK:   -9.40 KCAL/MOL
REMARK 923 INTER-LIGAND FREE ENERGY PREDICTED BY IDOCK:   -8.48 KCAL/MOL
REMARK 924 INTRA-LIGAND FREE ENERGY PREDICTED BY IDOCK:   -0.92 KCAL/MOL
REMARK 927      BINDING AFFINITY PREDICTED BY RF-SCORE:    0.00 PKD
ROOT
HETATM    1  C   UNL     1     -12.990   9.517  72.072  1.00  0.00    -0.514 C  
HETATM    2  C   UNL     1     -11.782   8.857  71.404  1.00  0.00    -0.385 C  
ENDROOT
BRANCH   2   3
HETATM    3  C   UNL     1     -11.165   9.566  70.206  1.00  0.00    -0.307 A  
HETATM    4  C   UNL     1     -11.384  10.947  70.064  1.00  0.00    -0.386 A  
HETATM    5  C   UNL     1     -10.772  11.705  69.062  1.00  0.00    -0.217 A  
HETATM    6  C   UNL     1      -9.929  11.094  68.123  1.00  0.00    -0.189 A  
HETATM    7  C   UNL     1      -9.745   9.706  68.245  1.00  0.00    -0.162 A  
HETATM    8  C   UNL     1      -9.194  11.885  67.021  1.00  0.00    -0.191 C  
HETATM    9  C   UNL     1     -10.314   8.918  69.274  1.00  0.00    -0.213 A  
HETATM   10  C   UNL     1      -7.668  11.754  67.227  1.00  0.00    -0.158 C  
HETATM   11  C   UNL     1      -9.571  13.346  67.097  1.00  0.00    -0.241 A  
HETATM   12  C   UNL     1      -9.586  11.329  65.635  1.00  0.00    -0.260 C  
HETATM   13  N   UNL     1      -9.936  20.271  65.721  1.00  0.00    -0.285 NA 
HETATM   14  C   UNL     1     -10.407  13.929  68.027  1.00  0.00    -0.245 A  
HETATM   15  C   UNL     1     -11.145  16.398  68.353  1.00  0.00    -0.351 A  
HETATM   16  C   UNL     1     -11.052  13.168  69.067  1.00  0.00    -0.234 C  
HETATM   17  C   UNL     1     -10.472  15.316  67.753  1.00  0.00    -0.253 A  
HETATM   18  O   UNL     1     -11.783  13.677  69.911  1.00  0.00    -0.288 OA 
HETATM   19  C   UNL     1     -10.996  17.679  67.820  1.00  0.00    -0.111 A  
HETATM   20  C   UNL     1      -9.669  15.548  66.636  1.00  0.00    -0.247 A  
HETATM   21  C   UNL     1      -9.509  16.824  66.086  1.00  0.00    -0.295 A  
HETATM   22  N   UNL     1      -9.132  14.337  66.255  1.00  0.00    -0.494 NA 
HETATM   23  C   UNL     1     -10.052  19.208  66.165  1.00  0.00    -0.426 C  
HETATM   24  C   UNL     1     -10.191  17.889  66.697  1.00  0.00    -0.371 A  
HETATM   25  H   UNL     1      -8.501  14.197  65.466  1.00  0.00     0.000 HD 
BRANCH   9  26
HETATM   26  N   UNL     1      -9.942   7.586  69.381  1.00  0.00    -0.174 NA 
HETATM   27  C   UNL     1     -10.784   5.372  69.773  1.00  0.00    -0.280 C  
HETATM   28  C   UNL     1     -10.714   6.511  68.757  1.00  0.00    -0.272 C  
HETATM   29  C   UNL     1      -9.361   4.849  70.093  1.00  0.00    -0.154 C  
HETATM   30  C   UNL     1      -8.544   7.213  69.643  1.00  0.00    -0.137 C  
HETATM   31  C   UNL     1      -8.545   6.047  70.628  1.00  0.00    -0.134 C  
BRANCH  29  32
HETATM   32  N   UNL     1      -8.724   4.195  68.913  1.00  0.00    -0.088 NA 
HETATM   33  C   UNL     1      -7.307   3.819  69.144  1.00  0.00    -0.053 C  
HETATM   34  C   UNL     1      -7.145   2.691  70.177  1.00  0.00    -0.033 C  
HETATM   35  O   UNL     1      -7.877   1.519  69.791  1.00  0.00    -0.042 OA 
HETATM   36  C   UNL     1      -9.256   1.812  69.537  1.00  0.00    -0.107 C  
HETATM   37  C   UNL     1      -9.409   2.942  68.505  1.00  0.00    -0.187 C  
ENDBRANCH  29  32
ENDBRANCH   9  26
ENDBRANCH   2   3
TORSDOF 3
ENDMDL
MODEL        2
REMARK 921   NORMALIZED FREE ENERGY PREDICTED BY IDOCK:   -7.17 KCAL/MOL
REMARK 922        TOTAL FREE ENERGY PREDICTED BY IDOCK:   -9.34 KCAL/MOL
REMARK 923 INTER-LIGAND FREE ENERGY PREDICTED BY IDOCK:   -8.50 KCAL/MOL
REMARK 924 INTRA-LIGAND FREE ENERGY PREDICTED BY IDOCK:   -0.84 KCAL/MOL
REMARK 927      BINDING AFFINITY PREDICTED BY RF-SCORE:    0.00 PKD
ROOT
HETATM    1  C   UNL     1     -11.604  12.620  63.524  1.00  0.00    -0.584 C  
HETATM    2  C   UNL     1     -10.228  12.290  64.105  1.00  0.00    -0.376 C  
ENDROOT
BRANCH   2   3
HETATM    3  C   UNL     1     -10.177  11.717  65.515  1.00  0.00    -0.302 A  
HETATM    4  C   UNL     1     -10.154  10.320  65.665  1.00  0.00    -0.341 A  
HETATM    5  C   UNL     1      -9.998   9.701  66.909  1.00  0.00    -0.272 A  
HETATM    6  C   UNL     1      -9.892  10.469  68.077  1.00  0.00    -0.166 A  
HETATM    7  C   UNL     1      -9.957  11.865  67.926  1.00  0.00    -0.195 A  
HETATM    8  C   UNL     1      -9.678   9.845  69.471  1.00  0.00    -0.238 C  
HETATM    9  C   UNL     1     -10.069  12.523  66.677  1.00  0.00    -0.230 A  
HETATM   10  C   UNL     1      -8.322  10.319  70.041  1.00  0.00     0.068 C  
HETATM   11  C   UNL     1      -9.660   8.338  69.363  1.00  0.00    -0.171 A  
HETATM   12  C   UNL     1     -10.823  10.274  70.413  1.00  0.00    -0.320 C  
HETATM   13  N   UNL     1      -9.266   1.485  71.055  1.00  0.00    -0.081 NA 
HETATM   14  C   UNL     1      -9.769   7.598  68.204  1.00  0.00    -0.168 A  
HETATM   15  C   UNL     1      -9.722   5.033  67.800  1.00  0.00    -0.192 A  
HETATM   16  C   UNL     1      -9.934   8.213  66.911  1.00  0.00    -0.273 C  
HETATM   17  C   UNL     1      -9.683   6.228  68.545  1.00  0.00    -0.137 A  
HETATM   18  O   UNL     1     -10.014   7.568  65.870  1.00  0.00     0.249 OA 
HETATM   19  C   UNL     1      -9.610   3.809  68.461  1.00  0.00    -0.174 A  
HETATM   20  C   UNL     1      -9.531   6.163  69.930  1.00  0.00    -0.152 A  
HETATM   21  C   UNL     1      -9.418   4.945  70.611  1.00  0.00    -0.237 A  
HETATM   22  N   UNL     1      -9.520   7.457  70.405  1.00  0.00    -0.165 NA 
HETATM   23  C   UNL     1      -9.351   2.502  70.509  1.00  0.00    -0.139 C  
HETATM   24  C   UNL     1      -9.464   3.766  69.850  1.00  0.00    -0.267 A  
HETATM   25  H   UNL     1      -9.421   7.720  71.386  1.00  0.00     0.000 HD 
BRANCH   9  26
HETATM   26  N   UNL     1      -9.973  13.906  66.638  1.00  0.00    -0.271 NA 
HETATM   27  C   UNL     1     -10.731  15.863  65.470  1.00  0.00    -0.386 C  
HETATM   28  C   UNL     1     -11.145  14.762  66.447  1.00  0.00    -0.340 C  
HETATM   29  C   UNL     1      -9.582  16.710  66.070  1.00  0.00    -0.266 C  
HETATM   30  C   UNL     1      -8.852  14.602  67.288  1.00  0.00    -0.207 C  
HETATM   31  C   UNL     1      -8.415  15.744  66.375  1.00  0.00    -0.313 C  
BRANCH  29  32
HETATM   32  N   UNL     1     -10.020  17.485  67.268  1.00  0.00    -0.301 NA 
HETATM   33  C   UNL     1      -8.890  18.029  68.061  1.00  0.00    -0.275 C  
HETATM   34  C   UNL     1      -8.110  19.128  67.320  1.00  0.00    -0.263 C  
HETATM   35  O   UNL     1      -8.969  20.212  66.937  1.00  0.00    -0.333 OA 
HETATM   36  C   UNL     1     -10.094  19.754  66.176  1.00  0.00    -0.499 C  
HETATM   37  C   UNL     1     -10.867  18.655  66.922  1.00  0.00    -0.186 C  
ENDBRANCH  29  32
ENDBRANCH   9  26
ENDBRANCH   2   3
TORSDOF 3
ENDMDL
MODEL        3
REMARK 921   NORMALIZED FREE ENERGY PREDICTED BY IDOCK:   -7.12 KCAL/MOL
REMARK 922        TOTAL FREE ENERGY PREDICTED BY IDOCK:   -9.28 KCAL/MOL
REMARK 923 INTER-LIGAND FREE ENERGY PREDICTED BY IDOCK:   -8.43 KCAL/MOL
REMARK 924 INTRA-LIGAND FREE ENERGY PREDICTED BY IDOCK:   -0.86 KCAL/MOL
REMARK 927      BINDING AFFINITY PREDICTED BY RF-SCORE:    0.00 PKD
ROOT
HETATM    1  C   UNL     1     -14.012   8.675  71.582  1.00  0.00    -0.459 C  
HETATM    2  C   UNL     1     -12.791   9.505  71.981  1.00  0.00    -0.499 C  
ENDROOT
BRANCH   2   3
HETATM    3  C   UNL     1     -11.928  10.072  70.862  1.00  0.00    -0.453 A  
HETATM    4  C   UNL     1     -12.069  11.432  70.536  1.00  0.00    -0.487 A  
HETATM    5  C   UNL     1     -11.248  12.069  69.601  1.00  0.00    -0.168 A  
HETATM    6  C   UNL     1     -10.259  11.349  68.917  1.00  0.00    -0.184 A  
HETATM    7  C   UNL     1     -10.149   9.980  69.216  1.00  0.00    -0.226 A  
HETATM    8  C   UNL     1      -9.297  12.006  67.905  1.00  0.00    -0.190 C  
HETATM    9  C   UNL     1     -10.934   9.316  70.190  1.00  0.00    -0.246 A  
HETATM   10  C   UNL     1      -7.846  11.879  68.422  1.00  0.00    -0.141 C  
HETATM   11  C   UNL     1      -9.632  13.471  67.752  1.00  0.00    -0.219 A  
HETATM   12  C   UNL     1      -9.429  11.308  66.535  1.00  0.00    -0.213 C  
HETATM   13  N   UNL     1      -9.489  20.210  65.617  1.00  0.00    -0.145 NA 
HETATM   14  C   UNL     1     -10.613  14.163  68.433  1.00  0.00    -0.263 A  
HETATM   15  C   UNL     1     -11.318  16.661  68.348  1.00  0.00    -0.142 A  
HETATM   16  C   UNL     1     -11.474  13.527  69.398  1.00  0.00    -0.282 C  
HETATM   17  C   UNL     1     -10.577  15.512  68.008  1.00  0.00    -0.270 A  
HETATM   18  O   UNL     1     -12.339  14.134  70.023  1.00  0.00    -0.332 OA 
HETATM   19  C   UNL     1     -11.025  17.874  67.724  1.00  0.00    -0.097 A  
HETATM   20  C   UNL     1      -9.564  15.611  67.055  1.00  0.00    -0.223 A  
HETATM   21  C   UNL     1      -9.257  16.818  66.417  1.00  0.00    -0.309 A  
HETATM   22  N   UNL     1      -9.004  14.359  66.916  1.00  0.00    -0.242 NA 
HETATM   23  C   UNL     1      -9.725  19.203  66.138  1.00  0.00    -0.315 C  
HETATM   24  C   UNL     1     -10.009  17.951  66.767  1.00  0.00    -0.339 A  
HETATM   25  H   UNL     1      -8.236  14.127  66.286  1.00  0.00     0.000 HD 
BRANCH   9  26
HETATM   26  N   UNL     1     -10.635   7.999  70.506  1.00  0.00    -0.216 NA 
HETATM   27  C   UNL     1     -11.115   5.718  69.931  1.00  0.00    -0.327 C  
HETATM   28  C   UNL     1     -10.396   6.987  69.476  1.00  0.00    -0.213 C  
HETATM   29  C   UNL     1     -10.526   5.218  71.273  1.00  0.00    -0.204 C  
HETATM   30  C   UNL     1     -10.032   7.654  71.803  1.00  0.00    -0.172 C  
HETATM   31  C   UNL     1     -10.684   6.366  72.296  1.00  0.00    -0.253 C  
BRANCH  29  32
HETATM   32  N   UNL     1      -9.114   4.759  71.132  1.00  0.00    -0.133 NA 
HETATM   33  C   UNL     1      -8.504   4.329  72.415  1.00  0.00    -0.105 C  
HETATM   34  C   UNL     1      -9.133   3.044  72.977  1.00  0.00    -0.090 C  
HETATM   35  O   UNL     1      -9.043   1.962  72.039  1.00  0.00    -0.071 OA 
HETATM   36  C   UNL     1      -9.603   2.314  70.767  1.00  0.00    -0.097 C  
HETATM   37  C   UNL     1      -8.971   3.601  70.213  1.00  0.00    -0.103 C  
ENDBRANCH  29  32
ENDBRANCH   9  26
ENDBRANCH   2   3
TORSDOF 3
ENDMDL
MODEL        4
REMARK 921   NORMALIZED FREE ENERGY PREDICTED BY IDOCK:   -7.10 KCAL/MOL
REMARK 922        TOTAL FREE ENERGY PREDICTED BY IDOCK:   -9.26 KCAL/MOL
REMARK 923 INTER-LIGAND FREE ENERGY PREDICTED BY IDOCK:   -8.31 KCAL/MOL
REMARK 924 INTRA-LIGAND FREE ENERGY PREDICTED BY IDOCK:   -0.95 KCAL/MOL
REMARK 927      BINDING AFFINITY PREDICTED BY RF-SCORE:    0.00 PKD
ROOT
HETATM    1  C   UNL     1     -13.264  11.176  71.960  1.00  0.00    -0.428 C  
HETATM    2  C   UNL     1     -12.984  10.572  70.582  1.00  0.00    -0.362 C  
ENDROOT
BRANCH   2   3
HETATM    3  C   UNL     1     -11.707  11.000  69.872  1.00  0.00    -0.424 A  
HETATM    4  C   UNL     1     -11.626  12.314  69.381  1.00  0.00    -0.378 A  
HETATM    5  C   UNL     1     -10.459  12.832  68.813  1.00  0.00    -0.179 A  
HETATM    6  C   UNL     1      -9.317  12.030  68.678  1.00  0.00    -0.056 A  
HETATM    7  C   UNL     1      -9.416  10.704  69.133  1.00  0.00    -0.185 A  
HETATM    8  C   UNL     1      -7.989  12.558  68.097  1.00  0.00    -0.157 C  
HETATM    9  C   UNL     1     -10.568  10.162  69.754  1.00  0.00    -0.260 A  
HETATM   10  C   UNL     1      -6.889  12.479  69.180  1.00  0.00    -0.062 C  
HETATM   11  C   UNL     1      -8.150  13.998  67.671  1.00  0.00    -0.174 A  
HETATM   12  C   UNL     1      -7.583  11.708  66.874  1.00  0.00    -0.138 C  
HETATM   13  N   UNL     1      -6.767  20.445  65.119  1.00  0.00    -0.297 NA 
HETATM   14  C   UNL     1      -9.284  14.772  67.809  1.00  0.00    -0.194 A  
HETATM   15  C   UNL     1      -9.751  17.250  67.186  1.00  0.00    -0.259 A  
HETATM   16  C   UNL     1     -10.500  14.259  68.388  1.00  0.00    -0.249 C  
HETATM   17  C   UNL     1      -9.002  16.063  67.303  1.00  0.00    -0.211 A  
HETATM   18  O   UNL     1     -11.510  14.940  68.532  1.00  0.00    -0.286 OA 
HETATM   19  C   UNL     1      -9.160  18.381  66.621  1.00  0.00    -0.301 A  
HETATM   20  C   UNL     1      -7.682  16.043  66.852  1.00  0.00    -0.244 A  
HETATM   21  C   UNL     1      -7.073  17.166  66.281  1.00  0.00    -0.280 A  
HETATM   22  N   UNL     1      -7.184  14.779  67.086  1.00  0.00    -0.328 NA 
HETATM   23  C   UNL     1      -7.251  19.507  65.593  1.00  0.00    -0.262 C  
HETATM   24  C   UNL     1      -7.838  18.338  66.170  1.00  0.00    -0.239 A  
HETATM   25  H   UNL     1      -6.240  14.469  66.859  1.00  0.00     0.000 HD 
BRANCH   9  26
HETATM   26  N   UNL     1     -10.500   8.889  70.298  1.00  0.00    -0.202 NA 
HETATM   27  C   UNL     1     -11.104   6.595  69.925  1.00  0.00    -0.403 C  
HETATM   28  C   UNL     1     -10.161   7.716  69.490  1.00  0.00    -0.209 C  
HETATM   29  C   UNL     1     -10.883   6.256  71.420  1.00  0.00    -0.261 C  
HETATM   30  C   UNL     1     -10.237   8.694  71.731  1.00  0.00    -0.308 C  
HETATM   31  C   UNL     1     -11.126   7.554  72.222  1.00  0.00    -0.319 C  
BRANCH  29  32
HETATM   32  N   UNL     1      -9.536   5.664  71.669  1.00  0.00    -0.153 NA 
HETATM   33  C   UNL     1      -9.231   5.485  73.110  1.00  0.00    -0.132 C  
HETATM   34  C   UNL     1     -10.107   4.414  73.781  1.00  0.00    -0.155 C  
HETATM   35  O   UNL     1      -9.980   3.146  73.122  1.00  0.00    -0.115 OA 
HETATM   36  C   UNL     1     -10.249   3.248  71.718  1.00  0.00     0.050 C  
HETATM   37  C   UNL     1      -9.371   4.322  71.055  1.00  0.00    -0.152 C  
ENDBRANCH  29  32
ENDBRANCH   9  26
ENDBRANCH   2   3
TORSDOF 3
ENDMDL
MODEL        5
REMARK 921   NORMALIZED FREE ENERGY PREDICTED BY IDOCK:   -6.96 KCAL/MOL
REMARK 922        TOTAL FREE ENERGY PREDICTED BY IDOCK:   -9.10 KCAL/MOL
REMARK 923 INTER-LIGAND FREE ENERGY PREDICTED BY IDOCK:   -8.15 KCAL/MOL
REMARK 924 INTRA-LIGAND FREE ENERGY PREDICTED BY IDOCK:   -0.96 KCAL/MOL
REMARK 927      BINDING AFFINITY PREDICTED BY RF-SCORE:    0.00 PKD
ROOT
HETATM    1  C   UNL     1     -12.512  11.383  70.945  1.00  0.00    -0.478 C  
HETATM    2  C   UNL     1     -11.797  12.359  70.008  1.00  0.00    -0.363 C  
ENDROOT
BRANCH   2   3
HETATM    3  C   UNL     1     -10.880  11.771  68.945  1.00  0.00    -0.265 A  
HETATM    4  C   UNL     1     -10.886  10.378  68.756  1.00  0.00    -0.269 A  
HETATM    5  C   UNL     1     -10.162   9.756  67.734  1.00  0.00    -0.254 A  
HETATM    6  C   UNL     1      -9.361  10.513  66.868  1.00  0.00    -0.181 A  
HETATM    7  C   UNL     1      -9.326  11.901  67.087  1.00  0.00    -0.180 A  
HETATM    8  C   UNL     1      -8.573   9.888  65.699  1.00  0.00    -0.157 C  
HETATM    9  C   UNL     1     -10.081  12.566  68.083  1.00  0.00    -0.225 A  
HETATM   10  C   UNL     1      -9.096  10.463  64.363  1.00  0.00    -0.267 C  
HETATM   11  C   UNL     1      -8.765   8.389  65.691  1.00  0.00    -0.172 A  
HETATM   12  C   UNL     1      -7.071  10.207  65.855  1.00  0.00    -0.121 C  
HETATM   13  N   UNL     1      -8.323   1.567  63.888  1.00  0.00    -0.072 NA 
HETATM   14  C   UNL     1      -9.557   7.660  66.555  1.00  0.00    -0.254 A  
HETATM   15  C   UNL     1     -10.050   5.114  66.686  1.00  0.00    -0.267 A  
HETATM   16  C   UNL     1     -10.309   8.279  67.617  1.00  0.00    -0.248 C  
HETATM   17  C   UNL     1      -9.471   6.297  66.187  1.00  0.00    -0.092 A  
HETATM   18  O   UNL     1     -11.030   7.645  68.381  1.00  0.00    -0.018 OA 
HETATM   19  C   UNL     1      -9.748   3.894  66.080  1.00  0.00    -0.173 A  
HETATM   20  C   UNL     1      -8.607   6.224  65.094  1.00  0.00    -0.023 A  
HETATM   21  C   UNL     1      -8.290   5.010  64.475  1.00  0.00    -0.135 A  
HETATM   22  N   UNL     1      -8.191   7.507  64.811  1.00  0.00    -0.272 NA 
HETATM   23  C   UNL     1      -8.577   2.582  64.384  1.00  0.00    -0.092 C  
HETATM   24  C   UNL     1      -8.875   3.842  64.990  1.00  0.00    -0.122 A  
HETATM   25  H   UNL     1      -7.552   7.763  64.059  1.00  0.00     0.000 HD 
BRANCH   9  26
HETATM   26  N   UNL     1     -10.082  13.953  68.108  1.00  0.00    -0.243 NA 
HETATM   27  C   UNL     1      -9.636  15.859  69.499  1.00  0.00    -0.239 C  
HETATM   28  C   UNL     1      -8.991  14.720  68.711  1.00  0.00    -0.179 C  
HETATM   29  C   UNL     1     -10.436  16.784  68.549  1.00  0.00    -0.335 C  
HETATM   30  C   UNL     1     -10.849  14.724  67.119  1.00  0.00    -0.311 C  
HETATM   31  C   UNL     1     -11.492  15.906  67.840  1.00  0.00    -0.187 C  
BRANCH  29  32
HETATM   32  N   UNL     1      -9.550  17.510  67.593  1.00  0.00    -0.262 NA 
HETATM   33  C   UNL     1     -10.297  18.323  66.601  1.00  0.00    -0.381 C  
HETATM   34  C   UNL     1     -11.024  19.522  67.233  1.00  0.00    -0.341 C  
HETATM   35  O   UNL     1     -10.112  20.377  67.937  1.00  0.00    -0.383 OA 
HETATM   36  C   UNL     1      -9.344  19.651  68.906  1.00  0.00    -0.281 C  
HETATM   37  C   UNL     1      -8.622  18.454  68.267  1.00  0.00    -0.303 C  
ENDBRANCH  29  32
ENDBRANCH   9  26
ENDBRANCH   2   3
TORSDOF 3
ENDMDL
MODEL        6
REMARK 921   NORMALIZED FREE ENERGY PREDICTED BY IDOCK:   -6.83 KCAL/MOL
REMARK 922        TOTAL FREE ENERGY PREDICTED BY IDOCK:   -8.94 KCAL/MOL
REMARK 923 INTER-LIGAND FREE ENERGY PREDICTED BY IDOCK:   -8.42 KCAL/MOL
REMARK 924 INTRA-LIGAND FREE ENERGY PREDICTED BY IDOCK:   -0.52 KCAL/MOL
REMARK 927      BINDING AFFINITY PREDICTED BY RF-SCORE:    0.00 PKD
ROOT
HETATM    1  C   UNL     1     -13.801   8.986  72.273  1.00  0.00    -0.547 C  
HETATM    2  C   UNL     1     -12.311   8.658  72.173  1.00  0.00    -0.452 C  
ENDROOT
BRANCH   2   3
HETATM    3  C   UNL     1     -11.531   9.264  71.014  1.00  0.00    -0.387 A  
HETATM    4  C   UNL     1     -11.745  10.618  70.704  1.00  0.00    -0.454 A  
HETATM    5  C   UNL     1     -11.001  11.291  69.731  1.00  0.00    -0.170 A  
HETATM    6  C   UNL     1     -10.020  10.616  68.993  1.00  0.00    -0.226 A  
HETATM    7  C   UNL     1      -9.838   9.251  69.278  1.00  0.00    -0.172 A  
HETATM    8  C   UNL     1      -9.139  11.315  67.936  1.00  0.00    -0.150 C  
HETATM    9  C   UNL     1     -10.544   8.552  70.287  1.00  0.00    -0.226 A  
HETATM   10  C   UNL     1      -7.659  11.247  68.376  1.00  0.00    -0.120 C  
HETATM   11  C   UNL     1      -9.542  12.766  67.809  1.00  0.00    -0.204 A  
HETATM   12  C   UNL     1      -9.314  10.617  66.570  1.00  0.00    -0.192 C  
HETATM   13  N   UNL     1      -9.787  19.512  65.708  1.00  0.00    -0.407 NA 
HETATM   14  C   UNL     1     -10.514  13.414  68.544  1.00  0.00    -0.260 A  
HETATM   15  C   UNL     1     -11.324  15.881  68.510  1.00  0.00    -0.374 A  
HETATM   16  C   UNL     1     -11.297  12.740  69.549  1.00  0.00    -0.154 C  
HETATM   17  C   UNL     1     -10.556  14.765  68.125  1.00  0.00    -0.241 A  
HETATM   18  O   UNL     1     -12.151  13.308  70.221  1.00  0.00    -0.343 OA 
HETATM   19  C   UNL     1     -11.114  17.108  67.878  1.00  0.00    -0.087 A  
HETATM   20  C   UNL     1      -9.598  14.909  67.121  1.00  0.00    -0.225 A  
HETATM   21  C   UNL     1      -9.374  16.130  66.476  1.00  0.00    -0.296 A  
HETATM   22  N   UNL     1      -8.995  13.682  66.947  1.00  0.00    -0.315 NA 
HETATM   23  C   UNL     1      -9.954  18.494  66.235  1.00  0.00    -0.365 C  
HETATM   24  C   UNL     1     -10.153  17.230  66.871  1.00  0.00    -0.304 A  
HETATM   25  H   UNL     1      -8.253  13.484  66.276  1.00  0.00     0.000 HD 
BRANCH   9  26
HETATM   26  N   UNL     1     -10.174   7.247  70.580  1.00  0.00    -0.195 NA 
HETATM   27  C   UNL     1      -8.296   5.841  71.090  1.00  0.00    -0.123 C  
HETATM   28  C   UNL     1      -9.215   6.931  71.640  1.00  0.00    -0.146 C  
HETATM   29  C   UNL     1      -9.113   4.568  70.754  1.00  0.00    -0.127 C  
HETATM   30  C   UNL     1     -11.061   6.121  70.251  1.00  0.00    -0.366 C  
HETATM   31  C   UNL     1     -10.195   4.978  69.729  1.00  0.00    -0.336 C  
BRANCH  29  32
HETATM   32  N   UNL     1      -9.684   3.928  71.974  1.00  0.00    -0.155 NA 
HETATM   33  C   UNL     1     -10.154   2.539  71.744  1.00  0.00    -0.052 C  
HETATM   34  C   UNL     1      -9.006   1.557  71.457  1.00  0.00    -0.062 C  
HETATM   35  O   UNL     1      -8.045   1.548  72.521  1.00  0.00    -0.044 OA 
HETATM   36  C   UNL     1      -7.557   2.865  72.808  1.00  0.00    -0.050 C  
HETATM   37  C   UNL     1      -8.710   3.841  73.092  1.00  0.00    -0.090 C  
ENDBRANCH  29  32
ENDBRANCH   9  26
ENDBRANCH   2   3
TORSDOF 3
ENDMDL
MODEL        7
REMARK 921   NORMALIZED FREE ENERGY PREDICTED BY IDOCK:   -6.71 KCAL/MOL
REMARK 922        TOTAL FREE ENERGY PREDICTED BY IDOCK:   -8.81 KCAL/MOL
REMARK 923 INTER-LIGAND FREE ENERGY PREDICTED BY IDOCK:   -7.76 KCAL/MOL
REMARK 924 INTRA-LIGAND FREE ENERGY PREDICTED BY IDOCK:   -1.05 KCAL/MOL
REMARK 927      BINDING AFFINITY PREDICTED BY RF-SCORE:    0.00 PKD
ROOT
HETATM    1  C   UNL     1     -12.337  12.726  64.616  1.00  0.00    -0.524 C  
HETATM    2  C   UNL     1     -12.284  12.778  66.143  1.00  0.00    -0.340 C  
ENDROOT
BRANCH   2   3
HETATM    3  C   UNL     1     -11.073  12.161  66.828  1.00  0.00    -0.349 A  
HETATM    4  C   UNL     1     -10.952  10.761  66.835  1.00  0.00    -0.255 A  
HETATM    5  C   UNL     1      -9.826  10.106  67.341  1.00  0.00    -0.225 A  
HETATM    6  C   UNL     1      -8.771  10.839  67.903  1.00  0.00    -0.129 A  
HETATM    7  C   UNL     1      -8.915  12.237  67.932  1.00  0.00    -0.186 A  
HETATM    8  C   UNL     1      -7.486  10.175  68.440  1.00  0.00    -0.086 C  
HETATM    9  C   UNL     1     -10.022  12.932  67.388  1.00  0.00    -0.217 A  
HETATM   10  C   UNL     1      -6.274  10.665  67.616  1.00  0.00    -0.055 C  
HETATM   11  C   UNL     1      -7.588   8.674  68.308  1.00  0.00    -0.097 A  
HETATM   12  C   UNL     1      -7.293  10.544  69.927  1.00  0.00    -0.116 C  
HETATM   13  N   UNL     1      -6.041   1.781  68.608  1.00  0.00    -0.024 NA 
HETATM   14  C   UNL     1      -8.637   7.969  67.754  1.00  0.00    -0.128 A  
HETATM   15  C   UNL     1      -8.989   5.420  67.399  1.00  0.00    -0.108 A  
HETATM   16  C   UNL     1      -9.810   8.621  67.229  1.00  0.00    -0.197 C  
HETATM   17  C   UNL     1      -8.321   6.591  67.810  1.00  0.00    -0.119 A  
HETATM   18  O   UNL     1     -10.742   8.008  66.718  1.00  0.00    -0.289 OA 
HETATM   19  C   UNL     1      -8.387   4.179  67.609  1.00  0.00    -0.098 A  
HETATM   20  C   UNL     1      -7.070   6.485  68.416  1.00  0.00    -0.083 A  
HETATM   21  C   UNL     1      -6.451   5.250  68.636  1.00  0.00    -0.040 A  
HETATM   22  N   UNL     1      -6.644   7.763  68.710  1.00  0.00    -0.048 NA 
HETATM   23  C   UNL     1      -6.534   2.814  68.430  1.00  0.00    -0.029 C  
HETATM   24  C   UNL     1      -7.134   4.094  68.223  1.00  0.00    -0.055 A  
HETATM   25  H   UNL     1      -5.759   7.997  69.159  1.00  0.00     0.000 HD 
BRANCH   9  26
HETATM   26  N   UNL     1      -9.984  14.317  67.339  1.00  0.00    -0.240 NA 
HETATM   27  C   UNL     1     -11.023  16.308  68.189  1.00  0.00    -0.343 C  
HETATM   28  C   UNL     1     -10.102  15.141  68.543  1.00  0.00    -0.228 C  
HETATM   29  C   UNL     1     -10.399  17.161  67.057  1.00  0.00    -0.308 C  
HETATM   30  C   UNL     1      -9.318  15.015  66.229  1.00  0.00    -0.307 C  
HETATM   31  C   UNL     1     -10.173  16.221  65.851  1.00  0.00    -0.384 C  
BRANCH  29  32
HETATM   32  N   UNL     1      -9.151  17.851  67.495  1.00  0.00    -0.244 NA 
HETATM   33  C   UNL     1      -8.556  18.713  66.443  1.00  0.00    -0.271 C  
HETATM   34  C   UNL     1      -9.421  19.940  66.111  1.00  0.00    -0.377 C  
HETATM   35  O   UNL     1      -9.666  20.739  67.278  1.00  0.00    -0.479 OA 
HETATM   36  C   UNL     1     -10.231  19.964  68.343  1.00  0.00    -0.433 C  
HETATM   37  C   UNL     1      -9.361  18.738  68.667  1.00  0.00    -0.351 C  
ENDBRANCH  29  32
ENDBRANCH   9  26
ENDBRANCH   2   3
TORSDOF 3
ENDMDL
MODEL        8
REMARK 921   NORMALIZED FREE ENERGY PREDICTED BY IDOCK:   -6.65 KCAL/MOL
REMARK 922        TOTAL FREE ENERGY PREDICTED BY IDOCK:   -8.74 KCAL/MOL
REMARK 923 INTER-LIGAND FREE ENERGY PREDICTED BY IDOCK:   -8.37 KCAL/MOL
REMARK 924 INTRA-LIGAND FREE ENERGY PREDICTED BY IDOCK:   -0.37 KCAL/MOL
REMARK 927      BINDING AFFINITY PREDICTED BY RF-SCORE:    0.00 PKD
ROOT
HETATM    1  C   UNL     1     -13.443   9.112  72.243  1.00  0.00    -0.546 C  
HETATM    2  C   UNL     1     -11.962   8.844  71.974  1.00  0.00    -0.439 C  
ENDROOT
BRANCH   2   3
HETATM    3  C   UNL     1     -11.346   9.469  70.730  1.00  0.00    -0.387 A  
HETATM    4  C   UNL     1     -11.582  10.833  70.483  1.00  0.00    -0.425 A  
HETATM    5  C   UNL     1     -10.974  11.521  69.430  1.00  0.00    -0.233 A  
HETATM    6  C   UNL     1     -10.118  10.853  68.544  1.00  0.00    -0.193 A  
HETATM    7  C   UNL     1      -9.918   9.480  68.770  1.00  0.00    -0.185 A  
HETATM    8  C   UNL     1      -9.387  11.568  67.389  1.00  0.00    -0.168 C  
HETATM    9  C   UNL     1     -10.483   8.764  69.853  1.00  0.00    -0.221 A  
HETATM   10  C   UNL     1      -7.860  11.472  67.612  1.00  0.00    -0.125 C  
HETATM   11  C   UNL     1      -9.782  13.026  67.354  1.00  0.00    -0.213 A  
HETATM   12  C   UNL     1      -9.764  10.906  66.047  1.00  0.00    -0.268 C  
HETATM   13  N   UNL     1     -10.224  19.824  65.463  1.00  0.00    -0.390 NA 
HETATM   14  C   UNL     1     -10.629  13.667  68.234  1.00  0.00    -0.261 A  
HETATM   15  C   UNL     1     -11.399  16.143  68.371  1.00  0.00    -0.345 A  
HETATM   16  C   UNL     1     -11.271  12.977  69.325  1.00  0.00    -0.199 C  
HETATM   17  C   UNL     1     -10.710  15.028  67.856  1.00  0.00    -0.268 A  
HETATM   18  O   UNL     1     -12.013  13.538  70.125  1.00  0.00    -0.319 OA 
HETATM   19  C   UNL     1     -11.263  17.382  67.744  1.00  0.00     0.167 A  
HETATM   20  C   UNL     1      -9.903  15.186  66.730  1.00  0.00    -0.241 A  
HETATM   21  C   UNL     1      -9.756  16.420  66.086  1.00  0.00    -0.355 A  
HETATM   22  N   UNL     1      -9.350  13.956  66.443  1.00  0.00    -0.431 NA 
HETATM   23  C   UNL     1     -10.328  18.796  65.984  1.00  0.00    -0.422 C  
HETATM   24  C   UNL     1     -10.454  17.518  66.613  1.00  0.00    -0.270 A  
HETATM   25  H   UNL     1      -8.713  13.767  65.669  1.00  0.00     0.000 HD 
BRANCH   9  26
HETATM   26  N   UNL     1     -10.095   7.449  70.061  1.00  0.00    -0.189 NA 
HETATM   27  C   UNL     1      -8.185   6.006  70.251  1.00  0.00    -0.119 C  
HETATM   28  C   UNL     1      -8.992   7.096  70.956  1.00  0.00    -0.150 C  
HETATM   29  C   UNL     1      -9.064   4.752  70.019  1.00  0.00    -0.103 C  
HETATM   30  C   UNL     1     -11.039   6.341  69.848  1.00  0.00    -0.401 C  
HETATM   31  C   UNL     1     -10.281   5.199  69.178  1.00  0.00    -0.259 C  
BRANCH  29  32
HETATM   32  N   UNL     1      -9.454   4.093  71.298  1.00  0.00    -0.148 NA 
HETATM   33  C   UNL     1      -9.822   2.664  71.135  1.00  0.00    -0.022 C  
HETATM   34  C   UNL     1      -8.628   1.777  70.747  1.00  0.00    -0.052 C  
HETATM   35  O   UNL     1      -7.569   1.873  71.710  1.00  0.00    -0.039 OA 
HETATM   36  C   UNL     1      -7.171   3.233  71.928  1.00  0.00    -0.046 C  
HETATM   37  C   UNL     1      -8.371   4.113  72.314  1.00  0.00    -0.102 C  
ENDBRANCH  29  32
ENDBRANCH   9  26
ENDBRANCH   2   3
TORSDOF 3
ENDMDL
MODEL        9
REMARK 921   NORMALIZED FREE ENERGY PREDICTED BY IDOCK:   -6.62 KCAL/MOL
REMARK 922        TOTAL FREE ENERGY PREDICTED BY IDOCK:   -8.70 KCAL/MOL
REMARK 923 INTER-LIGAND FREE ENERGY PREDICTED BY IDOCK:   -7.89 KCAL/MOL
REMARK 924 INTRA-LIGAND FREE ENERGY PREDICTED BY IDOCK:   -0.82 KCAL/MOL
REMARK 927      BINDING AFFINITY PREDICTED BY RF-SCORE:    0.00 PKD
ROOT
HETATM    1  C   UNL     1     -13.903   9.105  72.328  1.00  0.00    -0.527 C  
HETATM    2  C   UNL     1     -12.452   8.657  72.147  1.00  0.00    -0.453 C  
ENDROOT
BRANCH   2   3
HETATM    3  C   UNL     1     -11.657   9.283  71.009  1.00  0.00    -0.380 A  
HETATM    4  C   UNL     1     -11.876  10.639  70.711  1.00  0.00    -0.459 A  
HETATM    5  C   UNL     1     -11.121  11.330  69.760  1.00  0.00    -0.238 A  
HETATM    6  C   UNL     1     -10.122  10.671  69.031  1.00  0.00    -0.226 A  
HETATM    7  C   UNL     1      -9.934   9.305  69.303  1.00  0.00    -0.180 A  
HETATM    8  C   UNL     1      -9.229  11.390  67.998  1.00  0.00    -0.171 C  
HETATM    9  C   UNL     1     -10.652   8.587  70.291  1.00  0.00    -0.226 A  
HETATM   10  C   UNL     1      -7.756  11.328  68.463  1.00  0.00    -0.131 C  
HETATM   11  C   UNL     1      -9.641  12.839  67.881  1.00  0.00    -0.211 A  
HETATM   12  C   UNL     1      -9.374  10.707  66.621  1.00  0.00    -0.189 C  
HETATM   13  N   UNL     1      -9.903  19.608  65.857  1.00  0.00    -0.416 NA 
HETATM   14  C   UNL     1     -10.630  13.470  68.606  1.00  0.00    -0.259 A  
HETATM   15  C   UNL     1     -11.459  15.931  68.587  1.00  0.00    -0.391 A  
HETATM   16  C   UNL     1     -11.425  12.778  69.590  1.00  0.00    -0.185 C  
HETATM   17  C   UNL     1     -10.675  14.826  68.204  1.00  0.00    -0.247 A  
HETATM   18  O   UNL     1     -12.296  13.331  70.254  1.00  0.00    -0.315 OA 
HETATM   19  C   UNL     1     -11.248  17.167  67.974  1.00  0.00     0.037 A  
HETATM   20  C   UNL     1      -9.702  14.989  67.218  1.00  0.00    -0.220 A  
HETATM   21  C   UNL     1      -9.477  16.220  66.591  1.00  0.00    -0.269 A  
HETATM   22  N   UNL     1      -9.086  13.769  67.039  1.00  0.00    -0.238 NA 
HETATM   23  C   UNL     1     -10.070  18.582  66.368  1.00  0.00    -0.405 C  
HETATM   24  C   UNL     1     -10.271  17.309  66.985  1.00  0.00    -0.320 A  
HETATM   25  H   UNL     1      -8.331  13.585  66.380  1.00  0.00     0.000 HD 
BRANCH   9  26
HETATM   26  N   UNL     1     -10.277   7.283  70.575  1.00  0.00    -0.196 NA 
HETATM   27  C   UNL     1     -11.130   5.099  71.096  1.00  0.00     0.186 C  
HETATM   28  C   UNL     1     -10.960   6.131  69.982  1.00  0.00    -0.372 C  
HETATM   29  C   UNL     1      -9.746   4.645  71.624  1.00  0.00    -0.172 C  
HETATM   30  C   UNL     1      -8.913   6.971  71.027  1.00  0.00    -0.151 C  
HETATM   31  C   UNL     1      -9.011   5.911  72.120  1.00  0.00    -0.143 C  
BRANCH  29  32
HETATM   32  N   UNL     1      -8.971   3.891  70.596  1.00  0.00    -0.085 NA 
HETATM   33  C   UNL     1      -7.540   3.720  70.948  1.00  0.00    -0.044 C  
HETATM   34  C   UNL     1      -7.326   2.793  72.156  1.00  0.00    -0.043 C  
HETATM   35  O   UNL     1      -7.904   1.500  71.934  1.00  0.00    -0.040 OA 
HETATM   36  C   UNL     1      -9.289   1.591  71.575  1.00  0.00    -0.099 C  
HETATM   37  C   UNL     1      -9.495   2.520  70.367  1.00  0.00    -0.108 C  
ENDBRANCH  29  32
ENDBRANCH   9  26
ENDBRANCH   2   3
TORSDOF 3
ENDMDL
MODEL       10
REMARK 921   NORMALIZED FREE ENERGY PREDICTED BY IDOCK:   -6.53 KCAL/MOL
REMARK 922        TOTAL FREE ENERGY PREDICTED BY IDOCK:   -8.59 KCAL/MOL
REMARK 923 INTER-LIGAND FREE ENERGY PREDICTED BY IDOCK:   -7.66 KCAL/MOL
REMARK 924 INTRA-LIGAND FREE ENERGY PREDICTED BY IDOCK:   -0.93 KCAL/MOL
REMARK 927      BINDING AFFINITY PREDICTED BY RF-SCORE:    0.00 PKD
ROOT
HETATM    1  C   UNL     1     -12.423  14.070  71.579  1.00  0.00    -0.407 C  
HETATM    2  C   UNL     1     -12.586  13.410  70.209  1.00  0.00    -0.187 C  
ENDROOT
BRANCH   2   3
HETATM    3  C   UNL     1     -11.420  12.586  69.680  1.00  0.00    -0.255 A  
HETATM    4  C   UNL     1     -11.438  11.196  69.889  1.00  0.00    -0.386 A  
HETATM    5  C   UNL     1     -10.471  10.344  69.348  1.00  0.00    -0.261 A  
HETATM    6  C   UNL     1      -9.409  10.861  68.594  1.00  0.00    -0.188 A  
HETATM    7  C   UNL     1      -9.372  12.256  68.424  1.00  0.00    -0.162 A  
HETATM    8  C   UNL     1      -8.336   9.967  67.939  1.00  0.00    -0.114 C  
HETATM    9  C   UNL     1     -10.360  13.141  68.919  1.00  0.00    -0.048 A  
HETATM   10  C   UNL     1      -8.401  10.130  66.404  1.00  0.00    -0.125 C  
HETATM   11  C   UNL     1      -8.591   8.518  68.285  1.00  0.00    -0.139 A  
HETATM   12  C   UNL     1      -6.937  10.374  68.452  1.00  0.00    -0.069 C  
HETATM   13  N   UNL     1      -7.964   1.486  68.649  1.00  0.00    -0.049 NA 
HETATM   14  C   UNL     1      -9.642   8.027  69.032  1.00  0.00    -0.156 A  
HETATM   15  C   UNL     1     -10.278   5.600  69.701  1.00  0.00    -0.321 A  
HETATM   16  C   UNL     1     -10.648   8.887  69.603  1.00  0.00    -0.226 C  
HETATM   17  C   UNL     1      -9.517   6.620  69.098  1.00  0.00    -0.136 A  
HETATM   18  O   UNL     1     -11.598   8.462  70.254  1.00  0.00    -0.148 OA 
HETATM   19  C   UNL     1      -9.868   4.272  69.576  1.00  0.00    -0.224 A  
HETATM   20  C   UNL     1      -8.367   6.280  68.384  1.00  0.00    -0.115 A  
HETATM   21  C   UNL     1      -7.939   4.955  68.249  1.00  0.00    -0.086 A  
HETATM   22  N   UNL     1      -7.822   7.450  67.900  1.00  0.00    -0.116 NA 
HETATM   23  C   UNL     1      -8.305   2.588  68.745  1.00  0.00    -0.063 C  
HETATM   24  C   UNL     1      -8.710   3.954  68.862  1.00  0.00    -0.132 A  
HETATM   25  H   UNL     1      -6.973   7.512  67.338  1.00  0.00     0.000 HD 
BRANCH   9  26
HETATM   26  N   UNL     1     -10.299  14.480  68.561  1.00  0.00    -0.236 NA 
HETATM   27  C   UNL     1     -10.834  16.702  69.298  1.00  0.00    -0.310 C  
HETATM   28  C   UNL     1      -9.889  15.519  69.506  1.00  0.00    -0.284 C  
HETATM   29  C   UNL     1     -10.698  17.251  67.856  1.00  0.00    -0.351 C  
HETATM   30  C   UNL     1     -10.121  14.877  67.156  1.00  0.00    -0.240 C  
HETATM   31  C   UNL     1     -11.015  16.085  66.893  1.00  0.00    -0.124 C  
BRANCH  29  32
HETATM   32  N   UNL     1      -9.358  17.858  67.609  1.00  0.00    -0.256 NA 
HETATM   33  C   UNL     1      -9.219  18.443  66.253  1.00  0.00    -0.207 C  
HETATM   34  C   UNL     1     -10.102  19.684  66.040  1.00  0.00    -0.461 C  
HETATM   35  O   UNL     1      -9.819  20.701  67.012  1.00  0.00    -0.450 OA 
HETATM   36  C   UNL     1      -9.922  20.199  68.351  1.00  0.00    -0.282 C  
HETATM   37  C   UNL     1      -9.038  18.958  68.555  1.00  0.00    -0.352 C  
ENDBRANCH  29  32
ENDBRANCH   9  26
ENDBRANCH   2   3
TORSDOF 3
ENDMDL
MODEL       11
REMARK 921   NORMALIZED FREE ENERGY PREDICTED BY IDOCK:   -6.51 KCAL/MOL
REMARK 922        TOTAL FREE ENERGY PREDICTED BY IDOCK:   -8.57 KCAL/MOL
REMARK 923 INTER-LIGAND FREE ENERGY PREDICTED BY IDOCK:   -8.42 KCAL/MOL
REMARK 924 INTRA-LIGAND FREE ENERGY PREDICTED BY IDOCK:   -0.15 KCAL/MOL
REMARK 927      BINDING AFFINITY PREDICTED BY RF-SCORE:    0.00 PKD
ROOT
HETATM    1  C   UNL     1     -12.396  14.766  71.478  1.00  0.00    -0.404 C  
HETATM    2  C   UNL     1     -12.610  14.144  70.097  1.00  0.00    -0.325 C  
ENDROOT
BRANCH   2   3
HETATM    3  C   UNL     1     -11.564  13.156  69.600  1.00  0.00    -0.321 A  
HETATM    4  C   UNL     1     -11.665  11.815  70.011  1.00  0.00    -0.386 A  
HETATM    5  C   UNL     1     -10.820  10.815  69.523  1.00  0.00    -0.288 A  
HETATM    6  C   UNL     1      -9.798  11.128  68.616  1.00  0.00    -0.207 A  
HETATM    7  C   UNL     1      -9.674  12.476  68.240  1.00  0.00    -0.220 A  
HETATM    8  C   UNL     1      -8.861  10.061  68.012  1.00  0.00    -0.125 C  
HETATM    9  C   UNL     1     -10.542  13.505  68.681  1.00  0.00    -0.244 A  
HETATM   10  C   UNL     1      -9.059  10.014  66.480  1.00  0.00    -0.172 C  
HETATM   11  C   UNL     1      -9.189   8.703  68.587  1.00  0.00    -0.138 A  
HETATM   12  C   UNL     1      -7.394  10.412  68.342  1.00  0.00    -0.085 C  
HETATM   13  N   UNL     1      -9.054   1.762  69.925  1.00  0.00    -0.082 NA 
HETATM   14  C   UNL     1     -10.198   8.414  69.482  1.00  0.00    -0.207 A  
HETATM   15  C   UNL     1     -10.947   6.168  70.551  1.00  0.00    -0.384 A  
HETATM   16  C   UNL     1     -11.080   9.429  70.002  1.00  0.00    -0.221 C  
HETATM   17  C   UNL     1     -10.173   7.024  69.743  1.00  0.00    -0.213 A  
HETATM   18  O   UNL     1     -11.992   9.184  70.785  1.00  0.00    -0.272 OA 
HETATM   19  C   UNL     1     -10.650   4.806  70.588  1.00  0.00     0.046 A  
HETATM   20  C   UNL     1      -9.124   6.489  68.994  1.00  0.00    -0.132 A  
HETATM   21  C   UNL     1      -8.810   5.126  69.020  1.00  0.00    -0.108 A  
HETATM   22  N   UNL     1      -8.541   7.528  68.300  1.00  0.00    -0.124 NA 
HETATM   23  C   UNL     1      -9.302   2.892  69.887  1.00  0.00    -0.143 C  
HETATM   24  C   UNL     1      -9.592   4.291  69.835  1.00  0.00    -0.279 A  
HETATM   25  H   UNL     1      -7.747   7.437  67.667  1.00  0.00     0.000 HD 
BRANCH   9  26
HETATM   26  N   UNL     1     -10.416  14.770  68.126  1.00  0.00    -0.237 NA 
HETATM   27  C   UNL     1     -10.478  15.986  66.056  1.00  0.00    -0.356 C  
HETATM   28  C   UNL     1     -11.332  15.262  67.096  1.00  0.00    -0.247 C  
HETATM   29  C   UNL     1      -9.754  17.193  66.703  1.00  0.00    -0.276 C  
HETATM   30  C   UNL     1      -9.745  15.852  68.861  1.00  0.00    -0.230 C  
HETATM   31  C   UNL     1      -8.899  16.642  67.866  1.00  0.00    -0.205 C  
BRANCH  29  32
HETATM   32  N   UNL     1     -10.708  18.254  67.137  1.00  0.00    -0.356 NA 
HETATM   33  C   UNL     1     -10.276  18.967  68.365  1.00  0.00    -0.373 C  
HETATM   34  C   UNL     1      -9.020  19.828  68.149  1.00  0.00    -0.305 C  
HETATM   35  O   UNL     1      -9.218  20.790  67.104  1.00  0.00    -0.338 OA 
HETATM   36  C   UNL     1      -9.652  20.170  65.886  1.00  0.00    -0.197 C  
HETATM   37  C   UNL     1     -10.906  19.310  66.111  1.00  0.00    -0.263 C  
ENDBRANCH  29  32
ENDBRANCH   9  26
ENDBRANCH   2   3
TORSDOF 3
ENDMDL
MODEL       12
REMARK 921   NORMALIZED FREE ENERGY PREDICTED BY IDOCK:   -6.43 KCAL/MOL
REMARK 922        TOTAL FREE ENERGY PREDICTED BY IDOCK:   -8.47 KCAL/MOL
REMARK 923 INTER-LIGAND FREE ENERGY PREDICTED BY IDOCK:   -7.45 KCAL/MOL
REMARK 924 INTRA-LIGAND FREE ENERGY PREDICTED BY IDOCK:   -1.03 KCAL/MOL
REMARK 927      BINDING AFFINITY PREDICTED BY RF-SCORE:    0.00 PKD
ROOT
HETATM    1  C   UNL     1     -12.140  15.690  69.943  1.00  0.00    -0.360 C  
HETATM    2  C   UNL     1     -11.612  15.194  68.595  1.00  0.00    -0.358 C  
ENDROOT
BRANCH   2   3
HETATM    3  C   UNL     1     -10.538  14.115  68.613  1.00  0.00    -0.253 A  
HETATM    4  C   UNL     1     -10.928  12.792  68.882  1.00  0.00    -0.275 A  
HETATM    5  C   UNL     1     -10.037  11.718  68.813  1.00  0.00    -0.153 A  
HETATM    6  C   UNL     1      -8.688  11.932  68.502  1.00  0.00    -0.108 A  
HETATM    7  C   UNL     1      -8.293  13.262  68.274  1.00  0.00    -0.154 A  
HETATM    8  C   UNL     1      -7.667  10.783  68.371  1.00  0.00    -0.113 C  
HETATM    9  C   UNL     1      -9.180  14.366  68.291  1.00  0.00    -0.201 A  
HETATM   10  C   UNL     1      -7.125  10.741  66.925  1.00  0.00    -0.114 C  
HETATM   11  C   UNL     1      -8.335   9.463  68.679  1.00  0.00    -0.117 A  
HETATM   12  C   UNL     1      -6.503  11.007  69.361  1.00  0.00    -0.095 C  
HETATM   13  N   UNL     1      -9.407   2.548  69.688  1.00  0.00    -0.122 NA 
HETATM   14  C   UNL     1      -9.666   9.271  68.987  1.00  0.00    -0.162 A  
HETATM   15  C   UNL     1     -11.008   7.108  69.504  1.00  0.00    -0.214 A  
HETATM   16  C   UNL     1     -10.603  10.364  69.068  1.00  0.00    -0.221 C  
HETATM   17  C   UNL     1      -9.878   7.886  69.182  1.00  0.00    -0.174 A  
HETATM   18  O   UNL     1     -11.793  10.205  69.324  1.00  0.00    -0.085 OA 
HETATM   19  C   UNL     1     -10.874   5.725  69.630  1.00  0.00    -0.418 A  
HETATM   20  C   UNL     1      -8.648   7.256  68.994  1.00  0.00    -0.129 A  
HETATM   21  C   UNL     1      -8.494   5.871  69.117  1.00  0.00    -0.112 A  
HETATM   22  N   UNL     1      -7.726   8.234  68.689  1.00  0.00    -0.112 NA 
HETATM   23  C   UNL     1      -9.515   3.696  69.576  1.00  0.00    -0.176 C  
HETATM   24  C   UNL     1      -9.632   5.114  69.442  1.00  0.00    -0.225 A  
HETATM   25  H   UNL     1      -6.738   8.069  68.499  1.00  0.00     0.000 HD 
BRANCH   9  26
HETATM   26  N   UNL     1      -8.707  15.611  67.903  1.00  0.00    -0.166 NA 
HETATM   27  C   UNL     1      -8.690  17.939  68.491  1.00  0.00    -0.297 C  
HETATM   28  C   UNL     1      -8.143  16.562  68.863  1.00  0.00    -0.240 C  
HETATM   29  C   UNL     1      -8.231  18.333  67.065  1.00  0.00    -0.239 C  
HETATM   30  C   UNL     1      -8.255  15.850  66.524  1.00  0.00    -0.272 C  
HETATM   31  C   UNL     1      -8.739  17.234  66.104  1.00  0.00    -0.198 C  
BRANCH  29  32
HETATM   32  N   UNL     1      -6.756  18.536  66.985  1.00  0.00    -0.191 NA 
HETATM   33  C   UNL     1      -6.289  18.927  65.631  1.00  0.00    -0.256 C  
HETATM   34  C   UNL     1      -6.761  20.331  65.216  1.00  0.00    -0.304 C  
HETATM   35  O   UNL     1      -6.334  21.326  66.157  1.00  0.00    -0.248 OA 
HETATM   36  C   UNL     1      -6.741  21.004  67.493  1.00  0.00    -0.368 C  
HETATM   37  C   UNL     1      -6.267  19.599  67.900  1.00  0.00    -0.215 C  
ENDBRANCH  29  32
ENDBRANCH   9  26
ENDBRANCH   2   3
TORSDOF 3
ENDMDL
MODEL       13
REMARK 921   NORMALIZED FREE ENERGY PREDICTED BY IDOCK:   -6.41 KCAL/MOL
REMARK 922        TOTAL FREE ENERGY PREDICTED BY IDOCK:   -8.45 KCAL/MOL
REMARK 923 INTER-LIGAND FREE ENERGY PREDICTED BY IDOCK:   -7.56 KCAL/MOL
REMARK 924 INTRA-LIGAND FREE ENERGY PREDICTED BY IDOCK:   -0.89 KCAL/MOL
REMARK 927      BINDING AFFINITY PREDICTED BY RF-SCORE:    0.00 PKD
ROOT
HETATM    1  C   UNL     1      -5.448  14.456  69.997  1.00  0.00    -0.102 C  
HETATM    2  C   UNL     1      -5.780  13.737  68.688  1.00  0.00    -0.084 C  
ENDROOT
BRANCH   2   3
HETATM    3  C   UNL     1      -6.990  12.813  68.679  1.00  0.00    -0.101 A  
HETATM    4  C   UNL     1      -6.822  11.490  69.122  1.00  0.00    -0.112 A  
HETATM    5  C   UNL     1      -7.892  10.600  69.254  1.00  0.00    -0.140 A  
HETATM    6  C   UNL     1      -9.191  10.995  68.907  1.00  0.00    -0.139 A  
HETATM    7  C   UNL     1      -9.348  12.306  68.425  1.00  0.00    -0.162 A  
HETATM    8  C   UNL     1     -10.416  10.072  69.069  1.00  0.00    -0.233 C  
HETATM    9  C   UNL     1      -8.293  13.245  68.323  1.00  0.00    -0.154 A  
HETATM   10  C   UNL     1     -11.399  10.699  70.083  1.00  0.00    -0.402 C  
HETATM   11  C   UNL     1      -9.979   8.722  69.587  1.00  0.00    -0.191 A  
HETATM   12  C   UNL     1     -11.115   9.891  67.704  1.00  0.00    -0.170 C  
HETATM   13  N   UNL     1     -10.120   2.029  71.861  1.00  0.00    -0.158 NA 
HETATM   14  C   UNL     1      -8.693   8.350  69.921  1.00  0.00    -0.136 A  
HETATM   15  C   UNL     1      -7.744   6.119  70.855  1.00  0.00    -0.098 A  
HETATM   16  C   UNL     1      -7.573   9.248  69.790  1.00  0.00    -0.082 C  
HETATM   17  C   UNL     1      -8.726   7.012  70.381  1.00  0.00    -0.147 A  
HETATM   18  O   UNL     1      -6.427   8.936  70.099  1.00  0.00    -0.037 OA 
HETATM   19  C   UNL     1      -8.118   4.831  71.239  1.00  0.00    -0.101 A  
HETATM   20  C   UNL     1     -10.053   6.590  70.308  1.00  0.00    -0.179 A  
HETATM   21  C   UNL     1     -10.447   5.301  70.686  1.00  0.00    -0.306 A  
HETATM   22  N   UNL     1     -10.796   7.645  69.823  1.00  0.00    -0.316 NA 
HETATM   23  C   UNL     1      -9.815   3.101  71.549  1.00  0.00    -0.130 C  
HETATM   24  C   UNL     1      -9.452   4.426  71.152  1.00  0.00    -0.228 A  
HETATM   25  H   UNL     1     -11.803   7.628  69.663  1.00  0.00     0.000 HD 
BRANCH   9  26
HETATM   26  N   UNL     1      -8.594  14.554  67.977  1.00  0.00    -0.154 NA 
HETATM   27  C   UNL     1      -8.414  16.175  66.214  1.00  0.00    -0.357 C  
HETATM   28  C   UNL     1      -9.137  14.906  66.664  1.00  0.00    -0.280 C  
HETATM   29  C   UNL     1      -8.697  17.334  67.202  1.00  0.00    -0.218 C  
HETATM   30  C   UNL     1      -8.892  15.558  69.010  1.00  0.00    -0.242 C  
HETATM   31  C   UNL     1      -8.226  16.868  68.598  1.00  0.00    -0.254 C  
BRANCH  29  32
HETATM   32  N   UNL     1     -10.129  17.751  67.184  1.00  0.00    -0.324 NA 
HETATM   33  C   UNL     1     -10.515  18.580  68.353  1.00  0.00    -0.233 C  
HETATM   34  C   UNL     1      -9.848  19.966  68.352  1.00  0.00    -0.377 C  
HETATM   35  O   UNL     1     -10.149  20.692  67.152  1.00  0.00    -0.396 OA 
HETATM   36  C   UNL     1      -9.814  19.941  65.978  1.00  0.00    -0.417 C  
HETATM   37  C   UNL     1     -10.483  18.557  65.988  1.00  0.00    -0.400 C  
ENDBRANCH  29  32
ENDBRANCH   9  26
ENDBRANCH   2   3
TORSDOF 3
ENDMDL
MODEL       14
REMARK 921   NORMALIZED FREE ENERGY PREDICTED BY IDOCK:   -6.15 KCAL/MOL
REMARK 922        TOTAL FREE ENERGY PREDICTED BY IDOCK:   -8.14 KCAL/MOL
REMARK 923 INTER-LIGAND FREE ENERGY PREDICTED BY IDOCK:   -7.50 KCAL/MOL
REMARK 924 INTRA-LIGAND FREE ENERGY PREDICTED BY IDOCK:   -0.64 KCAL/MOL
REMARK 927      BINDING AFFINITY PREDICTED BY RF-SCORE:    0.00 PKD
ROOT
HETATM    1  C   UNL     1     -11.716  15.851  69.025  1.00  0.00    -0.377 C  
HETATM    2  C   UNL     1     -11.222  15.290  67.690  1.00  0.00    -0.320 C  
ENDROOT
BRANCH   2   3
HETATM    3  C   UNL     1     -10.169  14.191  67.734  1.00  0.00    -0.242 A  
HETATM    4  C   UNL     1     -10.597  12.855  67.651  1.00  0.00    -0.232 A  
HETATM    5  C   UNL     1      -9.703  11.784  67.573  1.00  0.00    -0.185 A  
HETATM    6  C   UNL     1      -8.320  12.008  67.612  1.00  0.00    -0.160 A  
HETATM    7  C   UNL     1      -7.897  13.343  67.737  1.00  0.00    -0.158 A  
HETATM    8  C   UNL     1      -7.285  10.871  67.490  1.00  0.00    -0.095 C  
HETATM    9  C   UNL     1      -8.776  14.453  67.773  1.00  0.00    -0.180 A  
HETATM   10  C   UNL     1      -6.436  11.086  66.216  1.00  0.00    -0.112 C  
HETATM   11  C   UNL     1      -7.993   9.540  67.382  1.00  0.00    -0.106 A  
HETATM   12  C   UNL     1      -6.372  10.863  68.734  1.00  0.00    -0.048 C  
HETATM   13  N   UNL     1      -9.197   2.600  66.778  1.00  0.00    -0.123 NA 
HETATM   14  C   UNL     1      -9.357   9.338  67.349  1.00  0.00    -0.153 A  
HETATM   15  C   UNL     1     -10.760   7.163  67.131  1.00  0.00    -0.422 A  
HETATM   16  C   UNL     1     -10.299  10.426  67.431  1.00  0.00    -0.228 C  
HETATM   17  C   UNL     1      -9.594   7.949  67.221  1.00  0.00    -0.205 A  
HETATM   18  O   UNL     1     -11.514  10.263  67.385  1.00  0.00    -0.290 OA 
HETATM   19  C   UNL     1     -10.645   5.778  67.013  1.00  0.00    -0.373 A  
HETATM   20  C   UNL     1      -8.347   7.325  67.189  1.00  0.00    -0.118 A  
HETATM   21  C   UNL     1      -8.212   5.937  67.073  1.00  0.00    -0.105 A  
HETATM   22  N   UNL     1      -7.389   8.311  67.288  1.00  0.00    -0.087 NA 
HETATM   23  C   UNL     1      -9.289   3.750  66.869  1.00  0.00    -0.193 C  
HETATM   24  C   UNL     1      -9.386   5.172  66.989  1.00  0.00    -0.127 A  
HETATM   25  H   UNL     1      -6.382   8.152  67.291  1.00  0.00     0.000 HD 
BRANCH   9  26
HETATM   26  N   UNL     1      -8.240  15.732  67.746  1.00  0.00    -0.141 NA 
HETATM   27  C   UNL     1      -8.180  17.825  68.921  1.00  0.00    -0.147 C  
HETATM   28  C   UNL     1      -7.701  16.374  68.946  1.00  0.00    -0.230 C  
HETATM   29  C   UNL     1      -7.627  18.552  67.671  1.00  0.00    -0.230 C  
HETATM   30  C   UNL     1      -7.701  16.298  66.500  1.00  0.00    -0.225 C  
HETATM   31  C   UNL     1      -8.114  17.765  66.433  1.00  0.00    -0.296 C  
BRANCH  29  32
HETATM   32  N   UNL     1      -6.143  18.700  67.715  1.00  0.00    -0.188 NA 
HETATM   33  C   UNL     1      -5.643  19.859  66.935  1.00  0.00    -0.172 C  
HETATM   34  C   UNL     1      -6.050  21.212  67.543  1.00  0.00    -0.354 C  
HETATM   35  O   UNL     1      -5.594  21.336  68.897  1.00  0.00    -0.313 OA 
HETATM   36  C   UNL     1      -6.030  20.238  69.708  1.00  0.00    -0.359 C  
HETATM   37  C   UNL     1      -5.621  18.889  69.093  1.00  0.00    -0.206 C  
ENDBRANCH  29  32
ENDBRANCH   9  26
ENDBRANCH   2   3
TORSDOF 3
ENDMDL
MODEL       15
REMARK 921   NORMALIZED FREE ENERGY PREDICTED BY IDOCK:   -5.91 KCAL/MOL
REMARK 922        TOTAL FREE ENERGY PREDICTED BY IDOCK:   -7.87 KCAL/MOL
REMARK 923 INTER-LIGAND FREE ENERGY PREDICTED BY IDOCK:   -7.17 KCAL/MOL
REMARK 924 INTRA-LIGAND FREE ENERGY PREDICTED BY IDOCK:   -0.70 KCAL/MOL
REMARK 927      BINDING AFFINITY PREDICTED BY RF-SCORE:    0.00 PKD
ROOT
HETATM    1  C   UNL     1      -5.831  14.082  70.200  1.00  0.00    -0.142 C  
HETATM    2  C   UNL     1      -5.618  13.696  68.735  1.00  0.00    -0.083 C  
ENDROOT
BRANCH   2   3
HETATM    3  C   UNL     1      -6.664  12.803  68.082  1.00  0.00    -0.092 A  
HETATM    4  C   UNL     1      -6.464  11.413  68.109  1.00  0.00    -0.056 A  
HETATM    5  C   UNL     1      -7.417  10.507  67.635  1.00  0.00    -0.092 A  
HETATM    6  C   UNL     1      -8.615  10.967  67.071  1.00  0.00    -0.140 A  
HETATM    7  C   UNL     1      -8.793  12.360  67.008  1.00  0.00    -0.210 A  
HETATM    8  C   UNL     1      -9.721  10.016  66.568  1.00  0.00    -0.254 C  
HETATM    9  C   UNL     1      -7.868  13.302  67.521  1.00  0.00    -0.171 A  
HETATM   10  C   UNL     1     -11.005  10.239  67.399  1.00  0.00    -0.317 C  
HETATM   11  C   UNL     1      -9.280   8.581  66.733  1.00  0.00    -0.172 A  
HETATM   12  C   UNL     1     -10.006  10.294  65.077  1.00  0.00    -0.393 C  
HETATM   13  N   UNL     1      -9.225   1.512  66.612  1.00  0.00    -0.037 NA 
HETATM   14  C   UNL     1      -8.094   8.146  67.288  1.00  0.00    -0.121 A  
HETATM   15  C   UNL     1      -7.170   5.754  67.695  1.00  0.00    -0.076 A  
HETATM   16  C   UNL     1      -7.094   9.061  67.780  1.00  0.00    -0.079 C  
HETATM   17  C   UNL     1      -8.089   6.732  67.268  1.00  0.00    -0.118 A  
HETATM   18  O   UNL     1      -6.043   8.688  68.292  1.00  0.00    -0.048 OA 
HETATM   19  C   UNL     1      -7.476   4.403  67.523  1.00  0.00    -0.073 A  
HETATM   20  C   UNL     1      -9.289   6.330  66.682  1.00  0.00    -0.148 A  
HETATM   21  C   UNL     1      -9.614   4.981  66.499  1.00  0.00    -0.168 A  
HETATM   22  N   UNL     1      -9.996   7.470  66.365  1.00  0.00    -0.451 NA 
HETATM   23  C   UNL     1      -8.978   2.633  66.760  1.00  0.00    -0.144 C  
HETATM   24  C   UNL     1      -8.682   4.021  66.929  1.00  0.00    -0.118 A  
HETATM   25  H   UNL     1     -10.916   7.485  65.924  1.00  0.00     0.000 HD 
BRANCH   9  26
HETATM   26  N   UNL     1      -8.219  14.643  67.538  1.00  0.00    -0.174 NA 
HETATM   27  C   UNL     1      -8.002  16.711  66.337  1.00  0.00    -0.360 C  
HETATM   28  C   UNL     1      -8.681  15.342  66.338  1.00  0.00    -0.230 C  
HETATM   29  C   UNL     1      -8.429  17.523  67.586  1.00  0.00    -0.215 C  
HETATM   30  C   UNL     1      -8.654  15.293  68.784  1.00  0.00    -0.190 C  
HETATM   31  C   UNL     1      -8.038  16.688  68.826  1.00  0.00    -0.247 C  
BRANCH  29  32
HETATM   32  N   UNL     1      -9.878  17.876  67.560  1.00  0.00    -0.298 NA 
HETATM   33  C   UNL     1     -10.276  18.805  68.646  1.00  0.00    -0.313 C  
HETATM   34  C   UNL     1      -9.670  20.209  68.489  1.00  0.00    -0.152 C  
HETATM   35  O   UNL     1     -10.026  20.795  67.229  1.00  0.00    -0.433 OA 
HETATM   36  C   UNL     1      -9.681  19.942  66.130  1.00  0.00    -0.427 C  
HETATM   37  C   UNL     1     -10.289  18.539  66.296  1.00  0.00    -0.427 C  
ENDBRANCH  29  32
ENDBRANCH   9  26
ENDBRANCH   2   3
TORSDOF 3
ENDMDL
MODEL       16
REMARK 921   NORMALIZED FREE ENERGY PREDICTED BY IDOCK:   -5.65 KCAL/MOL
REMARK 922        TOTAL FREE ENERGY PREDICTED BY IDOCK:   -7.56 KCAL/MOL
REMARK 923 INTER-LIGAND FREE ENERGY PREDICTED BY IDOCK:   -6.47 KCAL/MOL
REMARK 924 INTRA-LIGAND FREE ENERGY PREDICTED BY IDOCK:   -1.09 KCAL/MOL
REMARK 927      BINDING AFFINITY PREDICTED BY RF-SCORE:    0.00 PKD
ROOT
HETATM    1  C   UNL     1      -5.222   8.076  66.806  1.00  0.00    -0.028 C  
HETATM    2  C   UNL     1      -6.426   8.403  67.691  1.00  0.00    -0.057 C  
ENDROOT
BRANCH   2   3
HETATM    3  C   UNL     1      -7.474   9.356  67.133  1.00  0.00    -0.091 A  
HETATM    4  C   UNL     1      -7.425  10.704  67.526  1.00  0.00    -0.093 A  
HETATM    5  C   UNL     1      -8.272  11.675  66.986  1.00  0.00    -0.170 A  
HETATM    6  C   UNL     1      -9.244  11.323  66.039  1.00  0.00    -0.224 A  
HETATM    7  C   UNL     1      -9.317   9.966  65.680  1.00  0.00    -0.269 A  
HETATM    8  C   UNL     1     -10.180  12.356  65.378  1.00  0.00    -0.302 C  
HETATM    9  C   UNL     1      -8.444   8.967  66.174  1.00  0.00    -0.125 A  
HETATM   10  C   UNL     1      -9.915  12.386  63.856  1.00  0.00    -0.262 C  
HETATM   11  C   UNL     1      -9.912  13.731  65.945  1.00  0.00    -0.293 A  
HETATM   12  C   UNL     1     -11.650  11.972  65.648  1.00  0.00    -0.356 C  
HETATM   13  N   UNL     1     -10.281  20.685  67.167  1.00  0.00    -0.218 NA 
HETATM   14  C   UNL     1      -8.951  14.058  66.880  1.00  0.00    -0.243 A  
HETATM   15  C   UNL     1      -8.308  16.338  67.945  1.00  0.00    -0.170 A  
HETATM   16  C   UNL     1      -8.069  13.074  67.454  1.00  0.00    -0.180 C  
HETATM   17  C   UNL     1      -9.024  15.451  67.117  1.00  0.00    -0.236 A  
HETATM   18  O   UNL     1      -7.199  13.355  68.273  1.00  0.00    -0.090 OA 
HETATM   19  C   UNL     1      -8.641  17.693  67.948  1.00  0.00    -0.238 A  
HETATM   20  C   UNL     1     -10.051  15.947  66.314  1.00  0.00    -0.301 A  
HETATM   21  C   UNL     1     -10.400  17.302  66.304  1.00  0.00    -0.323 A  
HETATM   22  N   UNL     1     -10.575  14.884  65.611  1.00  0.00    -0.321 NA 
HETATM   23  C   UNL     1     -10.003  19.561  67.157  1.00  0.00    -0.373 C  
HETATM   24  C   UNL     1      -9.677  18.169  67.140  1.00  0.00    -0.301 A  
HETATM   25  H   UNL     1     -11.342  14.945  64.942  1.00  0.00     0.000 HD 
BRANCH   9  26
HETATM   26  N   UNL     1      -8.513   7.691  65.635  1.00  0.00    -0.146 NA 
HETATM   27  C   UNL     1      -8.489   5.355  66.192  1.00  0.00    -0.120 C  
HETATM   28  C   UNL     1      -9.325   6.634  66.240  1.00  0.00    -0.105 C  
HETATM   29  C   UNL     1      -8.178   4.972  64.724  1.00  0.00    -0.130 C  
HETATM   30  C   UNL     1      -8.239   7.460  64.209  1.00  0.00     0.020 C  
HETATM   31  C   UNL     1      -7.435   6.168  64.088  1.00  0.00    -0.081 C  
BRANCH  29  32
HETATM   32  N   UNL     1      -9.407   4.587  63.970  1.00  0.00    -0.114 NA 
HETATM   33  C   UNL     1      -9.146   4.263  62.546  1.00  0.00    -0.120 C  
HETATM   34  C   UNL     1      -8.323   2.977  62.363  1.00  0.00    -0.074 C  
HETATM   35  O   UNL     1      -8.965   1.852  62.981  1.00  0.00    -0.086 OA 
HETATM   36  C   UNL     1      -9.261   2.102  64.362  1.00  0.00    -0.127 C  
HETATM   37  C   UNL     1     -10.082   3.390  64.536  1.00  0.00    -0.121 C  
ENDBRANCH  29  32
ENDBRANCH   9  26
ENDBRANCH   2   3
TORSDOF 3
ENDMDL
MODEL       17
REMARK 921   NORMALIZED FREE ENERGY PREDICTED BY IDOCK:   -5.34 KCAL/MOL
REMARK 922        TOTAL FREE ENERGY PREDICTED BY IDOCK:   -7.20 KCAL/MOL
REMARK 923 INTER-LIGAND FREE ENERGY PREDICTED BY IDOCK:   -6.71 KCAL/MOL
REMARK 924 INTRA-LIGAND FREE ENERGY PREDICTED BY IDOCK:   -0.49 KCAL/MOL
REMARK 927      BINDING AFFINITY PREDICTED BY RF-SCORE:    0.00 PKD
ROOT
HETATM    1  C   UNL     1      -8.538  10.853  62.565  1.00  0.00    -0.313 C  
HETATM    2  C   UNL     1      -8.555   9.491  63.260  1.00  0.00    -0.217 C  
ENDROOT
BRANCH   2   3
HETATM    3  C   UNL     1      -8.881   9.463  64.747  1.00  0.00    -0.243 A  
HETATM    4  C   UNL     1      -9.489  10.594  65.317  1.00  0.00    -0.270 A  
HETATM    5  C   UNL     1      -9.924  10.624  66.645  1.00  0.00    -0.259 A  
HETATM    6  C   UNL     1      -9.734   9.515  67.481  1.00  0.00    -0.194 A  
HETATM    7  C   UNL     1      -9.088   8.400  66.918  1.00  0.00    -0.179 A  
HETATM    8  C   UNL     1     -10.229   9.474  68.941  1.00  0.00    -0.213 C  
HETATM    9  C   UNL     1      -8.676   8.322  65.565  1.00  0.00    -0.140 A  
HETATM   10  C   UNL     1     -11.279   8.351  69.094  1.00  0.00     0.328 C  
HETATM   11  C   UNL     1     -10.871  10.793  69.304  1.00  0.00    -0.242 A  
HETATM   12  C   UNL     1      -9.037   9.210  69.886  1.00  0.00    -0.188 C  
HETATM   13  N   UNL     1     -14.136  15.900  72.943  1.00  0.00    -0.438 NA 
HETATM   14  C   UNL     1     -11.047  11.876  68.468  1.00  0.00    -0.290 A  
HETATM   15  C   UNL     1     -12.148  14.192  68.878  1.00  0.00    -0.339 A  
HETATM   16  C   UNL     1     -10.603  11.870  67.097  1.00  0.00    -0.231 C  
HETATM   17  C   UNL     1     -11.707  12.893  69.198  1.00  0.00    -0.376 A  
HETATM   18  O   UNL     1     -10.769  12.820  66.338  1.00  0.00    -0.258 OA 
HETATM   19  C   UNL     1     -12.779  14.962  69.857  1.00  0.00    -0.126 A  
HETATM   20  C   UNL     1     -11.912  12.401  70.487  1.00  0.00    -0.195 A  
HETATM   21  C   UNL     1     -12.541  13.158  71.481  1.00  0.00    -0.292 A  
HETATM   22  N   UNL     1     -11.396  11.124  70.528  1.00  0.00    -0.423 NA 
HETATM   23  C   UNL     1     -13.618  15.256  72.132  1.00  0.00    -0.472 C  
HETATM   24  C   UNL     1     -12.970  14.452  71.143  1.00  0.00    -0.419 A  
HETATM   25  H   UNL     1     -11.404  10.515  71.346  1.00  0.00     0.000 HD 
BRANCH   9  26
HETATM   26  N   UNL     1      -8.186   7.117  65.083  1.00  0.00    -0.132 NA 
HETATM   27  C   UNL     1      -7.225   6.057  63.155  1.00  0.00    -0.055 C  
HETATM   28  C   UNL     1      -6.955   7.038  64.295  1.00  0.00    -0.055 C  
HETATM   29  C   UNL     1      -7.550   4.652  63.722  1.00  0.00    -0.064 C  
HETATM   30  C   UNL     1      -8.532   5.847  65.738  1.00  0.00    -0.148 C  
HETATM   31  C   UNL     1      -8.777   4.808  64.648  1.00  0.00    -0.153 C  
BRANCH  29  32
HETATM   32  N   UNL     1      -6.378   4.038  64.410  1.00  0.00    -0.026 NA 
HETATM   33  C   UNL     1      -6.655   2.682  64.947  1.00  0.00    -0.035 C  
HETATM   34  C   UNL     1      -6.879   1.634  63.844  1.00  0.00    -0.030 C  
HETATM   35  O   UNL     1      -5.753   1.558  62.958  1.00  0.00    -0.007 OA 
HETATM   36  C   UNL     1      -5.419   2.840  62.412  1.00  0.00    -0.004 C  
HETATM   37  C   UNL     1      -5.199   3.882  63.520  1.00  0.00    -0.008 C  
ENDBRANCH  29  32
ENDBRANCH   9  26
ENDBRANCH   2   3
TORSDOF 3
ENDMDL
MODEL       18
REMARK 921   NORMALIZED FREE ENERGY PREDICTED BY IDOCK:   -5.29 KCAL/MOL
REMARK 922        TOTAL FREE ENERGY PREDICTED BY IDOCK:   -7.14 KCAL/MOL
REMARK 923 INTER-LIGAND FREE ENERGY PREDICTED BY IDOCK:   -6.20 KCAL/MOL
REMARK 924 INTRA-LIGAND FREE ENERGY PREDICTED BY IDOCK:   -0.94 KCAL/MOL
REMARK 927      BINDING AFFINITY PREDICTED BY RF-SCORE:    0.00 PKD
ROOT
HETATM    1  C   UNL     1     -11.011   5.733  66.722  1.00  0.00    -0.239 C  
HETATM    2  C   UNL     1     -11.059   6.798  67.819  1.00  0.00    -0.285 C  
ENDROOT
BRANCH   2   3
HETATM    3  C   UNL     1     -10.083   7.962  67.714  1.00  0.00    -0.246 A  
HETATM    4  C   UNL     1     -10.587   9.223  67.356  1.00  0.00    -0.324 A  
HETATM    5  C   UNL     1      -9.792  10.372  67.340  1.00  0.00    -0.210 A  
HETATM    6  C   UNL     1      -8.427  10.297  67.652  1.00  0.00    -0.118 A  
HETATM    7  C   UNL     1      -7.919   9.025  67.969  1.00  0.00    -0.101 A  
HETATM    8  C   UNL     1      -7.509  11.536  67.690  1.00  0.00    -0.110 C  
HETATM    9  C   UNL     1      -8.707   7.851  68.039  1.00  0.00    -0.125 A  
HETATM   10  C   UNL     1      -6.967  11.727  69.125  1.00  0.00    -0.091 C  
HETATM   11  C   UNL     1      -8.290  12.768  67.297  1.00  0.00    -0.187 A  
HETATM   12  C   UNL     1      -6.335  11.342  66.707  1.00  0.00    -0.142 C  
HETATM   13  N   UNL     1      -9.958  19.476  65.814  1.00  0.00    -0.438 NA 
HETATM   14  C   UNL     1      -9.634  12.823  66.990  1.00  0.00    -0.229 A  
HETATM   15  C   UNL     1     -11.159  14.821  66.336  1.00  0.00    -0.340 A  
HETATM   16  C   UNL     1     -10.473  11.651  66.996  1.00  0.00    -0.224 C  
HETATM   17  C   UNL     1      -9.965  14.167  66.700  1.00  0.00    -0.280 A  
HETATM   18  O   UNL     1     -11.673  11.689  66.742  1.00  0.00    -0.541 OA 
HETATM   19  C   UNL     1     -11.146  16.198  66.111  1.00  0.00     0.087 A  
HETATM   20  C   UNL     1      -8.793  14.912  66.830  1.00  0.00    -0.258 A  
HETATM   21  C   UNL     1      -8.760  16.294  66.608  1.00  0.00    -0.294 A  
HETATM   22  N   UNL     1      -7.789  14.041  67.194  1.00  0.00    -0.361 NA 
HETATM   23  C   UNL     1      -9.966  18.335  66.007  1.00  0.00    -0.215 C  
HETATM   24  C   UNL     1      -9.960  16.925  66.242  1.00  0.00    -0.324 A  
HETATM   25  H   UNL     1      -6.818  14.304  67.362  1.00  0.00     0.000 HD 
BRANCH   9  26
HETATM   26  N   UNL     1      -8.126   6.682  68.508  1.00  0.00    -0.118 NA 
HETATM   27  C   UNL     1      -7.675   4.391  67.950  1.00  0.00    -0.080 C  
HETATM   28  C   UNL     1      -7.281   5.839  67.661  1.00  0.00    -0.076 C  
HETATM   29  C   UNL     1      -7.401   4.045  69.434  1.00  0.00    -0.053 C  
HETATM   30  C   UNL     1      -7.874   6.490  69.944  1.00  0.00    -0.115 C  
HETATM   31  C   UNL     1      -8.213   5.043  70.291  1.00  0.00    -0.088 C  
BRANCH  29  32
HETATM   32  N   UNL     1      -5.945   4.058  69.756  1.00  0.00    -0.018 NA 
HETATM   33  C   UNL     1      -5.665   4.092  71.213  1.00  0.00    -0.012 C  
HETATM   34  C   UNL     1      -6.072   2.796  71.934  1.00  0.00    -0.014 C  
HETATM   35  O   UNL     1      -5.418   1.653  71.366  1.00  0.00    -0.004 OA 
HETATM   36  C   UNL     1      -5.635   1.565  69.952  1.00  0.00    -0.016 C  
HETATM   37  C   UNL     1      -5.227   2.865  69.239  1.00  0.00    -0.012 C  
ENDBRANCH  29  32
ENDBRANCH   9  26
ENDBRANCH   2   3
TORSDOF 3
ENDMDL
MODEL       19
REMARK 921   NORMALIZED FREE ENERGY PREDICTED BY IDOCK:   -5.22 KCAL/MOL
REMARK 922        TOTAL FREE ENERGY PREDICTED BY IDOCK:   -7.06 KCAL/MOL
REMARK 923 INTER-LIGAND FREE ENERGY PREDICTED BY IDOCK:   -6.47 KCAL/MOL
REMARK 924 INTRA-LIGAND FREE ENERGY PREDICTED BY IDOCK:   -0.59 KCAL/MOL
REMARK 927      BINDING AFFINITY PREDICTED BY RF-SCORE:    0.00 PKD
ROOT
HETATM    1  C   UNL     1      -5.703   7.479  68.449  1.00  0.00    -0.027 C  
HETATM    2  C   UNL     1      -6.250   8.079  69.745  1.00  0.00    -0.029 C  
ENDROOT
BRANCH   2   3
HETATM    3  C   UNL     1      -7.478   8.974  69.645  1.00  0.00    -0.076 A  
HETATM    4  C   UNL     1      -7.324  10.255  69.090  1.00  0.00    -0.096 A  
HETATM    5  C   UNL     1      -8.407  11.107  68.856  1.00  0.00    -0.101 A  
HETATM    6  C   UNL     1      -9.707  10.717  69.208  1.00  0.00    -0.181 A  
HETATM    7  C   UNL     1      -9.850   9.451  69.802  1.00  0.00    -0.218 A  
HETATM    8  C   UNL     1     -10.945  11.596  68.938  1.00  0.00    -0.282 C  
HETATM    9  C   UNL     1      -8.780   8.547  70.011  1.00  0.00    -0.136 A  
HETATM   10  C   UNL     1     -11.892  10.861  67.962  1.00  0.00    -0.070 C  
HETATM   11  C   UNL     1     -10.522  12.904  68.311  1.00  0.00    -0.242 A  
HETATM   12  C   UNL     1     -11.679  11.882  70.266  1.00  0.00    -0.293 C  
HETATM   13  N   UNL     1     -10.738  19.364  65.446  1.00  0.00    -0.438 NA 
HETATM   14  C   UNL     1      -9.235  13.272  67.974  1.00  0.00    -0.217 A  
HETATM   15  C   UNL     1      -8.308  15.430  66.865  1.00  0.00    -0.290 A  
HETATM   16  C   UNL     1      -8.102  12.413  68.209  1.00  0.00    -0.166 C  
HETATM   17  C   UNL     1      -9.283  14.562  67.395  1.00  0.00    -0.202 A  
HETATM   18  O   UNL     1      -6.956  12.720  67.898  1.00  0.00    -0.088 OA 
HETATM   19  C   UNL     1      -8.697  16.671  66.360  1.00  0.00    -0.345 A  
HETATM   20  C   UNL     1     -10.620  14.961  67.402  1.00  0.00    -0.263 A  
HETATM   21  C   UNL     1     -11.029  16.202  66.901  1.00  0.00    -0.094 A  
HETATM   22  N   UNL     1     -11.353  13.938  67.963  1.00  0.00    -0.273 NA 
HETATM   23  C   UNL     1     -10.420  18.330  65.860  1.00  0.00    -0.307 C  
HETATM   24  C   UNL     1     -10.041  17.054  66.381  1.00  0.00    -0.325 A  
HETATM   25  H   UNL     1     -12.364  13.947  68.098  1.00  0.00     0.000 HD 
BRANCH   9  26
HETATM   26  N   UNL     1      -9.063   7.268  70.465  1.00  0.00    -0.157 NA 
HETATM   27  C   UNL     1     -10.294   5.269  69.963  1.00  0.00    -0.365 C  
HETATM   28  C   UNL     1      -9.081   6.111  69.569  1.00  0.00    -0.139 C  
HETATM   29  C   UNL     1     -10.153   4.771  71.423  1.00  0.00    -0.189 C  
HETATM   30  C   UNL     1      -8.842   6.902  71.873  1.00  0.00    -0.126 C  
HETATM   31  C   UNL     1     -10.008   6.023  72.318  1.00  0.00    -0.189 C  
BRANCH  29  32
HETATM   32  N   UNL     1      -9.023   3.811  71.583  1.00  0.00    -0.103 NA 
HETATM   33  C   UNL     1      -8.607   3.623  72.995  1.00  0.00    -0.090 C  
HETATM   34  C   UNL     1      -9.670   2.907  73.845  1.00  0.00    -0.093 C  
HETATM   35  O   UNL     1     -10.010   1.628  73.290  1.00  0.00    -0.085 OA 
HETATM   36  C   UNL     1     -10.410   1.733  71.918  1.00  0.00    -0.035 C  
HETATM   37  C   UNL     1      -9.342   2.452  71.076  1.00  0.00    -0.142 C  
ENDBRANCH  29  32
ENDBRANCH   9  26
ENDBRANCH   2   3
TORSDOF 3
ENDMDL
MODEL       20
REMARK 921   NORMALIZED FREE ENERGY PREDICTED BY IDOCK:   -5.22 KCAL/MOL
REMARK 922        TOTAL FREE ENERGY PREDICTED BY IDOCK:   -7.06 KCAL/MOL
REMARK 923 INTER-LIGAND FREE ENERGY PREDICTED BY IDOCK:   -6.33 KCAL/MOL
REMARK 924 INTRA-LIGAND FREE ENERGY PREDICTED BY IDOCK:   -0.72 KCAL/MOL
REMARK 927      BINDING AFFINITY PREDICTED BY RF-SCORE:    0.00 PKD
ROOT
HETATM    1  C   UNL     1      -5.377   9.257  70.511  1.00  0.00    -0.031 C  
HETATM    2  C   UNL     1      -6.039   8.838  69.197  1.00  0.00    -0.043 C  
ENDROOT
BRANCH   2   3
HETATM    3  C   UNL     1      -7.138   9.735  68.644  1.00  0.00    -0.071 A  
HETATM    4  C   UNL     1      -7.026  11.122  68.838  1.00  0.00    -0.095 A  
HETATM    5  C   UNL     1      -7.924  12.034  68.276  1.00  0.00    -0.149 A  
HETATM    6  C   UNL     1      -9.011  11.583  67.514  1.00  0.00    -0.159 A  
HETATM    7  C   UNL     1      -9.142  10.192  67.357  1.00  0.00    -0.149 A  
HETATM    8  C   UNL     1     -10.011  12.542  66.835  1.00  0.00    -0.229 C  
HETATM    9  C   UNL     1      -8.225   9.246  67.875  1.00  0.00    -0.115 A  
HETATM   10  C   UNL     1      -9.939  12.357  65.303  1.00  0.00    -0.234 C  
HETATM   11  C   UNL     1      -9.660  13.973  67.169  1.00  0.00    -0.245 A  
HETATM   12  C   UNL     1     -11.440  12.239  67.334  1.00  0.00    -0.422 C  
HETATM   13  N   UNL     1      -9.799  21.036  67.450  1.00  0.00    -0.242 NA 
HETATM   14  C   UNL     1      -8.586  14.398  67.925  1.00  0.00    -0.165 A  
HETATM   15  C   UNL     1      -7.790  16.783  68.576  1.00  0.00    -0.229 A  
HETATM   16  C   UNL     1      -7.649  13.478  68.517  1.00  0.00    -0.129 C  
HETATM   17  C   UNL     1      -8.614  15.812  67.973  1.00  0.00    -0.163 A  
HETATM   18  O   UNL     1      -6.681  13.843  69.176  1.00  0.00    -0.106 OA 
HETATM   19  C   UNL     1      -8.106  18.135  68.431  1.00  0.00    -0.313 A  
HETATM   20  C   UNL     1      -9.728  16.222  67.241  1.00  0.00    -0.237 A  
HETATM   21  C   UNL     1     -10.061  17.573  67.086  1.00  0.00    -0.321 A  
HETATM   22  N   UNL     1     -10.348  15.088  66.762  1.00  0.00    -0.265 NA 
HETATM   23  C   UNL     1      -9.537  19.914  67.562  1.00  0.00    -0.370 C  
HETATM   24  C   UNL     1      -9.230  18.525  67.699  1.00  0.00    -0.292 A  
HETATM   25  H   UNL     1     -11.192  15.079  66.190  1.00  0.00     0.000 HD 
BRANCH   9  26
HETATM   26  N   UNL     1      -8.375   7.911  67.531  1.00  0.00    -0.123 NA 
HETATM   27  C   UNL     1      -7.755   5.676  68.151  1.00  0.00    -0.089 C  
HETATM   28  C   UNL     1      -8.625   6.873  68.532  1.00  0.00    -0.123 C  
HETATM   29  C   UNL     1      -8.162   5.137  66.757  1.00  0.00    -0.108 C  
HETATM   30  C   UNL     1      -8.814   7.525  66.181  1.00  0.00    -0.159 C  
HETATM   31  C   UNL     1      -8.005   6.303  65.755  1.00  0.00    -0.116 C  
BRANCH  29  32
HETATM   32  N   UNL     1      -9.535   4.555  66.758  1.00  0.00    -0.160 NA 
HETATM   33  C   UNL     1      -9.986   4.110  65.416  1.00  0.00    -0.205 C  
HETATM   34  C   UNL     1      -9.198   2.900  64.888  1.00  0.00    -0.148 C  
HETATM   35  O   UNL     1      -9.278   1.789  65.793  1.00  0.00    -0.092 OA 
HETATM   36  C   UNL     1      -8.868   2.152  67.118  1.00  0.00    -0.132 C  
HETATM   37  C   UNL     1      -9.659   3.364  67.637  1.00  0.00    -0.107 C  
ENDBRANCH  29  32
ENDBRANCH   9  26
ENDBRANCH   2   3
TORSDOF 3
ENDMDL
MODEL       21
REMARK 921   NORMALIZED FREE ENERGY PREDICTED BY IDOCK:   -5.13 KCAL/MOL
REMARK 922        TOTAL FREE ENERGY PREDICTED BY IDOCK:   -6.95 KCAL/MOL
REMARK 923 INTER-LIGAND FREE ENERGY PREDICTED BY IDOCK:   -6.24 KCAL/MOL
REMARK 924 INTRA-LIGAND FREE ENERGY PREDICTED BY IDOCK:   -0.71 KCAL/MOL
REMARK 927      BINDING AFFINITY PREDICTED BY RF-SCORE:    0.00 PKD
ROOT
HETATM    1  C   UNL     1     -11.509  11.773  63.889  1.00  0.00    -0.481 C  
HETATM    2  C   UNL     1     -10.844  10.791  64.855  1.00  0.00    -0.055 C  
ENDROOT
BRANCH   2   3
HETATM    3  C   UNL     1      -9.663  11.298  65.672  1.00  0.00    -0.267 A  
HETATM    4  C   UNL     1      -9.597  12.670  65.968  1.00  0.00    -0.190 A  
HETATM    5  C   UNL     1      -8.614  13.212  66.801  1.00  0.00    -0.049 A  
HETATM    6  C   UNL     1      -7.618  12.393  67.351  1.00  0.00    -0.160 A  
HETATM    7  C   UNL     1      -7.664  11.028  67.019  1.00  0.00    -0.134 A  
HETATM    8  C   UNL     1      -6.532  12.927  68.308  1.00  0.00    -0.086 C  
HETATM    9  C   UNL     1      -8.672  10.441  66.216  1.00  0.00    -0.153 A  
HETATM   10  C   UNL     1      -6.681  12.240  69.685  1.00  0.00     0.052 C  
HETATM   11  C   UNL     1      -6.693  14.418  68.490  1.00  0.00    -0.097 A  
HETATM   12  C   UNL     1      -5.134  12.633  67.723  1.00  0.00    -0.102 C  
HETATM   13  N   UNL     1      -5.677  21.073  70.650  1.00  0.00    -0.429 NA 
HETATM   14  C   UNL     1      -7.679  15.209  67.936  1.00  0.00    -0.145 A  
HETATM   15  C   UNL     1      -8.153  17.753  68.151  1.00  0.00    -0.265 A  
HETATM   16  C   UNL     1      -8.701  14.674  67.072  1.00  0.00    -0.235 C  
HETATM   17  C   UNL     1      -7.477  16.538  68.376  1.00  0.00    -0.186 A  
HETATM   18  O   UNL     1      -9.593  15.362  66.588  1.00  0.00    -0.231 OA 
HETATM   19  C   UNL     1      -7.679  18.922  68.748  1.00  0.00    -0.366 A  
HETATM   20  C   UNL     1      -6.347  16.528  69.194  1.00  0.00    -0.185 A  
HETATM   21  C   UNL     1      -5.855  17.690  69.800  1.00  0.00    -0.250 A  
HETATM   22  N   UNL     1      -5.888  15.229  69.248  1.00  0.00    -0.097 NA 
HETATM   23  C   UNL     1      -6.071  20.099  70.162  1.00  0.00    -0.352 C  
HETATM   24  C   UNL     1      -6.542  18.892  69.560  1.00  0.00    -0.255 A  
HETATM   25  H   UNL     1      -5.072  14.918  69.774  1.00  0.00     0.000 HD 
BRANCH   9  26
HETATM   26  N   UNL     1      -8.700   9.061  66.080  1.00  0.00    -0.150 NA 
HETATM   27  C   UNL     1      -8.894   7.004  67.303  1.00  0.00    -0.119 C  
HETATM   28  C   UNL     1      -9.661   8.228  66.804  1.00  0.00    -0.239 C  
HETATM   29  C   UNL     1      -8.332   6.197  66.106  1.00  0.00    -0.128 C  
HETATM   30  C   UNL     1      -8.175   8.412  64.869  1.00  0.00    -0.153 C  
HETATM   31  C   UNL     1      -7.426   7.154  65.298  1.00  0.00    -0.092 C  
BRANCH  29  32
HETATM   32  N   UNL     1      -9.415   5.589  65.279  1.00  0.00     0.103 NA 
HETATM   33  C   UNL     1      -8.905   4.811  64.123  1.00  0.00    -0.122 C  
HETATM   34  C   UNL     1      -8.158   3.533  64.542  1.00  0.00    -0.086 C  
HETATM   35  O   UNL     1      -8.988   2.680  65.342  1.00  0.00    -0.128 OA 
HETATM   36  C   UNL     1      -9.529   3.374  66.474  1.00  0.00    -0.123 C  
HETATM   37  C   UNL     1     -10.272   4.650  66.047  1.00  0.00    -0.277 C  
ENDBRANCH  29  32
ENDBRANCH   9  26
ENDBRANCH   2   3
TORSDOF 3
ENDMDL
MODEL       22
REMARK 921   NORMALIZED FREE ENERGY PREDICTED BY IDOCK:   -5.00 KCAL/MOL
REMARK 922        TOTAL FREE ENERGY PREDICTED BY IDOCK:   -6.80 KCAL/MOL
REMARK 923 INTER-LIGAND FREE ENERGY PREDICTED BY IDOCK:   -6.08 KCAL/MOL
REMARK 924 INTRA-LIGAND FREE ENERGY PREDICTED BY IDOCK:   -0.72 KCAL/MOL
REMARK 927      BINDING AFFINITY PREDICTED BY RF-SCORE:    0.00 PKD
ROOT
HETATM    1  C   UNL     1      -6.726   8.020  69.691  1.00  0.00    -0.038 C  
HETATM    2  C   UNL     1      -6.388   8.584  68.310  1.00  0.00    -0.055 C  
ENDROOT
BRANCH   2   3
HETATM    3  C   UNL     1      -7.446   9.433  67.618  1.00  0.00    -0.087 A  
HETATM    4  C   UNL     1      -7.457  10.816  67.865  1.00  0.00    -0.090 A  
HETATM    5  C   UNL     1      -8.316  11.691  67.196  1.00  0.00    -0.164 A  
HETATM    6  C   UNL     1      -9.240  11.205  66.261  1.00  0.00    -0.211 A  
HETATM    7  C   UNL     1      -9.254   9.815  66.047  1.00  0.00    -0.226 A  
HETATM    8  C   UNL     1     -10.185  12.126  65.461  1.00  0.00    -0.294 C  
HETATM    9  C   UNL     1      -8.367   8.908  66.675  1.00  0.00    -0.111 A  
HETATM   10  C   UNL     1      -9.865  12.004  63.954  1.00  0.00    -0.266 C  
HETATM   11  C   UNL     1      -9.984  13.562  65.886  1.00  0.00    -0.283 A  
HETATM   12  C   UNL     1     -11.651  11.718  65.722  1.00  0.00    -0.194 C  
HETATM   13  N   UNL     1     -10.631  20.588  66.340  1.00  0.00     0.080 NA 
HETATM   14  C   UNL     1      -9.071  14.023  66.812  1.00  0.00    -0.250 A  
HETATM   15  C   UNL     1      -8.544  16.425  67.646  1.00  0.00    -0.181 A  
HETATM   16  C   UNL     1      -8.177  13.139  67.517  1.00  0.00    -0.183 C  
HETATM   17  C   UNL     1      -9.198  15.429  66.895  1.00  0.00    -0.254 A  
HETATM   18  O   UNL     1      -7.348  13.537  68.330  1.00  0.00    -0.094 OA 
HETATM   19  C   UNL     1      -8.921  17.760  67.492  1.00  0.00    -0.244 A  
HETATM   20  C   UNL     1     -10.211  15.799  66.010  1.00  0.00    -0.333 A  
HETATM   21  C   UNL     1     -10.605  17.131  65.843  1.00  0.00    -0.219 A  
HETATM   22  N   UNL     1     -10.673  14.648  65.408  1.00  0.00    -0.343 NA 
HETATM   23  C   UNL     1     -10.316  19.480  66.460  1.00  0.00    -0.482 C  
HETATM   24  C   UNL     1      -9.942  18.108  66.604  1.00  0.00    -0.363 A  
HETATM   25  H   UNL     1     -11.417  14.609  64.711  1.00  0.00     0.000 HD 
BRANCH   9  26
HETATM   26  N   UNL     1      -8.373   7.580  66.274  1.00  0.00    -0.127 NA 
HETATM   27  C   UNL     1      -8.126   6.137  64.370  1.00  0.00    -0.102 C  
HETATM   28  C   UNL     1      -7.376   7.044  65.345  1.00  0.00    -0.080 C  
HETATM   29  C   UNL     1      -8.788   4.961  65.131  1.00  0.00    -0.153 C  
HETATM   30  C   UNL     1      -8.997   6.543  67.109  1.00  0.00    -0.113 C  
HETATM   31  C   UNL     1      -9.734   5.577  66.187  1.00  0.00    -0.147 C  
BRANCH  29  32
HETATM   32  N   UNL     1      -7.779   4.037  65.726  1.00  0.00    -0.089 NA 
HETATM   33  C   UNL     1      -8.378   2.813  66.314  1.00  0.00    -0.094 C  
HETATM   34  C   UNL     1      -8.988   1.876  65.258  1.00  0.00    -0.123 C  
HETATM   35  O   UNL     1      -8.015   1.488  64.277  1.00  0.00    -0.063 OA 
HETATM   36  C   UNL     1      -7.384   2.626  63.676  1.00  0.00    -0.057 C  
HETATM   37  C   UNL     1      -6.778   3.559  64.738  1.00  0.00    -0.047 C  
ENDBRANCH  29  32
ENDBRANCH   9  26
ENDBRANCH   2   3
TORSDOF 3
ENDMDL
MODEL       23
REMARK 921   NORMALIZED FREE ENERGY PREDICTED BY IDOCK:   -4.87 KCAL/MOL
REMARK 922        TOTAL FREE ENERGY PREDICTED BY IDOCK:   -6.64 KCAL/MOL
REMARK 923 INTER-LIGAND FREE ENERGY PREDICTED BY IDOCK:   -5.87 KCAL/MOL
REMARK 924 INTRA-LIGAND FREE ENERGY PREDICTED BY IDOCK:   -0.77 KCAL/MOL
REMARK 927      BINDING AFFINITY PREDICTED BY RF-SCORE:    0.00 PKD
ROOT
HETATM    1  C   UNL     1      -5.312  10.044  71.479  1.00  0.00    -0.065 C  
HETATM    2  C   UNL     1      -5.788   9.413  70.169  1.00  0.00    -0.033 C  
ENDROOT
BRANCH   2   3
HETATM    3  C   UNL     1      -6.999  10.034  69.487  1.00  0.00    -0.078 A  
HETATM    4  C   UNL     1      -7.007  11.424  69.281  1.00  0.00    -0.115 A  
HETATM    5  C   UNL     1      -8.021  12.072  68.569  1.00  0.00    -0.132 A  
HETATM    6  C   UNL     1      -9.104  11.345  68.055  1.00  0.00    -0.171 A  
HETATM    7  C   UNL     1      -9.112   9.961  68.299  1.00  0.00    -0.122 A  
HETATM    8  C   UNL     1     -10.230  11.998  67.227  1.00  0.00    -0.221 C  
HETATM    9  C   UNL     1      -8.079   9.269  68.977  1.00  0.00    -0.106 A  
HETATM   10  C   UNL     1     -10.234  11.395  65.804  1.00  0.00    -0.295 C  
HETATM   11  C   UNL     1      -9.996  13.487  67.123  1.00  0.00    -0.246 A  
HETATM   12  C   UNL     1     -11.591  11.743  67.909  1.00  0.00    -0.377 C  
HETATM   13  N   UNL     1     -10.788  20.313  65.462  1.00  0.00    -0.097 NA 
HETATM   14  C   UNL     1      -8.924  14.186  67.639  1.00  0.00    -0.192 A  
HETATM   15  C   UNL     1      -8.320  16.710  67.539  1.00  0.00    -0.189 A  
HETATM   16  C   UNL     1      -7.869  13.541  68.380  1.00  0.00    -0.143 C  
HETATM   17  C   UNL     1      -9.082  15.550  67.299  1.00  0.00    -0.215 A  
HETATM   18  O   UNL     1      -6.902  14.148  68.828  1.00  0.00    -0.089 OA 
HETATM   19  C   UNL     1      -8.770  17.939  67.056  1.00  0.00    -0.254 A  
HETATM   20  C   UNL     1     -10.273  15.654  66.580  1.00  0.00    -0.283 A  
HETATM   21  C   UNL     1     -10.742  16.878  66.089  1.00  0.00    -0.109 A  
HETATM   22  N   UNL     1     -10.810  14.388  66.486  1.00  0.00    -0.305 NA 
HETATM   23  C   UNL     1     -10.414  19.291  65.856  1.00  0.00    -0.451 C  
HETATM   24  C   UNL     1      -9.969  18.022  66.342  1.00  0.00    -0.362 A  
HETATM   25  H   UNL     1     -11.683  14.156  66.012  1.00  0.00     0.000 HD 
BRANCH   9  26
HETATM   26  N   UNL     1      -8.122   7.884  69.027  1.00  0.00    -0.122 NA 
HETATM   27  C   UNL     1      -7.470   5.978  70.334  1.00  0.00    -0.090 C  
HETATM   28  C   UNL     1      -8.436   7.160  70.260  1.00  0.00    -0.138 C  
HETATM   29  C   UNL     1      -7.685   5.031  69.127  1.00  0.00    -0.076 C  
HETATM   30  C   UNL     1      -8.381   7.093  67.814  1.00  0.00    -0.118 C  
HETATM   31  C   UNL     1      -7.469   5.870  67.847  1.00  0.00    -0.081 C  
BRANCH  29  32
HETATM   32  N   UNL     1      -9.019   4.365  69.164  1.00  0.00    -0.096 NA 
HETATM   33  C   UNL     1      -9.370   3.680  67.895  1.00  0.00    -0.190 C  
HETATM   34  C   UNL     1      -8.484   2.457  67.608  1.00  0.00    -0.089 C  
HETATM   35  O   UNL     1      -8.544   1.504  68.678  1.00  0.00    -0.053 OA 
HETATM   36  C   UNL     1      -8.229   2.102  69.942  1.00  0.00    -0.041 C  
HETATM   37  C   UNL     1      -9.118   3.326  70.221  1.00  0.00    -0.126 C  
ENDBRANCH  29  32
ENDBRANCH   9  26
ENDBRANCH   2   3
TORSDOF 3
ENDMDL
MODEL       24
REMARK 921   NORMALIZED FREE ENERGY PREDICTED BY IDOCK:   -4.74 KCAL/MOL
REMARK 922        TOTAL FREE ENERGY PREDICTED BY IDOCK:   -6.49 KCAL/MOL
REMARK 923 INTER-LIGAND FREE ENERGY PREDICTED BY IDOCK:   -5.80 KCAL/MOL
REMARK 924 INTRA-LIGAND FREE ENERGY PREDICTED BY IDOCK:   -0.69 KCAL/MOL
REMARK 927      BINDING AFFINITY PREDICTED BY RF-SCORE:    0.00 PKD
ROOT
HETATM    1  C   UNL     1      -5.577   9.083  71.471  1.00  0.00    -0.054 C  
HETATM    2  C   UNL     1      -5.798   9.008  69.959  1.00  0.00    -0.031 C  
ENDROOT
BRANCH   2   3
HETATM    3  C   UNL     1      -6.927   9.841  69.369  1.00  0.00    -0.059 A  
HETATM    4  C   UNL     1      -6.828  11.241  69.436  1.00  0.00    -0.121 A  
HETATM    5  C   UNL     1      -7.757  12.090  68.828  1.00  0.00    -0.054 A  
HETATM    6  C   UNL     1      -8.863  11.562  68.148  1.00  0.00    -0.165 A  
HETATM    7  C   UNL     1      -8.981  10.161  68.120  1.00  0.00    -0.122 A  
HETATM    8  C   UNL     1      -9.900  12.446  67.424  1.00  0.00    -0.199 C  
HETATM    9  C   UNL     1      -8.034   9.274  68.686  1.00  0.00    -0.100 A  
HETATM   10  C   UNL     1      -9.878  12.127  65.912  1.00  0.00    -0.265 C  
HETATM   11  C   UNL     1      -9.556  13.905  67.618  1.00  0.00    -0.215 A  
HETATM   12  C   UNL     1     -11.307  12.174  67.998  1.00  0.00    -0.353 C  
HETATM   13  N   UNL     1      -9.783  20.963  67.280  1.00  0.00    -0.377 NA 
HETATM   14  C   UNL     1      -8.464  14.406  68.294  1.00  0.00    -0.165 A  
HETATM   15  C   UNL     1      -7.678  16.848  68.703  1.00  0.00    -0.235 A  
HETATM   16  C   UNL     1      -7.494  13.552  68.931  1.00  0.00    -0.017 C  
HETATM   17  C   UNL     1      -8.508  15.819  68.219  1.00  0.00    -0.164 A  
HETATM   18  O   UNL     1      -6.508  13.984  69.520  1.00  0.00    -0.114 OA 
HETATM   19  C   UNL     1      -8.017  18.178  68.452  1.00  0.00    -0.312 A  
HETATM   20  C   UNL     1      -9.653  16.151  67.494  1.00  0.00    -0.229 A  
HETATM   21  C   UNL     1     -10.010  17.478  67.232  1.00  0.00    -0.312 A  
HETATM   22  N   UNL     1     -10.273  14.972  67.139  1.00  0.00    -0.247 NA 
HETATM   23  C   UNL     1      -9.502  19.858  67.481  1.00  0.00    -0.359 C  
HETATM   24  C   UNL     1      -9.171  18.489  67.728  1.00  0.00    -0.295 A  
HETATM   25  H   UNL     1     -11.137  14.903  66.601  1.00  0.00     0.000 HD 
BRANCH   9  26
HETATM   26  N   UNL     1      -8.177   7.912  68.466  1.00  0.00    -0.126 NA 
HETATM   27  C   UNL     1      -8.542   6.260  66.763  1.00  0.00    -0.116 C  
HETATM   28  C   UNL     1      -7.519   7.232  67.349  1.00  0.00    -0.096 C  
HETATM   29  C   UNL     1      -8.950   5.206  67.822  1.00  0.00    -0.110 C  
HETATM   30  C   UNL     1      -8.525   7.003  69.568  1.00  0.00    -0.134 C  
HETATM   31  C   UNL     1      -9.520   5.977  69.034  1.00  0.00    -0.143 C  
BRANCH  29  32
HETATM   32  N   UNL     1      -7.818   4.307  68.188  1.00  0.00    -0.078 NA 
HETATM   33  C   UNL     1      -8.131   3.397  69.317  1.00  0.00    -0.052 C  
HETATM   34  C   UNL     1      -9.189   2.340  68.962  1.00  0.00    -0.144 C  
HETATM   35  O   UNL     1      -8.783   1.551  67.834  1.00  0.00    -0.076 OA 
HETATM   36  C   UNL     1      -8.450   2.370  66.705  1.00  0.00    -0.098 C  
HETATM   37  C   UNL     1      -7.394   3.426  67.070  1.00  0.00    -0.067 C  
ENDBRANCH  29  32
ENDBRANCH   9  26
ENDBRANCH   2   3
TORSDOF 3
ENDMDL
MODEL       25
REMARK 921   NORMALIZED FREE ENERGY PREDICTED BY IDOCK:   -4.56 KCAL/MOL
REMARK 922        TOTAL FREE ENERGY PREDICTED BY IDOCK:   -6.28 KCAL/MOL
REMARK 923 INTER-LIGAND FREE ENERGY PREDICTED BY IDOCK:   -6.93 KCAL/MOL
REMARK 924 INTRA-LIGAND FREE ENERGY PREDICTED BY IDOCK:    0.65 KCAL/MOL
REMARK 927      BINDING AFFINITY PREDICTED BY RF-SCORE:    0.00 PKD
ROOT
HETATM    1  C   UNL     1     -12.405   7.739  72.947  1.00  0.00     0.228 C  
HETATM    2  C   UNL     1     -11.163   7.054  72.375  1.00  0.00    -0.305 C  
ENDROOT
BRANCH   2   3
HETATM    3  C   UNL     1     -10.664   7.522  71.015  1.00  0.00    -0.243 A  
HETATM    4  C   UNL     1     -11.156   8.736  70.506  1.00  0.00    -0.278 A  
HETATM    5  C   UNL     1     -10.679   9.303  69.321  1.00  0.00    -0.211 A  
HETATM    6  C   UNL     1      -9.697   8.647  68.565  1.00  0.00    -0.174 A  
HETATM    7  C   UNL     1      -9.237   7.413  69.057  1.00  0.00    -0.146 A  
HETATM    8  C   UNL     1      -9.102   9.242  67.272  1.00  0.00    -0.143 C  
HETATM    9  C   UNL     1      -9.667   6.835  70.276  1.00  0.00    -0.171 A  
HETATM   10  C   UNL     1      -7.590   9.489  67.470  1.00  0.00    -0.095 C  
HETATM   11  C   UNL     1      -9.773  10.558  66.955  1.00  0.00    -0.180 A  
HETATM   12  C   UNL     1      -9.325   8.262  66.100  1.00  0.00    -0.254 C  
HETATM   13  N   UNL     1     -11.500  16.619  63.750  1.00  0.00    -0.699 NA 
HETATM   14  C   UNL     1     -10.741  11.187  67.710  1.00  0.00    -0.267 A  
HETATM   15  C   UNL     1     -11.979  13.444  67.367  1.00  0.00    -0.391 A  
HETATM   16  C   UNL     1     -11.252  10.621  68.933  1.00  0.00    -0.275 C  
HETATM   17  C   UNL     1     -11.079  12.402  67.069  1.00  0.00    -0.327 A  
HETATM   18  O   UNL     1     -12.100  11.178  69.623  1.00  0.00    -0.319 OA 
HETATM   19  C   UNL     1     -12.078  14.534  66.501  1.00  0.00    -0.330 A  
HETATM   20  C   UNL     1     -10.303  12.482  65.913  1.00  0.00    -0.263 A  
HETATM   21  C   UNL     1     -10.389  13.566  65.032  1.00  0.00    -0.379 A  
HETATM   22  N   UNL     1      -9.517  11.351  65.865  1.00  0.00    -0.223 NA 
HETATM   23  C   UNL     1     -11.410  15.716  64.470  1.00  0.00    -0.320 C  
HETATM   24  C   UNL     1     -11.295  14.592  65.345  1.00  0.00    -0.344 A  
HETATM   25  H   UNL     1      -8.845  11.136  65.129  1.00  0.00     0.000 HD 
BRANCH   9  26
HETATM   26  N   UNL     1      -9.034   5.689  70.733  1.00  0.00    -0.142 NA 
HETATM   27  C   UNL     1      -6.887   4.741  71.240  1.00  0.00    -0.042 C  
HETATM   28  C   UNL     1      -7.945   5.740  71.709  1.00  0.00    -0.114 C  
HETATM   29  C   UNL     1      -7.475   3.308  71.218  1.00  0.00    -0.037 C  
HETATM   30  C   UNL     1      -9.717   4.387  70.702  1.00  0.00    -0.213 C  
HETATM   31  C   UNL     1      -8.699   3.333  70.275  1.00  0.00    -0.125 C  
BRANCH  29  32
HETATM   32  N   UNL     1      -7.807   2.814  72.586  1.00  0.00    -0.054 NA 
HETATM   33  C   UNL     1      -7.220   1.485  72.889  1.00  0.00    -0.024 C  
HETATM   34  C   UNL     1      -5.686   1.516  72.997  1.00  0.00     0.000 C  
HETATM   35  O   UNL     1      -5.249   2.451  73.993  1.00  0.00     0.000 OA 
HETATM   36  C   UNL     1      -5.792   3.759  73.768  1.00  0.00    -0.004 C  
HETATM   37  C   UNL     1      -7.326   3.719  73.661  1.00  0.00    -0.068 C  
ENDBRANCH  29  32
ENDBRANCH   9  26
ENDBRANCH   2   3
TORSDOF 3
ENDMDL
MODEL       26
REMARK 921   NORMALIZED FREE ENERGY PREDICTED BY IDOCK:   -4.54 KCAL/MOL
REMARK 922        TOTAL FREE ENERGY PREDICTED BY IDOCK:   -6.26 KCAL/MOL
REMARK 923 INTER-LIGAND FREE ENERGY PREDICTED BY IDOCK:   -5.24 KCAL/MOL
REMARK 924 INTRA-LIGAND FREE ENERGY PREDICTED BY IDOCK:   -1.02 KCAL/MOL
REMARK 927      BINDING AFFINITY PREDICTED BY RF-SCORE:    0.00 PKD
ROOT
HETATM    1  C   UNL     1     -10.893   7.182  68.160  1.00  0.00    -0.170 C  
HETATM    2  C   UNL     1     -10.753   8.348  69.141  1.00  0.00    -0.123 C  
ENDROOT
BRANCH   2   3
HETATM    3  C   UNL     1      -9.566   9.284  68.958  1.00  0.00    -0.159 A  
HETATM    4  C   UNL     1      -9.798  10.553  68.403  1.00  0.00    -0.171 A  
HETATM    5  C   UNL     1      -8.795  11.521  68.296  1.00  0.00    -0.166 A  
HETATM    6  C   UNL     1      -7.488  11.239  68.716  1.00  0.00    -0.123 A  
HETATM    7  C   UNL     1      -7.251   9.953  69.233  1.00  0.00    -0.073 A  
HETATM    8  C   UNL     1      -6.349  12.279  68.661  1.00  0.00    -0.071 C  
HETATM    9  C   UNL     1      -8.254   8.967  69.396  1.00  0.00    -0.117 A  
HETATM   10  C   UNL     1      -5.850  12.568  70.095  1.00  0.00    -0.160 C  
HETATM   11  C   UNL     1      -6.857  13.566  68.054  1.00  0.00    -0.136 A  
HETATM   12  C   UNL     1      -5.189  11.734  67.801  1.00  0.00    -0.057 C  
HETATM   13  N   UNL     1      -7.121  20.188  65.591  1.00  0.00    -0.303 NA 
HETATM   14  C   UNL     1      -8.149  13.825  67.643  1.00  0.00    -0.181 A  
HETATM   15  C   UNL     1      -9.225  15.957  66.624  1.00  0.00    -0.280 A  
HETATM   16  C   UNL     1      -9.199  12.842  67.740  1.00  0.00    -0.199 C  
HETATM   17  C   UNL     1      -8.199  15.153  67.157  1.00  0.00    -0.251 A  
HETATM   18  O   UNL     1     -10.355  13.065  67.394  1.00  0.00    -0.232 OA 
HETATM   19  C   UNL     1      -8.935  17.262  66.224  1.00  0.00    -0.250 A  
HETATM   20  C   UNL     1      -6.913  15.678  67.276  1.00  0.00    -0.189 A  
HETATM   21  C   UNL     1      -6.602  16.984  66.879  1.00  0.00    -0.251 A  
HETATM   22  N   UNL     1      -6.115  14.697  67.824  1.00  0.00    -0.249 NA 
HETATM   23  C   UNL     1      -7.360  19.107  65.930  1.00  0.00    -0.252 C  
HETATM   24  C   UNL     1      -7.638  17.768  66.347  1.00  0.00    -0.313 A  
HETATM   25  H   UNL     1      -5.121  14.796  68.028  1.00  0.00     0.000 HD 
BRANCH   9  26
HETATM   26  N   UNL     1      -7.934   7.790  70.055  1.00  0.00    -0.111 NA 
HETATM   27  C   UNL     1      -7.495   5.452  69.728  1.00  0.00    -0.066 C  
HETATM   28  C   UNL     1      -6.929   6.859  69.540  1.00  0.00    -0.063 C  
HETATM   29  C   UNL     1      -7.725   5.161  71.232  1.00  0.00    -0.101 C  
HETATM   30  C   UNL     1      -8.158   7.651  71.502  1.00  0.00    -0.098 C  
HETATM   31  C   UNL     1      -8.691   6.245  71.763  1.00  0.00    -0.133 C  
BRANCH  29  32
HETATM   32  N   UNL     1      -6.445   5.103  71.996  1.00  0.00    -0.038 NA 
HETATM   33  C   UNL     1      -6.639   4.925  73.456  1.00  0.00    -0.067 C  
HETATM   34  C   UNL     1      -7.216   3.547  73.822  1.00  0.00    -0.052 C  
HETATM   35  O   UNL     1      -6.383   2.485  73.335  1.00  0.00    -0.012 OA 
HETATM   36  C   UNL     1      -6.141   2.602  71.927  1.00  0.00    -0.014 C  
HETATM   37  C   UNL     1      -5.567   3.983  71.570  1.00  0.00    -0.008 C  
ENDBRANCH  29  32
ENDBRANCH   9  26
ENDBRANCH   2   3
TORSDOF 3
ENDMDL
MODEL       27
REMARK 921   NORMALIZED FREE ENERGY PREDICTED BY IDOCK:   -4.35 KCAL/MOL
REMARK 922        TOTAL FREE ENERGY PREDICTED BY IDOCK:   -6.03 KCAL/MOL
REMARK 923 INTER-LIGAND FREE ENERGY PREDICTED BY IDOCK:   -5.25 KCAL/MOL
REMARK 924 INTRA-LIGAND FREE ENERGY PREDICTED BY IDOCK:   -0.78 KCAL/MOL
REMARK 927      BINDING AFFINITY PREDICTED BY RF-SCORE:    0.00 PKD
ROOT
HETATM    1  C   UNL     1     -10.640  14.664  64.853  1.00  0.00    -0.446 C  
HETATM    2  C   UNL     1      -9.940  14.277  66.157  1.00  0.00    -0.330 C  
ENDROOT
BRANCH   2   3
HETATM    3  C   UNL     1      -9.854  12.796  66.498  1.00  0.00    -0.258 A  
HETATM    4  C   UNL     1      -9.225  11.936  65.581  1.00  0.00    -0.060 A  
HETATM    5  C   UNL     1      -9.001  10.584  65.852  1.00  0.00    -0.185 A  
HETATM    6  C   UNL     1      -9.437  10.018  67.058  1.00  0.00    -0.197 A  
HETATM    7  C   UNL     1     -10.103  10.872  67.954  1.00  0.00    -0.199 A  
HETATM    8  C   UNL     1      -9.183   8.543  67.430  1.00  0.00    -0.163 C  
HETATM    9  C   UNL     1     -10.306  12.256  67.729  1.00  0.00    -0.207 A  
HETATM   10  C   UNL     1      -8.295   8.479  68.693  1.00  0.00    -0.123 C  
HETATM   11  C   UNL     1      -8.468   7.843  66.298  1.00  0.00    -0.135 A  
HETATM   12  C   UNL     1     -10.529   7.835  67.697  1.00  0.00    -0.308 C  
HETATM   13  N   UNL     1      -5.281   2.860  62.424  1.00  0.00    -0.004 NA 
HETATM   14  C   UNL     1      -8.048   8.415  65.115  1.00  0.00    -0.147 A  
HETATM   15  C   UNL     1      -6.783   7.410  63.081  1.00  0.00    -0.054 A  
HETATM   16  C   UNL     1      -8.271   9.807  64.811  1.00  0.00    -0.148 C  
HETATM   17  C   UNL     1      -7.406   7.417  64.345  1.00  0.00    -0.085 A  
HETATM   18  O   UNL     1      -7.888  10.333  63.771  1.00  0.00    -0.154 OA 
HETATM   19  C   UNL     1      -6.233   6.224  62.595  1.00  0.00    -0.030 A  
HETATM   20  C   UNL     1      -7.458   6.237  65.086  1.00  0.00    -0.082 A  
HETATM   21  C   UNL     1      -6.913   5.037  64.614  1.00  0.00    -0.050 A  
HETATM   22  N   UNL     1      -8.107   6.519  66.268  1.00  0.00    -0.111 NA 
HETATM   23  C   UNL     1      -5.733   3.844  62.834  1.00  0.00    -0.013 C  
HETATM   24  C   UNL     1      -6.301   5.050  63.350  1.00  0.00    -0.026 A  
HETATM   25  H   UNL     1      -8.292   5.845  67.011  1.00  0.00     0.000 HD 
BRANCH   9  26
HETATM   26  N   UNL     1     -10.841  13.028  68.749  1.00  0.00    -0.254 NA 
HETATM   27  C   UNL     1     -12.894  13.901  69.636  1.00  0.00     0.387 C  
HETATM   28  C   UNL     1     -12.055  12.636  69.467  1.00  0.00    -0.192 C  
HETATM   29  C   UNL     1     -12.127  14.947  70.483  1.00  0.00    -0.320 C  
HETATM   30  C   UNL     1      -9.995  13.956  69.515  1.00  0.00     0.557 C  
HETATM   31  C   UNL     1     -10.795  15.234  69.752  1.00  0.00    -0.300 C  
BRANCH  29  32
HETATM   32  N   UNL     1     -11.929  14.495  71.891  1.00  0.00    -0.252 NA 
HETATM   33  C   UNL     1     -11.165  15.463  72.716  1.00  0.00     0.166 C  
HETATM   34  C   UNL     1     -11.932  16.770  72.974  1.00  0.00    -0.117 C  
HETATM   35  O   UNL     1     -13.194  16.520  73.608  1.00  0.00    -0.548 OA 
HETATM   36  C   UNL     1     -13.983  15.579  72.868  1.00  0.00    -0.351 C  
HETATM   37  C   UNL     1     -13.208  14.276  72.613  1.00  0.00    -0.510 C  
ENDBRANCH  29  32
ENDBRANCH   9  26
ENDBRANCH   2   3
TORSDOF 3
ENDMDL
MODEL       28
REMARK 921   NORMALIZED FREE ENERGY PREDICTED BY IDOCK:   -4.32 KCAL/MOL
REMARK 922        TOTAL FREE ENERGY PREDICTED BY IDOCK:   -6.00 KCAL/MOL
REMARK 923 INTER-LIGAND FREE ENERGY PREDICTED BY IDOCK:   -5.22 KCAL/MOL
REMARK 924 INTRA-LIGAND FREE ENERGY PREDICTED BY IDOCK:   -0.78 KCAL/MOL
REMARK 927      BINDING AFFINITY PREDICTED BY RF-SCORE:    0.00 PKD
ROOT
HETATM    1  C   UNL     1     -10.719   5.252  66.362  1.00  0.00    -0.290 C  
HETATM    2  C   UNL     1      -9.656   6.234  65.866  1.00  0.00     0.106 C  
ENDROOT
BRANCH   2   3
HETATM    3  C   UNL     1      -9.479   7.532  66.641  1.00  0.00    -0.246 A  
HETATM    4  C   UNL     1      -9.733   8.744  65.977  1.00  0.00    -0.276 A  
HETATM    5  C   UNL     1      -9.704   9.979  66.631  1.00  0.00    -0.246 A  
HETATM    6  C   UNL     1      -9.379  10.055  67.992  1.00  0.00    -0.139 A  
HETATM    7  C   UNL     1      -9.084   8.844  68.642  1.00  0.00    -0.137 A  
HETATM    8  C   UNL     1      -9.370  11.383  68.776  1.00  0.00    -0.115 C  
HETATM    9  C   UNL     1      -9.149   7.574  68.020  1.00  0.00    -0.131 A  
HETATM   10  C   UNL     1     -10.434  11.324  69.896  1.00  0.00     0.376 C  
HETATM   11  C   UNL     1      -9.703  12.530  67.851  1.00  0.00    -0.205 A  
HETATM   12  C   UNL     1      -7.973  11.615  69.391  1.00  0.00     0.415 C  
HETATM   13  N   UNL     1     -10.993  19.039  65.411  1.00  0.00    -0.410 NA 
HETATM   14  C   UNL     1     -10.018  12.437  66.511  1.00  0.00    -0.242 A  
HETATM   15  C   UNL     1     -10.652  14.258  64.771  1.00  0.00    -0.434 A  
HETATM   16  C   UNL     1     -10.051  11.175  65.814  1.00  0.00    -0.249 C  
HETATM   17  C   UNL     1     -10.282  13.740  66.027  1.00  0.00    -0.315 A  
HETATM   18  O   UNL     1     -10.346  11.076  64.627  1.00  0.00    -0.309 OA 
HETATM   19  C   UNL     1     -10.836  15.633  64.623  1.00  0.00    -0.266 A  
HETATM   20  C   UNL     1     -10.109  14.614  67.101  1.00  0.00    -0.244 A  
HETATM   21  C   UNL     1     -10.288  15.996  66.972  1.00  0.00    -0.292 A  
HETATM   22  N   UNL     1      -9.758  13.857  68.197  1.00  0.00    -0.216 NA 
HETATM   23  C   UNL     1     -10.845  17.898  65.539  1.00  0.00     0.115 C  
HETATM   24  C   UNL     1     -10.653  16.492  65.710  1.00  0.00    -0.307 A  
HETATM   25  H   UNL     1      -9.567  14.226  69.128  1.00  0.00     0.000 HD 
BRANCH   9  26
HETATM   26  N   UNL     1      -8.984   6.438  68.798  1.00  0.00    -0.127 NA 
HETATM   27  C   UNL     1      -7.926   4.284  68.871  1.00  0.00    -0.072 C  
HETATM   28  C   UNL     1      -7.682   5.790  68.962  1.00  0.00    -0.090 C  
HETATM   29  C   UNL     1      -8.865   3.821  70.013  1.00  0.00    -0.087 C  
HETATM   30  C   UNL     1      -9.922   6.129  69.889  1.00  0.00    -0.172 C  
HETATM   31  C   UNL     1     -10.178   4.625  69.876  1.00  0.00    -0.156 C  
BRANCH  29  32
HETATM   32  N   UNL     1      -8.233   3.968  71.356  1.00  0.00    -0.076 NA 
HETATM   33  C   UNL     1      -9.205   3.894  72.474  1.00  0.00    -0.114 C  
HETATM   34  C   UNL     1      -9.825   2.496  72.638  1.00  0.00    -0.134 C  
HETATM   35  O   UNL     1      -8.817   1.495  72.837  1.00  0.00    -0.060 OA 
HETATM   36  C   UNL     1      -7.832   1.520  71.795  1.00  0.00    -0.041 C  
HETATM   37  C   UNL     1      -7.218   2.920  71.637  1.00  0.00    -0.039 C  
ENDBRANCH  29  32
ENDBRANCH   9  26
ENDBRANCH   2   3
TORSDOF 3
ENDMDL
MODEL       29
REMARK 921   NORMALIZED FREE ENERGY PREDICTED BY IDOCK:   -4.31 KCAL/MOL
REMARK 922        TOTAL FREE ENERGY PREDICTED BY IDOCK:   -5.99 KCAL/MOL
REMARK 923 INTER-LIGAND FREE ENERGY PREDICTED BY IDOCK:   -5.14 KCAL/MOL
REMARK 924 INTRA-LIGAND FREE ENERGY PREDICTED BY IDOCK:   -0.85 KCAL/MOL
REMARK 927      BINDING AFFINITY PREDICTED BY RF-SCORE:    0.00 PKD
ROOT
HETATM    1  C   UNL     1      -8.136   8.684  62.470  1.00  0.00    -0.169 C  
HETATM    2  C   UNL     1      -9.394   8.941  63.301  1.00  0.00     1.005 C  
ENDROOT
BRANCH   2   3
HETATM    3  C   UNL     1      -9.240   9.748  64.583  1.00  0.00    -0.312 A  
HETATM    4  C   UNL     1      -9.438  11.138  64.523  1.00  0.00    -0.254 A  
HETATM    5  C   UNL     1      -9.427  11.948  65.662  1.00  0.00    -0.180 A  
HETATM    6  C   UNL     1      -9.175  11.395  66.925  1.00  0.00    -0.183 A  
HETATM    7  C   UNL     1      -8.936  10.011  66.975  1.00  0.00    -0.152 A  
HETATM    8  C   UNL     1      -9.189  12.231  68.221  1.00  0.00    -0.189 C  
HETATM    9  C   UNL     1      -8.985   9.156  65.846  1.00  0.00    -0.189 A  
HETATM   10  C   UNL     1     -10.314  11.718  69.149  1.00  0.00    -0.008 C  
HETATM   11  C   UNL     1      -9.453  13.682  67.895  1.00  0.00    -0.213 A  
HETATM   12  C   UNL     1      -7.825  12.109  68.933  1.00  0.00     0.070 C  
HETATM   13  N   UNL     1     -10.506  20.640  68.582  1.00  0.00     0.162 NA 
HETATM   14  C   UNL     1      -9.696  14.210  66.644  1.00  0.00    -0.297 A  
HETATM   15  C   UNL     1     -10.205  16.640  65.880  1.00  0.00    -0.358 A  
HETATM   16  C   UNL     1      -9.709  13.396  65.454  1.00  0.00    -0.007 C  
HETATM   17  C   UNL     1      -9.912  15.601  66.785  1.00  0.00    -0.258 A  
HETATM   18  O   UNL     1      -9.941  13.849  64.338  1.00  0.00    -0.215 OA 
HETATM   19  C   UNL     1     -10.360  17.942  66.358  1.00  0.00    -0.365 A  
HETATM   20  C   UNL     1      -9.785  15.895  68.143  1.00  0.00    -0.212 A  
HETATM   21  C   UNL     1      -9.935  17.195  68.640  1.00  0.00    -0.313 A  
HETATM   22  N   UNL     1      -9.506  14.715  68.797  1.00  0.00    -0.206 NA 
HETATM   23  C   UNL     1     -10.384  19.557  68.191  1.00  0.00    -0.433 C  
HETATM   24  C   UNL     1     -10.223  18.216  67.721  1.00  0.00    -0.395 A  
HETATM   25  H   UNL     1      -9.361  14.622  69.802  1.00  0.00     0.000 HD 
BRANCH   9  26
HETATM   26  N   UNL     1      -8.882   7.787  66.039  1.00  0.00    -0.164 NA 
HETATM   27  C   UNL     1      -8.265   5.728  64.968  1.00  0.00    -0.137 C  
HETATM   28  C   UNL     1      -7.723   7.022  65.573  1.00  0.00    -0.105 C  
HETATM   29  C   UNL     1      -9.013   4.902  66.045  1.00  0.00    -0.129 C  
HETATM   30  C   UNL     1      -9.609   7.121  67.131  1.00  0.00    -0.151 C  
HETATM   31  C   UNL     1     -10.145   5.796  66.598  1.00  0.00    -0.235 C  
BRANCH  29  32
HETATM   32  N   UNL     1      -8.095   4.405  67.110  1.00  0.00    -0.101 NA 
HETATM   33  C   UNL     1      -8.775   3.566  68.127  1.00  0.00    -0.106 C  
HETATM   34  C   UNL     1      -9.265   2.220  67.567  1.00  0.00    -0.148 C  
HETATM   35  O   UNL     1      -8.187   1.467  66.995  1.00  0.00    -0.069 OA 
HETATM   36  C   UNL     1      -7.474   2.225  66.009  1.00  0.00    -0.067 C  
HETATM   37  C   UNL     1      -6.989   3.569  66.577  1.00  0.00    -0.054 C  
ENDBRANCH  29  32
ENDBRANCH   9  26
ENDBRANCH   2   3
TORSDOF 3
ENDMDL
MODEL       30
REMARK 921   NORMALIZED FREE ENERGY PREDICTED BY IDOCK:   -4.31 KCAL/MOL
REMARK 922        TOTAL FREE ENERGY PREDICTED BY IDOCK:   -5.98 KCAL/MOL
REMARK 923 INTER-LIGAND FREE ENERGY PREDICTED BY IDOCK:   -5.87 KCAL/MOL
REMARK 924 INTRA-LIGAND FREE ENERGY PREDICTED BY IDOCK:   -0.11 KCAL/MOL
REMARK 927      BINDING AFFINITY PREDICTED BY RF-SCORE:    0.00 PKD
ROOT
HETATM    1  C   UNL     1      -5.737  14.009  69.167  1.00  0.00    -0.085 C  
HETATM    2  C   UNL     1      -6.411  13.138  68.105  1.00  0.00    -0.106 C  
ENDROOT
BRANCH   2   3
HETATM    3  C   UNL     1      -7.707  12.436  68.488  1.00  0.00    -0.120 A  
HETATM    4  C   UNL     1      -7.630  11.137  69.019  1.00  0.00    -0.119 A  
HETATM    5  C   UNL     1      -8.751  10.456  69.499  1.00  0.00    -0.102 A  
HETATM    6  C   UNL     1     -10.022  11.043  69.434  1.00  0.00    -0.019 A  
HETATM    7  C   UNL     1     -10.100  12.325  68.864  1.00  0.00     0.002 A  
HETATM    8  C   UNL     1     -11.289  10.356  69.985  1.00  0.00    -0.384 C  
HETATM    9  C   UNL     1      -8.978  13.060  68.410  1.00  0.00    -0.126 A  
HETATM   10  C   UNL     1     -11.877  11.210  71.132  1.00  0.00     0.004 C  
HETATM   11  C   UNL     1     -10.940   8.989  70.526  1.00  0.00    -0.252 A  
HETATM   12  C   UNL     1     -12.331  10.206  68.856  1.00  0.00     1.027 C  
HETATM   13  N   UNL     1     -11.494   2.591  73.482  1.00  0.00    -0.203 NA 
HETATM   14  C   UNL     1      -9.682   8.426  70.580  1.00  0.00    -0.192 A  
HETATM   15  C   UNL     1      -8.870   6.135  71.495  1.00  0.00    -0.135 A  
HETATM   16  C   UNL     1      -8.512   9.108  70.087  1.00  0.00    -0.176 C  
HETATM   17  C   UNL     1      -9.795   7.149  71.177  1.00  0.00    -0.180 A  
HETATM   18  O   UNL     1      -7.385   8.626  70.144  1.00  0.00    -0.049 OA 
HETATM   19  C   UNL     1      -9.322   4.959  72.095  1.00  0.00    -0.167 A  
HETATM   20  C   UNL     1     -11.146   6.956  71.471  1.00  0.00    -0.244 A  
HETATM   21  C   UNL     1     -11.617   5.783  72.071  1.00  0.00    -0.226 A  
HETATM   22  N   UNL     1     -11.821   8.087  71.067  1.00  0.00    -0.336 NA 
HETATM   23  C   UNL     1     -11.122   3.571  72.990  1.00  0.00     0.006 C  
HETATM   24  C   UNL     1     -10.679   4.783  72.376  1.00  0.00    -0.216 A  
HETATM   25  H   UNL     1     -12.827   8.233  71.157  1.00  0.00     0.000 HD 
BRANCH   9  26
HETATM   26  N   UNL     1      -9.158  14.375  68.006  1.00  0.00    -0.181 NA 
HETATM   27  C   UNL     1     -10.615  16.273  68.204  1.00  0.00    -0.307 C  
HETATM   28  C   UNL     1      -9.578  15.424  68.937  1.00  0.00    -0.220 C  
HETATM   29  C   UNL     1      -9.982  16.935  66.954  1.00  0.00    -0.279 C  
HETATM   30  C   UNL     1      -8.463  14.902  66.822  1.00  0.00    -0.180 C  
HETATM   31  C   UNL     1      -9.439  15.795  66.063  1.00  0.00    -0.392 C  
BRANCH  29  32
HETATM   32  N   UNL     1      -8.937  17.936  67.316  1.00  0.00    -0.247 NA 
HETATM   33  C   UNL     1      -8.652  18.906  66.229  1.00  0.00    -0.257 C  
HETATM   34  C   UNL     1      -9.827  19.856  65.949  1.00  0.00    -0.352 C  
HETATM   35  O   UNL     1     -10.206  20.582  67.126  1.00  0.00    -0.380 OA 
HETATM   36  C   UNL     1     -10.485  19.704  68.225  1.00  0.00    -0.329 C  
HETATM   37  C   UNL     1      -9.306  18.756  68.498  1.00  0.00    -0.350 C  
ENDBRANCH  29  32
ENDBRANCH   9  26
ENDBRANCH   2   3
TORSDOF 3
ENDMDL
MODEL       31
REMARK 921   NORMALIZED FREE ENERGY PREDICTED BY IDOCK:   -3.76 KCAL/MOL
REMARK 922        TOTAL FREE ENERGY PREDICTED BY IDOCK:   -5.34 KCAL/MOL
REMARK 923 INTER-LIGAND FREE ENERGY PREDICTED BY IDOCK:   -7.13 KCAL/MOL
REMARK 924 INTRA-LIGAND FREE ENERGY PREDICTED BY IDOCK:    1.79 KCAL/MOL
REMARK 927      BINDING AFFINITY PREDICTED BY RF-SCORE:    0.00 PKD
ROOT
HETATM    1  C   UNL     1     -11.907   6.356  69.775  1.00  0.00    -0.071 C  
HETATM    2  C   UNL     1     -11.140   7.605  70.212  1.00  0.00    -0.256 C  
ENDROOT
BRANCH   2   3
HETATM    3  C   UNL     1     -10.687   8.570  69.125  1.00  0.00    -0.128 A  
HETATM    4  C   UNL     1     -10.948   9.940  69.300  1.00  0.00    -0.244 A  
HETATM    5  C   UNL     1     -10.477  10.913  68.414  1.00  0.00    -0.206 A  
HETATM    6  C   UNL     1      -9.745  10.544  67.277  1.00  0.00    -0.197 A  
HETATM    7  C   UNL     1      -9.522   9.170  67.085  1.00  0.00    -0.197 A  
HETATM    8  C   UNL     1      -9.165  11.574  66.286  1.00  0.00    -0.222 C  
HETATM    9  C   UNL     1      -9.946   8.163  67.986  1.00  0.00    -0.184 A  
HETATM   10  C   UNL     1      -7.623  11.470  66.282  1.00  0.00     0.098 C  
HETATM   11  C   UNL     1      -9.557  12.971  66.708  1.00  0.00    -0.248 A  
HETATM   12  C   UNL     1      -9.714  11.298  64.870  1.00  0.00    -0.297 C  
HETATM   13  N   UNL     1     -10.213  20.009  66.858  1.00  0.00    -0.453 NA 
HETATM   14  C   UNL     1     -10.282  13.315  67.830  1.00  0.00    -0.233 A  
HETATM   15  C   UNL     1     -11.019  15.631  68.748  1.00  0.00    -0.281 A  
HETATM   16  C   UNL     1     -10.780  12.330  68.756  1.00  0.00    -0.214 C  
HETATM   17  C   UNL     1     -10.406  14.725  67.861  1.00  0.00    -0.240 A  
HETATM   18  O   UNL     1     -11.411  12.623  69.767  1.00  0.00    -0.226 OA 
HETATM   19  C   UNL     1     -10.960  16.999  68.479  1.00  0.00    -0.247 A  
HETATM   20  C   UNL     1      -9.749  15.214  66.731  1.00  0.00    -0.242 A  
HETATM   21  C   UNL     1      -9.681  16.582  66.444  1.00  0.00    -0.305 A  
HETATM   22  N   UNL     1      -9.242  14.131  66.047  1.00  0.00    -0.513 NA 
HETATM   23  C   UNL     1     -10.254  18.874  67.081  1.00  0.00    -0.383 C  
HETATM   24  C   UNL     1     -10.302  17.469  67.339  1.00  0.00    -0.351 A  
HETATM   25  H   UNL     1      -8.710  14.184  65.178  1.00  0.00     0.000 HD 
BRANCH   9  26
HETATM   26  N   UNL     1      -9.540   6.855  67.769  1.00  0.00    -0.122 NA 
HETATM   27  C   UNL     1      -7.777   5.284  68.205  1.00  0.00    -0.080 C  
HETATM   28  C   UNL     1      -8.950   6.039  68.831  1.00  0.00    -0.123 C  
HETATM   29  C   UNL     1      -8.280   4.352  67.075  1.00  0.00    -0.101 C  
HETATM   30  C   UNL     1     -10.128   6.053  66.686  1.00  0.00    -0.174 C  
HETATM   31  C   UNL     1      -9.008   5.241  66.042  1.00  0.00    -0.144 C  
BRANCH  29  32
HETATM   32  N   UNL     1      -9.138   3.248  67.596  1.00  0.00    -0.157 NA 
HETATM   33  C   UNL     1      -8.661   1.898  67.205  1.00  0.00    -0.102 C  
HETATM   34  C   UNL     1      -7.327   1.517  67.869  1.00  0.00    -0.046 C  
HETATM   35  O   UNL     1      -7.418   1.577  69.299  1.00  0.00    -0.042 OA 
HETATM   36  C   UNL     1      -7.888   2.855  69.748  1.00  0.00    -0.042 C  
HETATM   37  C   UNL     1      -9.221   3.229  69.079  1.00  0.00    -0.158 C  
ENDBRANCH  29  32
ENDBRANCH   9  26
ENDBRANCH   2   3
TORSDOF 3
ENDMDL
MODEL       32
REMARK 921   NORMALIZED FREE ENERGY PREDICTED BY IDOCK:   -3.41 KCAL/MOL
REMARK 922        TOTAL FREE ENERGY PREDICTED BY IDOCK:   -4.93 KCAL/MOL
REMARK 923 INTER-LIGAND FREE ENERGY PREDICTED BY IDOCK:   -4.31 KCAL/MOL
REMARK 924 INTRA-LIGAND FREE ENERGY PREDICTED BY IDOCK:   -0.62 KCAL/MOL
REMARK 927      BINDING AFFINITY PREDICTED BY RF-SCORE:    0.00 PKD
ROOT
HETATM    1  C   UNL     1     -10.804  12.861  69.756  1.00  0.00     0.430 C  
HETATM    2  C   UNL     1      -9.325  12.707  69.398  1.00  0.00     1.200 C  
ENDROOT
BRANCH   2   3
HETATM    3  C   UNL     1      -8.988  12.057  68.063  1.00  0.00    -0.187 A  
HETATM    4  C   UNL     1      -8.911  10.655  68.005  1.00  0.00    -0.140 A  
HETATM    5  C   UNL     1      -8.716   9.963  66.806  1.00  0.00    -0.137 A  
HETATM    6  C   UNL     1      -8.550  10.660  65.602  1.00  0.00    -0.187 A  
HETATM    7  C   UNL     1      -8.585  12.063  65.671  1.00  0.00     0.492 A  
HETATM    8  C   UNL     1      -8.371   9.951  64.243  1.00  0.00    -0.167 C  
HETATM    9  C   UNL     1      -8.826  12.793  66.861  1.00  0.00    -0.194 A  
HETATM   10  C   UNL     1      -9.553  10.314  63.317  1.00  0.00    -0.305 C  
HETATM   11  C   UNL     1      -8.352   8.453  64.443  1.00  0.00    -0.097 A  
HETATM   12  C   UNL     1      -7.041  10.395  63.597  1.00  0.00     0.005 C  
HETATM   13  N   UNL     1      -8.006   1.508  63.166  1.00  0.00    -0.055 NA 
HETATM   14  C   UNL     1      -8.514   7.784  65.638  1.00  0.00    -0.153 A  
HETATM   15  C   UNL     1      -8.555   5.245  66.186  1.00  0.00    -0.120 A  
HETATM   16  C   UNL     1      -8.714   8.476  66.887  1.00  0.00    -0.128 C  
HETATM   17  C   UNL     1      -8.451   6.394  65.378  1.00  0.00    -0.126 A  
HETATM   18  O   UNL     1      -8.877   7.893  67.955  1.00  0.00    -0.124 OA 
HETATM   19  C   UNL     1      -8.441   3.984  65.602  1.00  0.00    -0.109 A  
HETATM   20  C   UNL     1      -8.239   6.247  64.008  1.00  0.00     0.003 A  
HETATM   21  C   UNL     1      -8.120   4.990  63.403  1.00  0.00    -0.104 A  
HETATM   22  N   UNL     1      -8.182   7.511  63.460  1.00  0.00    -0.350 NA 
HETATM   23  C   UNL     1      -8.107   2.556  63.647  1.00  0.00    -0.081 C  
HETATM   24  C   UNL     1      -8.222   3.858  64.227  1.00  0.00    -0.090 A  
HETATM   25  H   UNL     1      -8.036   7.715  62.472  1.00  0.00     0.000 HD 
BRANCH   9  26
HETATM   26  N   UNL     1      -8.989  14.168  66.782  1.00  0.00    -0.234 NA 
HETATM   27  C   UNL     1     -10.073  15.916  65.543  1.00  0.00    -0.353 C  
HETATM   28  C   UNL     1     -10.295  14.784  66.546  1.00  0.00    -0.286 C  
HETATM   29  C   UNL     1      -9.116  16.979  66.137  1.00  0.00    -0.204 C  
HETATM   30  C   UNL     1      -8.032  15.078  67.429  1.00  0.00    -0.194 C  
HETATM   31  C   UNL     1      -7.796  16.257  66.490  1.00  0.00    -0.298 C  
BRANCH  29  32
HETATM   32  N   UNL     1      -9.718  17.689  67.303  1.00  0.00    -0.277 NA 
HETATM   33  C   UNL     1      -8.728  18.460  68.096  1.00  0.00    -0.302 C  
HETATM   34  C   UNL     1      -8.155  19.666  67.333  1.00  0.00    -0.288 C  
HETATM   35  O   UNL     1      -9.195  20.556  66.903  1.00  0.00    -0.334 OA 
HETATM   36  C   UNL     1     -10.198  19.872  66.140  1.00  0.00    -0.503 C  
HETATM   37  C   UNL     1     -10.764  18.667  66.909  1.00  0.00    -0.309 C  
ENDBRANCH  29  32
ENDBRANCH   9  26
ENDBRANCH   2   3
TORSDOF 3
ENDMDL
MODEL       33
REMARK 921   NORMALIZED FREE ENERGY PREDICTED BY IDOCK:   -3.37 KCAL/MOL
REMARK 922        TOTAL FREE ENERGY PREDICTED BY IDOCK:   -4.88 KCAL/MOL
REMARK 923 INTER-LIGAND FREE ENERGY PREDICTED BY IDOCK:   -6.45 KCAL/MOL
REMARK 924 INTRA-LIGAND FREE ENERGY PREDICTED BY IDOCK:    1.57 KCAL/MOL
REMARK 927      BINDING AFFINITY PREDICTED BY RF-SCORE:    0.00 PKD
ROOT
HETATM    1  C   UNL     1      -9.736   2.845  69.199  1.00  0.00     0.102 C  
HETATM    2  C   UNL     1      -9.181   4.055  69.952  1.00  0.00    -0.213 C  
ENDROOT
BRANCH   2   3
HETATM    3  C   UNL     1      -9.425   5.432  69.349  1.00  0.00    -0.181 A  
HETATM    4  C   UNL     1     -10.183   6.358  70.087  1.00  0.00    -0.229 A  
HETATM    5  C   UNL     1     -10.369   7.678  69.669  1.00  0.00    -0.213 A  
HETATM    6  C   UNL     1      -9.825   8.124  68.457  1.00  0.00    -0.190 A  
HETATM    7  C   UNL     1      -9.103   7.183  67.702  1.00  0.00    -0.127 A  
HETATM    8  C   UNL     1      -9.962   9.579  67.964  1.00  0.00    -0.198 C  
HETATM    9  C   UNL     1      -8.858   5.852  68.118  1.00  0.00    -0.110 A  
HETATM   10  C   UNL     1      -8.559  10.220  67.861  1.00  0.00    -0.118 C  
HETATM   11  C   UNL     1     -10.791  10.378  68.942  1.00  0.00    -0.236 A  
HETATM   12  C   UNL     1     -10.649   9.596  66.581  1.00  0.00    -0.173 C  
HETATM   13  N   UNL     1     -14.250  15.717  72.029  1.00  0.00    -0.467 NA 
HETATM   14  C   UNL     1     -11.322   9.921  70.131  1.00  0.00    -0.335 A  
HETATM   15  C   UNL     1     -12.725  11.127  71.954  1.00  0.00    -0.293 A  
HETATM   16  C   UNL     1     -11.146   8.563  70.581  1.00  0.00    -0.252 C  
HETATM   17  C   UNL     1     -12.007  10.994  70.749  1.00  0.00    -0.436 A  
HETATM   18  O   UNL     1     -11.598   8.149  71.644  1.00  0.00    -0.258 OA 
HETATM   19  C   UNL     1     -13.299  12.357  72.277  1.00  0.00    -0.427 A  
HETATM   20  C   UNL     1     -11.884  12.096  69.903  1.00  0.00    -0.319 A  
HETATM   21  C   UNL     1     -12.455  13.337  70.208  1.00  0.00    -0.255 A  
HETATM   22  N   UNL     1     -11.141  11.698  68.812  1.00  0.00    -0.212 NA 
HETATM   23  C   UNL     1     -13.766  14.699  71.760  1.00  0.00    -0.415 C  
HETATM   24  C   UNL     1     -13.169  13.448  71.413  1.00  0.00    -0.329 A  
HETATM   25  H   UNL     1     -10.889  12.296  68.025  1.00  0.00     0.000 HD 
BRANCH   9  26
HETATM   26  N   UNL     1      -8.007   5.060  67.363  1.00  0.00    -0.095 NA 
HETATM   27  C   UNL     1      -5.702   4.473  67.032  1.00  0.00    -0.022 C  
HETATM   28  C   UNL     1      -6.901   4.312  67.965  1.00  0.00    -0.051 C  
HETATM   29  C   UNL     1      -6.018   3.868  65.641  1.00  0.00    -0.023 C  
HETATM   30  C   UNL     1      -8.441   4.504  66.072  1.00  0.00    -0.114 C  
HETATM   31  C   UNL     1      -7.268   4.599  65.101  1.00  0.00    -0.067 C  
BRANCH  29  32
HETATM   32  N   UNL     1      -6.192   2.388  65.697  1.00  0.00    -0.023 NA 
HETATM   33  C   UNL     1      -7.545   1.939  65.285  1.00  0.00    -0.070 C  
HETATM   34  C   UNL     1      -7.826   2.171  63.791  1.00  0.00    -0.065 C  
HETATM   35  O   UNL     1      -6.852   1.514  62.967  1.00  0.00    -0.020 OA 
HETATM   36  C   UNL     1      -5.515   1.893  63.321  1.00  0.00    -0.008 C  
HETATM   37  C   UNL     1      -5.244   1.660  64.817  1.00  0.00    -0.005 C  
ENDBRANCH  29  32
ENDBRANCH   9  26
ENDBRANCH   2   3
TORSDOF 3
ENDMDL
MODEL       34
REMARK 921   NORMALIZED FREE ENERGY PREDICTED BY IDOCK:   -3.36 KCAL/MOL
REMARK 922        TOTAL FREE ENERGY PREDICTED BY IDOCK:   -4.87 KCAL/MOL
REMARK 923 INTER-LIGAND FREE ENERGY PREDICTED BY IDOCK:   -4.67 KCAL/MOL
REMARK 924 INTRA-LIGAND FREE ENERGY PREDICTED BY IDOCK:   -0.20 KCAL/MOL
REMARK 927      BINDING AFFINITY PREDICTED BY RF-SCORE:    0.00 PKD
ROOT
HETATM    1  C   UNL     1      -8.102   9.019  62.387  1.00  0.00    -0.151 C  
HETATM    2  C   UNL     1      -9.147   8.776  63.478  1.00  0.00     0.553 C  
ENDROOT
BRANCH   2   3
HETATM    3  C   UNL     1      -9.051   9.615  64.745  1.00  0.00    -0.283 A  
HETATM    4  C   UNL     1      -9.303  10.994  64.652  1.00  0.00    -0.235 A  
HETATM    5  C   UNL     1      -9.347  11.827  65.774  1.00  0.00    -0.197 A  
HETATM    6  C   UNL     1      -9.099  11.310  67.053  1.00  0.00    -0.167 A  
HETATM    7  C   UNL     1      -8.806   9.938  67.136  1.00  0.00    -0.146 A  
HETATM    8  C   UNL     1      -9.172  12.171  68.331  1.00  0.00    -0.154 C  
HETATM    9  C   UNL     1      -8.799   9.059  66.025  1.00  0.00    -0.175 A  
HETATM   10  C   UNL     1     -10.294  11.632  69.247  1.00  0.00     0.034 C  
HETATM   11  C   UNL     1      -9.487  13.603  67.969  1.00  0.00    -0.209 A  
HETATM   12  C   UNL     1      -7.819  12.118  69.071  1.00  0.00     0.167 C  
HETATM   13  N   UNL     1     -10.829  20.526  68.489  1.00  0.00     0.377 NA 
HETATM   14  C   UNL     1      -9.725  14.095  66.702  1.00  0.00    -0.297 A  
HETATM   15  C   UNL     1     -10.315  16.487  65.878  1.00  0.00    -0.365 A  
HETATM   16  C   UNL     1      -9.682  13.257  65.530  1.00  0.00    -0.042 C  
HETATM   17  C   UNL     1     -10.000  15.479  66.811  1.00  0.00    -0.257 A  
HETATM   18  O   UNL     1      -9.909  13.678  64.400  1.00  0.00    -0.165 OA 
HETATM   19  C   UNL     1     -10.531  17.791  66.325  1.00  0.00    -0.307 A  
HETATM   20  C   UNL     1      -9.912  15.806  68.164  1.00  0.00    -0.214 A  
HETATM   21  C   UNL     1     -10.123  17.108  68.631  1.00  0.00    -0.329 A  
HETATM   22  N   UNL     1      -9.599  14.651  68.848  1.00  0.00    -0.276 NA 
HETATM   23  C   UNL     1     -10.656  19.441  68.123  1.00  0.00    -0.278 C  
HETATM   24  C   UNL     1     -10.432  18.099  67.684  1.00  0.00    -0.432 A  
HETATM   25  H   UNL     1      -9.471  14.584  69.857  1.00  0.00     0.000 HD 
BRANCH   9  26
HETATM   26  N   UNL     1      -8.645   7.699  66.249  1.00  0.00    -0.137 NA 
HETATM   27  C   UNL     1      -9.235   5.907  67.734  1.00  0.00    -0.108 C  
HETATM   28  C   UNL     1      -9.764   6.845  66.650  1.00  0.00    -0.163 C  
HETATM   29  C   UNL     1      -8.102   5.016  67.167  1.00  0.00    -0.107 C  
HETATM   30  C   UNL     1      -7.549   6.950  65.614  1.00  0.00    -0.089 C  
HETATM   31  C   UNL     1      -7.000   5.962  66.640  1.00  0.00    -0.064 C  
BRANCH  29  32
HETATM   32  N   UNL     1      -8.597   4.067  66.128  1.00  0.00    -0.109 NA 
HETATM   33  C   UNL     1      -7.558   3.680  65.142  1.00  0.00    -0.077 C  
HETATM   34  C   UNL     1      -6.439   2.823  65.755  1.00  0.00    -0.028 C  
HETATM   35  O   UNL     1      -6.963   1.634  66.363  1.00  0.00    -0.040 OA 
HETATM   36  C   UNL     1      -7.986   1.934  67.321  1.00  0.00    -0.066 C  
HETATM   37  C   UNL     1      -9.100   2.793  66.701  1.00  0.00    -0.136 C  
ENDBRANCH  29  32
ENDBRANCH   9  26
ENDBRANCH   2   3
TORSDOF 3
ENDMDL
MODEL       35
REMARK 921   NORMALIZED FREE ENERGY PREDICTED BY IDOCK:   -3.08 KCAL/MOL
REMARK 922        TOTAL FREE ENERGY PREDICTED BY IDOCK:   -4.55 KCAL/MOL
REMARK 923 INTER-LIGAND FREE ENERGY PREDICTED BY IDOCK:   -5.48 KCAL/MOL
REMARK 924 INTRA-LIGAND FREE ENERGY PREDICTED BY IDOCK:    0.93 KCAL/MOL
REMARK 927      BINDING AFFINITY PREDICTED BY RF-SCORE:    0.00 PKD
ROOT
HETATM    1  C   UNL     1     -12.210  13.260  65.965  1.00  0.00    -0.483 C  
HETATM    2  C   UNL     1     -11.301  13.048  67.176  1.00  0.00    -0.348 C  
ENDROOT
BRANCH   2   3
HETATM    3  C   UNL     1     -11.068  11.617  67.641  1.00  0.00    -0.314 A  
HETATM    4  C   UNL     1     -10.505  10.705  66.733  1.00  0.00    -0.303 A  
HETATM    5  C   UNL     1     -10.154   9.402  67.097  1.00  0.00    -0.292 A  
HETATM    6  C   UNL     1     -10.389   8.940  68.400  1.00  0.00    -0.237 A  
HETATM    7  C   UNL     1     -10.991   9.843  69.293  1.00  0.00    -0.244 A  
HETATM    8  C   UNL     1      -9.987   7.528  68.871  1.00  0.00    -0.168 C  
HETATM    9  C   UNL     1     -11.317  11.182  68.968  1.00  0.00    -0.276 A  
HETATM   10  C   UNL     1      -8.941   7.645  70.003  1.00  0.00    -0.143 C  
HETATM   11  C   UNL     1      -9.377   6.756  67.724  1.00  0.00    -0.116 A  
HETATM   12  C   UNL     1     -11.234   6.777  69.385  1.00  0.00    -0.288 C  
HETATM   13  N   UNL     1      -6.379   1.589  63.942  1.00  0.00    -0.013 NA 
HETATM   14  C   UNL     1      -9.155   7.227  66.446  1.00  0.00    -0.192 A  
HETATM   15  C   UNL     1      -8.097   6.091  64.364  1.00  0.00    -0.119 A  
HETATM   16  C   UNL     1      -9.512   8.565  66.046  1.00  0.00    -0.186 C  
HETATM   17  C   UNL     1      -8.550   6.193  65.694  1.00  0.00    -0.148 A  
HETATM   18  O   UNL     1      -9.305   9.002  64.918  1.00  0.00    -0.104 OA 
HETATM   19  C   UNL     1      -7.534   4.893  63.922  1.00  0.00    -0.060 A  
HETATM   20  C   UNL     1      -8.423   5.093  66.544  1.00  0.00    -0.111 A  
HETATM   21  C   UNL     1      -7.862   3.884  66.118  1.00  0.00    -0.090 A  
HETATM   22  N   UNL     1      -8.932   5.459  67.771  1.00  0.00    -0.109 NA 
HETATM   23  C   UNL     1      -6.841   2.583  64.315  1.00  0.00    -0.039 C  
HETATM   24  C   UNL     1      -7.421   3.802  64.787  1.00  0.00    -0.073 A  
HETATM   25  H   UNL     1      -8.972   4.856  68.592  1.00  0.00     0.000 HD 
BRANCH   9  26
HETATM   26  N   UNL     1     -11.768  12.024  69.974  1.00  0.00    -0.300 NA 
HETATM   27  C   UNL     1     -13.377  12.228  71.744  1.00  0.00    -0.353 C  
HETATM   28  C   UNL     1     -12.086  11.532  71.315  1.00  0.00     0.080 C  
HETATM   29  C   UNL     1     -13.166  13.762  71.808  1.00  0.00    -0.386 C  
HETATM   30  C   UNL     1     -11.462  13.463  69.946  1.00  0.00    -0.111 C  
HETATM   31  C   UNL     1     -12.707  14.217  70.404  1.00  0.00    -0.341 C  
BRANCH  29  32
HETATM   32  N   UNL     1     -12.211  14.153  72.885  1.00  0.00     0.104 NA 
HETATM   33  C   UNL     1     -11.181  15.122  72.433  1.00  0.00     0.001 C  
HETATM   34  C   UNL     1     -11.763  16.504  72.096  1.00  0.00    -0.250 C  
HETATM   35  O   UNL     1     -12.463  17.065  73.215  1.00  0.00     0.153 OA 
HETATM   36  C   UNL     1     -13.469  16.173  73.713  1.00  0.00     0.101 C  
HETATM   37  C   UNL     1     -12.879  14.793  74.047  1.00  0.00     0.280 C  
ENDBRANCH  29  32
ENDBRANCH   9  26
ENDBRANCH   2   3
TORSDOF 3
ENDMDL
MODEL       36
REMARK 921   NORMALIZED FREE ENERGY PREDICTED BY IDOCK:   -2.55 KCAL/MOL
REMARK 922        TOTAL FREE ENERGY PREDICTED BY IDOCK:   -3.91 KCAL/MOL
REMARK 923 INTER-LIGAND FREE ENERGY PREDICTED BY IDOCK:   -4.24 KCAL/MOL
REMARK 924 INTRA-LIGAND FREE ENERGY PREDICTED BY IDOCK:    0.32 KCAL/MOL
REMARK 927      BINDING AFFINITY PREDICTED BY RF-SCORE:    0.00 PKD
ROOT
HETATM    1  C   UNL     1     -11.291  14.585  67.704  1.00  0.00    -0.354 C  
HETATM    2  C   UNL     1     -10.301  13.724  66.918  1.00  0.00    -0.266 C  
ENDROOT
BRANCH   2   3
HETATM    3  C   UNL     1      -9.386  12.801  67.710  1.00  0.00    -0.199 A  
HETATM    4  C   UNL     1      -9.721  11.439  67.790  1.00  0.00    -0.184 A  
HETATM    5  C   UNL     1      -8.889  10.495  68.400  1.00  0.00    -0.140 A  
HETATM    6  C   UNL     1      -7.684  10.891  68.997  1.00  0.00    -0.135 A  
HETATM    7  C   UNL     1      -7.373  12.261  68.950  1.00  0.00    -0.041 A  
HETATM    8  C   UNL     1      -6.707   9.891  69.648  1.00  0.00    -0.061 C  
HETATM    9  C   UNL     1      -8.171  13.234  68.301  1.00  0.00    -0.156 A  
HETATM   10  C   UNL     1      -5.363   9.916  68.885  1.00  0.00    -0.036 C  
HETATM   11  C   UNL     1      -7.278   8.494  69.581  1.00  0.00    -0.052 A  
HETATM   12  C   UNL     1      -6.478  10.276  71.126  1.00  0.00     0.292 C  
HETATM   13  N   UNL     1      -8.037   1.502  70.307  1.00  0.00    -0.041 NA 
HETATM   14  C   UNL     1      -8.469   8.124  68.992  1.00  0.00    -0.129 A  
HETATM   15  C   UNL     1      -9.602   5.800  68.735  1.00  0.00    -0.156 A  
HETATM   16  C   UNL     1      -9.345   9.078  68.360  1.00  0.00    -0.139 C  
HETATM   17  C   UNL     1      -8.615   6.723  69.133  1.00  0.00    -0.131 A  
HETATM   18  O   UNL     1     -10.398   8.760  67.817  1.00  0.00    -0.215 OA 
HETATM   19  C   UNL     1      -9.440   4.449  69.042  1.00  0.00    -0.237 A  
HETATM   20  C   UNL     1      -7.494   6.266  69.826  1.00  0.00    -0.081 A  
HETATM   21  C   UNL     1      -7.315   4.915  70.144  1.00  0.00    -0.054 A  
HETATM   22  N   UNL     1      -6.696   7.359  70.087  1.00  0.00    -0.049 NA 
HETATM   23  C   UNL     1      -8.165   2.624  70.048  1.00  0.00    -0.041 C  
HETATM   24  C   UNL     1      -8.312   4.012  69.741  1.00  0.00    -0.080 A  
HETATM   25  H   UNL     1      -5.805   7.330  70.582  1.00  0.00     0.000 HD 
BRANCH   9  26
HETATM   26  N   UNL     1      -7.689  14.529  68.190  1.00  0.00    -0.117 NA 
HETATM   27  C   UNL     1      -7.912  16.754  69.067  1.00  0.00    -0.188 C  
HETATM   28  C   UNL     1      -7.387  15.350  69.364  1.00  0.00    -0.213 C  
HETATM   29  C   UNL     1      -7.183  17.350  67.837  1.00  0.00    -0.188 C  
HETATM   30  C   UNL     1      -6.970  14.965  66.984  1.00  0.00     0.413 C  
HETATM   31  C   UNL     1      -7.423  16.385  66.654  1.00  0.00    -0.267 C  
BRANCH  29  32
HETATM   32  N   UNL     1      -5.736  17.592  68.102  1.00  0.00    -0.153 NA 
HETATM   33  C   UNL     1      -5.297  18.968  67.760  1.00  0.00    -0.170 C  
HETATM   34  C   UNL     1      -5.906  20.039  68.680  1.00  0.00    -0.250 C  
HETATM   35  O   UNL     1      -5.594  19.785  70.057  1.00  0.00    -0.222 OA 
HETATM   36  C   UNL     1      -5.980  18.463  70.454  1.00  0.00    -0.017 C  
HETATM   37  C   UNL     1      -5.368  17.399  69.528  1.00  0.00    -0.178 C  
ENDBRANCH  29  32
ENDBRANCH   9  26
ENDBRANCH   2   3
TORSDOF 3
ENDMDL
MODEL       37
REMARK 921   NORMALIZED FREE ENERGY PREDICTED BY IDOCK:   -2.43 KCAL/MOL
REMARK 922        TOTAL FREE ENERGY PREDICTED BY IDOCK:   -3.77 KCAL/MOL
REMARK 923 INTER-LIGAND FREE ENERGY PREDICTED BY IDOCK:   -3.98 KCAL/MOL
REMARK 924 INTRA-LIGAND FREE ENERGY PREDICTED BY IDOCK:    0.21 KCAL/MOL
REMARK 927      BINDING AFFINITY PREDICTED BY RF-SCORE:    0.00 PKD
ROOT
HETATM    1  C   UNL     1      -5.132  14.434  70.883  1.00  0.00    -0.117 C  
HETATM    2  C   UNL     1      -6.548  14.079  70.426  1.00  0.00     0.090 C  
ENDROOT
BRANCH   2   3
HETATM    3  C   UNL     1      -6.689  13.155  69.224  1.00  0.00    -0.061 A  
HETATM    4  C   UNL     1      -6.480  11.779  69.414  1.00  0.00    -0.120 A  
HETATM    5  C   UNL     1      -6.692  10.840  68.400  1.00  0.00    -0.059 A  
HETATM    6  C   UNL     1      -7.095  11.253  67.123  1.00  0.00    -0.125 A  
HETATM    7  C   UNL     1      -7.263  12.634  66.926  1.00  0.00     0.206 A  
HETATM    8  C   UNL     1      -7.384  10.261  65.977  1.00  0.00    -0.129 C  
HETATM    9  C   UNL     1      -7.100  13.606  67.943  1.00  0.00    -0.149 A  
HETATM   10  C   UNL     1      -8.869  10.374  65.563  1.00  0.00    -0.193 C  
HETATM   11  C   UNL     1      -7.115   8.848  66.439  1.00  0.00    -0.083 A  
HETATM   12  C   UNL     1      -6.477  10.583  64.770  1.00  0.00     0.012 C  
HETATM   13  N   UNL     1      -6.496   1.805  66.512  1.00  0.00    -0.023 NA 
HETATM   14  C   UNL     1      -6.715   8.460  67.701  1.00  0.00    -0.066 A  
HETATM   15  C   UNL     1      -6.242   6.110  68.700  1.00  0.00    -0.036 A  
HETATM   16  C   UNL     1      -6.487   9.410  68.761  1.00  0.00    -0.048 C  
HETATM   17  C   UNL     1      -6.599   7.050  67.714  1.00  0.00    -0.052 A  
HETATM   18  O   UNL     1      -6.148   9.078  69.893  1.00  0.00    -0.033 OA 
HETATM   19  C   UNL     1      -6.222   4.753  68.378  1.00  0.00    -0.032 A  
HETATM   20  C   UNL     1      -6.927   6.604  66.434  1.00  0.00    -0.062 A  
HETATM   21  C   UNL     1      -6.911   5.247  66.091  1.00  0.00    -0.058 A  
HETATM   22  N   UNL     1      -7.237   7.713  65.677  1.00  0.00    -0.064 NA 
HETATM   23  C   UNL     1      -6.521   2.932  66.777  1.00  0.00    -0.036 C  
HETATM   24  C   UNL     1      -6.548   4.327  67.088  1.00  0.00    -0.046 A  
HETATM   25  H   UNL     1      -7.516   7.694  64.696  1.00  0.00     0.000 HD 
BRANCH   9  26
HETATM   26  N   UNL     1      -7.438  14.923  67.671  1.00  0.00    -0.168 NA 
HETATM   27  C   UNL     1      -8.960  16.310  66.435  1.00  0.00    -0.343 C  
HETATM   28  C   UNL     1      -8.830  15.377  67.639  1.00  0.00    -0.174 C  
HETATM   29  C   UNL     1      -8.034  17.539  66.605  1.00  0.00    -0.253 C  
HETATM   30  C   UNL     1      -6.483  16.013  67.919  1.00  0.00    -0.143 C  
HETATM   31  C   UNL     1      -6.593  17.005  66.765  1.00  0.00    -0.262 C  
BRANCH  29  32
HETATM   32  N   UNL     1      -8.457  18.410  67.740  1.00  0.00    -0.256 NA 
HETATM   33  C   UNL     1      -7.318  18.971  68.508  1.00  0.00    -0.306 C  
HETATM   34  C   UNL     1      -6.494  19.989  67.702  1.00  0.00    -0.224 C  
HETATM   35  O   UNL     1      -7.310  21.071  67.233  1.00  0.00    -0.363 OA 
HETATM   36  C   UNL     1      -8.443  20.599  66.491  1.00  0.00     0.118 C  
HETATM   37  C   UNL     1      -9.260  19.581  67.303  1.00  0.00    -0.315 C  
ENDBRANCH  29  32
ENDBRANCH   9  26
ENDBRANCH   2   3
TORSDOF 3
ENDMDL
MODEL       38
REMARK 921   NORMALIZED FREE ENERGY PREDICTED BY IDOCK:   -1.84 KCAL/MOL
REMARK 922        TOTAL FREE ENERGY PREDICTED BY IDOCK:   -3.08 KCAL/MOL
REMARK 923 INTER-LIGAND FREE ENERGY PREDICTED BY IDOCK:   -2.15 KCAL/MOL
REMARK 924 INTRA-LIGAND FREE ENERGY PREDICTED BY IDOCK:   -0.93 KCAL/MOL
REMARK 927      BINDING AFFINITY PREDICTED BY RF-SCORE:    0.00 PKD
ROOT
HETATM    1  C   UNL     1      -8.517   8.550  63.500  1.00  0.00    -0.036 C  
HETATM    2  C   UNL     1      -9.525   8.625  64.648  1.00  0.00     0.857 C  
ENDROOT
BRANCH   2   3
HETATM    3  C   UNL     1      -9.293   9.680  65.722  1.00  0.00    -0.286 A  
HETATM    4  C   UNL     1      -9.482  11.030  65.382  1.00  0.00    -0.257 A  
HETATM    5  C   UNL     1      -9.400  12.060  66.323  1.00  0.00    -0.228 A  
HETATM    6  C   UNL     1      -9.084  11.778  67.659  1.00  0.00    -0.177 A  
HETATM    7  C   UNL     1      -8.856  10.430  67.986  1.00  0.00    -0.130 A  
HETATM    8  C   UNL     1      -9.019  12.867  68.750  1.00  0.00     0.175 C  
HETATM    9  C   UNL     1      -8.975   9.360  67.067  1.00  0.00    -0.130 A  
HETATM   10  C   UNL     1     -10.096  12.583  69.822  1.00  0.00     1.526 C  
HETATM   11  C   UNL     1      -9.287  14.223  68.141  1.00  0.00    -0.206 A  
HETATM   12  C   UNL     1      -7.619  12.868  69.400  1.00  0.00     0.531 C  
HETATM   13  N   UNL     1     -10.236  21.190  67.405  1.00  0.00     0.360 NA 
HETATM   14  C   UNL     1      -9.593  14.482  66.820  1.00  0.00    -0.274 A  
HETATM   15  C   UNL     1     -10.121  16.708  65.591  1.00  0.00    -0.244 A  
HETATM   16  C   UNL     1      -9.680  13.437  65.831  1.00  0.00    -0.182 C  
HETATM   17  C   UNL     1      -9.789  15.876  66.678  1.00  0.00    -0.267 A  
HETATM   18  O   UNL     1      -9.969  13.651  64.658  1.00  0.00    -0.277 OA 
HETATM   19  C   UNL     1     -10.238  18.084  65.792  1.00  0.00    -0.115 A  
HETATM   20  C   UNL     1      -9.585  16.445  67.935  1.00  0.00    -0.228 A  
HETATM   21  C   UNL     1      -9.695  17.823  68.156  1.00  0.00    -0.313 A  
HETATM   22  N   UNL     1      -9.281  15.422  68.807  1.00  0.00    -0.194 NA 
HETATM   23  C   UNL     1     -10.146  20.047  67.244  1.00  0.00    -0.437 C  
HETATM   24  C   UNL     1     -10.023  18.635  67.058  1.00  0.00    -0.368 A  
HETATM   25  H   UNL     1      -9.082  15.539  69.801  1.00  0.00     0.000 HD 
BRANCH   9  26
HETATM   26  N   UNL     1      -8.874   8.059  67.537  1.00  0.00    -0.127 NA 
HETATM   27  C   UNL     1      -8.198   5.835  66.933  1.00  0.00    -0.101 C  
HETATM   28  C   UNL     1      -7.692   7.233  67.288  1.00  0.00    -0.109 C  
HETATM   29  C   UNL     1      -8.991   5.234  68.121  1.00  0.00    -0.109 C  
HETATM   30  C   UNL     1      -9.647   7.618  68.707  1.00  0.00    -0.153 C  
HETATM   31  C   UNL     1     -10.152   6.204  68.431  1.00  0.00    -0.186 C  
BRANCH  29  32
HETATM   32  N   UNL     1      -8.121   4.974  69.304  1.00  0.00    -0.082 NA 
HETATM   33  C   UNL     1      -8.855   4.401  70.459  1.00  0.00    -0.091 C  
HETATM   34  C   UNL     1      -9.362   2.973  70.200  1.00  0.00    -0.158 C  
HETATM   35  O   UNL     1      -8.286   2.090  69.854  1.00  0.00    -0.041 OA 
HETATM   36  C   UNL     1      -7.522   2.591  68.749  1.00  0.00    -0.047 C  
HETATM   37  C   UNL     1      -7.020   4.020  69.016  1.00  0.00    -0.047 C  
ENDBRANCH  29  32
ENDBRANCH   9  26
ENDBRANCH   2   3
TORSDOF 3
ENDMDL
MODEL       39
REMARK 921   NORMALIZED FREE ENERGY PREDICTED BY IDOCK:   -1.40 KCAL/MOL
REMARK 922        TOTAL FREE ENERGY PREDICTED BY IDOCK:   -2.56 KCAL/MOL
REMARK 923 INTER-LIGAND FREE ENERGY PREDICTED BY IDOCK:   -3.82 KCAL/MOL
REMARK 924 INTRA-LIGAND FREE ENERGY PREDICTED BY IDOCK:    1.26 KCAL/MOL
REMARK 927      BINDING AFFINITY PREDICTED BY RF-SCORE:    0.00 PKD
ROOT
HETATM    1  C   UNL     1      -5.405   6.727  71.351  1.00  0.00    -0.027 C  
HETATM    2  C   UNL     1      -5.752   8.155  71.774  1.00  0.00    -0.036 C  
ENDROOT
BRANCH   2   3
HETATM    3  C   UNL     1      -6.136   9.141  70.679  1.00  0.00    -0.047 A  
HETATM    4  C   UNL     1      -5.940  10.512  70.918  1.00  0.00    -0.024 A  
HETATM    5  C   UNL     1      -6.158  11.483  69.937  1.00  0.00    -0.141 A  
HETATM    6  C   UNL     1      -6.624  11.119  68.666  1.00  0.00    -0.059 A  
HETATM    7  C   UNL     1      -6.858   9.750  68.445  1.00  0.00    -0.060 A  
HETATM    8  C   UNL     1      -6.844  12.141  67.532  1.00  0.00    -0.127 C  
HETATM    9  C   UNL     1      -6.604   8.738  69.402  1.00  0.00    -0.045 A  
HETATM   10  C   UNL     1      -5.897  11.813  66.356  1.00  0.00     0.173 C  
HETATM   11  C   UNL     1      -6.539  13.535  68.028  1.00  0.00    -0.137 A  
HETATM   12  C   UNL     1      -8.312  12.080  67.057  1.00  0.00    -0.178 C  
HETATM   13  N   UNL     1      -5.675  20.548  68.254  1.00  0.00    -0.254 NA 
HETATM   14  C   UNL     1      -6.084  13.875  69.285  1.00  0.00    -0.098 A  
HETATM   15  C   UNL     1      -5.466  16.178  70.316  1.00  0.00    -0.175 A  
HETATM   16  C   UNL     1      -5.855  12.892  70.314  1.00  0.00    -0.155 C  
HETATM   17  C   UNL     1      -5.906  15.278  69.325  1.00  0.00    -0.099 A  
HETATM   18  O   UNL     1      -5.433  13.179  71.430  1.00  0.00    -0.252 OA 
HETATM   19  C   UNL     1      -5.408  17.542  70.026  1.00  0.00    -0.221 A  
HETATM   20  C   UNL     1      -6.272  15.770  68.072  1.00  0.00    -0.135 A  
HETATM   21  C   UNL     1      -6.222  17.134  67.763  1.00  0.00    -0.154 A  
HETATM   22  N   UNL     1      -6.653  14.692  67.301  1.00  0.00    -0.343 NA 
HETATM   23  C   UNL     1      -5.719  19.415  68.489  1.00  0.00    -0.203 C  
HETATM   24  C   UNL     1      -5.785  18.014  68.766  1.00  0.00    -0.182 A  
HETATM   25  H   UNL     1      -6.971  14.747  66.334  1.00  0.00     0.000 HD 
BRANCH   9  26
HETATM   26  N   UNL     1      -6.729   7.410  69.021  1.00  0.00    -0.051 NA 
HETATM   27  C   UNL     1      -7.452   5.246  69.770  1.00  0.00    -0.065 C  
HETATM   28  C   UNL     1      -7.929   6.626  69.319  1.00  0.00    -0.111 C  
HETATM   29  C   UNL     1      -6.667   4.550  68.631  1.00  0.00    -0.047 C  
HETATM   30  C   UNL     1      -5.960   6.875  67.887  1.00  0.00    -0.032 C  
HETATM   31  C   UNL     1      -5.485   5.474  68.262  1.00  0.00    -0.008 C  
BRANCH  29  32
HETATM   32  N   UNL     1      -7.537   4.228  67.463  1.00  0.00    -0.073 NA 
HETATM   33  C   UNL     1      -7.075   3.045  66.694  1.00  0.00    -0.054 C  
HETATM   34  C   UNL     1      -7.207   1.730  67.479  1.00  0.00    -0.050 C  
HETATM   35  O   UNL     1      -8.560   1.505  67.901  1.00  0.00    -0.065 OA 
HETATM   36  C   UNL     1      -9.077   2.618  68.641  1.00  0.00    -0.156 C  
HETATM   37  C   UNL     1      -8.940   3.930  67.851  1.00  0.00    -0.125 C  
ENDBRANCH  29  32
ENDBRANCH   9  26
ENDBRANCH   2   3
TORSDOF 3
ENDMDL
MODEL       40
REMARK 921   NORMALIZED FREE ENERGY PREDICTED BY IDOCK:   -0.73 KCAL/MOL
REMARK 922        TOTAL FREE ENERGY PREDICTED BY IDOCK:   -1.78 KCAL/MOL
REMARK 923 INTER-LIGAND FREE ENERGY PREDICTED BY IDOCK:   -5.86 KCAL/MOL
REMARK 924 INTRA-LIGAND FREE ENERGY PREDICTED BY IDOCK:    4.07 KCAL/MOL
REMARK 927      BINDING AFFINITY PREDICTED BY RF-SCORE:    0.00 PKD
ROOT
HETATM    1  C   UNL     1     -10.591  17.750  68.873  1.00  0.00    -0.084 C  
HETATM    2  C   UNL     1     -10.034  16.960  67.687  1.00  0.00    -0.271 C  
ENDROOT
BRANCH   2   3
HETATM    3  C   UNL     1      -9.139  15.767  67.992  1.00  0.00    -0.187 A  
HETATM    4  C   UNL     1      -9.741  14.507  68.154  1.00  0.00    -0.219 A  
HETATM    5  C   UNL     1      -8.997  13.337  68.328  1.00  0.00    -0.176 A  
HETATM    6  C   UNL     1      -7.597  13.386  68.384  1.00  0.00    -0.133 A  
HETATM    7  C   UNL     1      -7.002  14.654  68.264  1.00  0.00    -0.113 A  
HETATM    8  C   UNL     1      -6.722  12.124  68.533  1.00  0.00    -0.071 C  
HETATM    9  C   UNL     1      -7.724  15.851  68.041  1.00  0.00    -0.132 A  
HETATM   10  C   UNL     1      -5.828  11.970  67.282  1.00  0.00    -0.142 C  
HETATM   11  C   UNL     1      -7.600  10.901  68.657  1.00  0.00    -0.114 A  
HETATM   12  C   UNL     1      -5.842  12.250  69.795  1.00  0.00    -0.123 C  
HETATM   13  N   UNL     1      -9.712   4.192  69.372  1.00  0.00    -0.193 NA 
HETATM   14  C   UNL     1      -8.978  10.872  68.603  1.00  0.00    -0.162 A  
HETATM   15  C   UNL     1     -10.655   8.895  68.753  1.00  0.00    -0.185 A  
HETATM   16  C   UNL     1      -9.766  12.066  68.428  1.00  0.00    -0.199 C  
HETATM   17  C   UNL     1      -9.397   9.528  68.740  1.00  0.00    -0.146 A  
HETATM   18  O   UNL     1     -10.991  12.052  68.360  1.00  0.00    -0.210 OA 
HETATM   19  C   UNL     1     -10.725   7.511  68.915  1.00  0.00    -0.135 A  
HETATM   20  C   UNL     1      -8.244   8.756  68.887  1.00  0.00    -0.118 A  
HETATM   21  C   UNL     1      -8.294   7.367  69.051  1.00  0.00    -0.126 A  
HETATM   22  N   UNL     1      -7.165   9.611  68.833  1.00  0.00    -0.070 NA 
HETATM   23  C   UNL     1      -9.650   5.339  69.231  1.00  0.00    -0.155 C  
HETATM   24  C   UNL     1      -9.558   6.756  69.066  1.00  0.00    -0.135 A  
HETATM   25  H   UNL     1      -6.188   9.329  68.913  1.00  0.00     0.000 HD 
BRANCH   9  26
HETATM   26  N   UNL     1      -7.021  17.020  67.788  1.00  0.00    -0.142 NA 
HETATM   27  C   UNL     1      -5.630  18.125  66.173  1.00  0.00    -0.212 C  
HETATM   28  C   UNL     1      -7.059  17.683  66.484  1.00  0.00    -0.247 C  
HETATM   29  C   UNL     1      -5.137  19.137  67.237  1.00  0.00    -0.160 C  
HETATM   30  C   UNL     1      -6.648  17.928  68.884  1.00  0.00    -0.241 C  
HETATM   31  C   UNL     1      -5.236  18.437  68.611  1.00  0.00    -0.177 C  
BRANCH  29  32
HETATM   32  N   UNL     1      -5.894  20.421  67.185  1.00  0.00    -0.172 NA 
HETATM   33  C   UNL     1      -5.359  21.379  66.185  1.00  0.00    -0.217 C  
HETATM   34  C   UNL     1      -5.560  20.908  64.735  1.00  0.00    -0.232 C  
HETATM   35  O   UNL     1      -6.945  20.668  64.449  1.00  0.00    -0.133 OA 
HETATM   36  C   UNL     1      -7.532  19.759  65.389  1.00  0.00    -0.042 C  
HETATM   37  C   UNL     1      -7.326  20.236  66.836  1.00  0.00    -0.282 C  
ENDBRANCH  29  32
ENDBRANCH   9  26
ENDBRANCH   2   3
TORSDOF 3
ENDMDL
MODEL       41
REMARK 921   NORMALIZED FREE ENERGY PREDICTED BY IDOCK:   -0.65 KCAL/MOL
REMARK 922        TOTAL FREE ENERGY PREDICTED BY IDOCK:   -1.68 KCAL/MOL
REMARK 923 INTER-LIGAND FREE ENERGY PREDICTED BY IDOCK:   -2.86 KCAL/MOL
REMARK 924 INTRA-LIGAND FREE ENERGY PREDICTED BY IDOCK:    1.17 KCAL/MOL
REMARK 927      BINDING AFFINITY PREDICTED BY RF-SCORE:    0.00 PKD
ROOT
HETATM    1  C   UNL     1     -12.854  13.557  71.101  1.00  0.00    -0.387 C  
HETATM    2  C   UNL     1     -12.874  12.237  70.328  1.00  0.00     0.265 C  
ENDROOT
BRANCH   2   3
HETATM    3  C   UNL     1     -11.537  11.571  70.036  1.00  0.00    -0.364 A  
HETATM    4  C   UNL     1     -11.295  10.297  70.578  1.00  0.00    -0.422 A  
HETATM    5  C   UNL     1     -10.146   9.559  70.279  1.00  0.00    -0.314 A  
HETATM    6  C   UNL     1      -9.159  10.092  69.438  1.00  0.00    -0.228 A  
HETATM    7  C   UNL     1      -9.386  11.383  68.931  1.00  0.00    -0.044 A  
HETATM    8  C   UNL     1      -7.890   9.310  69.040  1.00  0.00    -0.082 C  
HETATM    9  C   UNL     1     -10.558  12.137  69.179  1.00  0.00    -0.004 A  
HETATM   10  C   UNL     1      -7.884   9.088  67.510  1.00  0.00    -0.100 C  
HETATM   11  C   UNL     1      -7.878   7.964  69.726  1.00  0.00    -0.104 A  
HETATM   12  C   UNL     1      -6.636  10.106  69.459  1.00  0.00    -0.060 C  
HETATM   13  N   UNL     1      -5.906   1.503  71.814  1.00  0.00    -0.008 NA 
HETATM   14  C   UNL     1      -8.858   7.457  70.554  1.00  0.00    -0.148 A  
HETATM   15  C   UNL     1      -9.048   5.180  71.788  1.00  0.00    -0.157 A  
HETATM   16  C   UNL     1     -10.050   8.200  70.880  1.00  0.00    -0.188 C  
HETATM   17  C   UNL     1      -8.464   6.162  70.965  1.00  0.00    -0.128 A  
HETATM   18  O   UNL     1     -10.938   7.755  71.600  1.00  0.00    -0.230 OA 
HETATM   19  C   UNL     1      -8.378   3.974  71.998  1.00  0.00    -0.101 A  
HETATM   20  C   UNL     1      -7.225   5.909  70.375  1.00  0.00    -0.072 A  
HETATM   21  C   UNL     1      -6.537   4.707  70.575  1.00  0.00    -0.035 A  
HETATM   22  N   UNL     1      -6.890   7.017  69.627  1.00  0.00    -0.049 NA 
HETATM   23  C   UNL     1      -6.463   2.502  71.631  1.00  0.00    -0.018 C  
HETATM   24  C   UNL     1      -7.135   3.742  71.403  1.00  0.00    -0.032 A  
HETATM   25  H   UNL     1      -6.035   7.118  69.081  1.00  0.00     0.000 HD 
BRANCH   9  26
HETATM   26  N   UNL     1     -10.739  13.335  68.504  1.00  0.00    -0.257 NA 
HETATM   27  C   UNL     1     -11.091  15.690  68.813  1.00  0.00    -0.307 C  
HETATM   28  C   UNL     1     -10.060  14.567  68.913  1.00  0.00    -0.224 C  
HETATM   29  C   UNL     1     -11.577  15.846  67.350  1.00  0.00     0.159 C  
HETATM   30  C   UNL     1     -11.160  13.352  67.095  1.00  0.00    -0.286 C  
HETATM   31  C   UNL     1     -12.168  14.484  66.920  1.00  0.00    -0.220 C  
BRANCH  29  32
HETATM   32  N   UNL     1     -10.491  16.318  66.444  1.00  0.00    -0.306 NA 
HETATM   33  C   UNL     1     -10.079  15.304  65.441  1.00  0.00    -0.362 C  
HETATM   34  C   UNL     1     -11.171  15.013  64.398  1.00  0.00    -0.161 C  
HETATM   35  O   UNL     1     -11.569  16.207  63.710  1.00  0.00    -0.803 OA 
HETATM   36  C   UNL     1     -11.968  17.239  64.622  1.00  0.00     2.910 C  
HETATM   37  C   UNL     1     -10.872  17.522  65.662  1.00  0.00     0.013 C  
ENDBRANCH  29  32
ENDBRANCH   9  26
ENDBRANCH   2   3
TORSDOF 3
ENDMDL
MODEL       42
REMARK 921   NORMALIZED FREE ENERGY PREDICTED BY IDOCK:   -0.57 KCAL/MOL
REMARK 922        TOTAL FREE ENERGY PREDICTED BY IDOCK:   -1.59 KCAL/MOL
REMARK 923 INTER-LIGAND FREE ENERGY PREDICTED BY IDOCK:   -2.66 KCAL/MOL
REMARK 924 INTRA-LIGAND FREE ENERGY PREDICTED BY IDOCK:    1.07 KCAL/MOL
REMARK 927      BINDING AFFINITY PREDICTED BY RF-SCORE:    0.00 PKD
ROOT
HETATM    1  C   UNL     1      -7.608   9.007  62.963  1.00  0.00    -0.105 C  
HETATM    2  C   UNL     1      -6.528   8.411  63.868  1.00  0.00    -0.072 C  
ENDROOT
BRANCH   2   3
HETATM    3  C   UNL     1      -6.520   8.835  65.330  1.00  0.00    -0.064 A  
HETATM    4  C   UNL     1      -6.195  10.167  65.635  1.00  0.00    -0.101 A  
HETATM    5  C   UNL     1      -6.266  10.678  66.934  1.00  0.00    -0.070 A  
HETATM    6  C   UNL     1      -6.638   9.852  68.004  1.00  0.00    -0.060 A  
HETATM    7  C   UNL     1      -6.922   8.510  67.699  1.00  0.00    -0.078 A  
HETATM    8  C   UNL     1      -6.774  10.369  69.451  1.00  0.00    -0.069 C  
HETATM    9  C   UNL     1      -6.903   7.973  66.389  1.00  0.00    -0.062 A  
HETATM   10  C   UNL     1      -8.239  10.211  69.916  1.00  0.00    -0.128 C  
HETATM   11  C   UNL     1      -6.400  11.832  69.513  1.00  0.00    -0.123 A  
HETATM   12  C   UNL     1      -5.838   9.565  70.379  1.00  0.00    -0.048 C  
HETATM   13  N   UNL     1      -5.137  18.348  71.948  1.00  0.00    -0.706 NA 
HETATM   14  C   UNL     1      -6.033  12.629  68.448  1.00  0.00    -0.059 A  
HETATM   15  C   UNL     1      -5.397  15.145  68.334  1.00  0.00    -0.108 A  
HETATM   16  C   UNL     1      -5.949  12.124  67.101  1.00  0.00    -0.143 C  
HETATM   17  C   UNL     1      -5.787  13.934  68.938  1.00  0.00    -0.083 A  
HETATM   18  O   UNL     1      -5.641  12.826  66.143  1.00  0.00     1.396 OA 
HETATM   19  C   UNL     1      -5.235  16.284  69.124  1.00  0.00    -0.111 A  
HETATM   20  C   UNL     1      -6.005  13.898  70.315  1.00  0.00    -0.155 A  
HETATM   21  C   UNL     1      -5.845  15.029  71.124  1.00  0.00     0.105 A  
HETATM   22  N   UNL     1      -6.376  12.611  70.641  1.00  0.00    -0.476 NA 
HETATM   23  C   UNL     1      -5.280  17.403  71.295  1.00  0.00    -0.042 C  
HETATM   24  C   UNL     1      -5.452  16.225  70.503  1.00  0.00    -0.144 A  
HETATM   25  H   UNL     1      -6.600  12.287  71.582  1.00  0.00     0.000 HD 
BRANCH   9  26
HETATM   26  N   UNL     1      -7.348   6.674  66.192  1.00  0.00    -0.075 NA 
HETATM   27  C   UNL     1      -6.957   4.385  66.807  1.00  0.00    -0.063 C  
HETATM   28  C   UNL     1      -7.499   5.727  67.299  1.00  0.00    -0.081 C  
HETATM   29  C   UNL     1      -7.786   3.882  65.598  1.00  0.00    -0.089 C  
HETATM   30  C   UNL     1      -8.171   6.328  65.023  1.00  0.00    -0.132 C  
HETATM   31  C   UNL     1      -7.703   4.971  64.505  1.00  0.00    -0.085 C  
BRANCH  29  32
HETATM   32  N   UNL     1      -9.189   3.548  65.978  1.00  0.00    -0.159 NA 
HETATM   33  C   UNL     1     -10.203   4.205  65.116  1.00  0.00    -0.204 C  
HETATM   34  C   UNL     1     -10.199   3.675  63.673  1.00  0.00    -0.216 C  
HETATM   35  O   UNL     1     -10.410   2.256  63.635  1.00  0.00    -0.150 OA 
HETATM   36  C   UNL     1      -9.470   1.557  64.460  1.00  0.00    -0.113 C  
HETATM   37  C   UNL     1      -9.480   2.094  65.901  1.00  0.00     0.210 C  
ENDBRANCH  29  32
ENDBRANCH   9  26
ENDBRANCH   2   3
TORSDOF 3
ENDMDL
MODEL       43
REMARK 921   NORMALIZED FREE ENERGY PREDICTED BY IDOCK:   -0.57 KCAL/MOL
REMARK 922        TOTAL FREE ENERGY PREDICTED BY IDOCK:   -1.58 KCAL/MOL
REMARK 923 INTER-LIGAND FREE ENERGY PREDICTED BY IDOCK:   -1.74 KCAL/MOL
REMARK 924 INTRA-LIGAND FREE ENERGY PREDICTED BY IDOCK:    0.16 KCAL/MOL
REMARK 927      BINDING AFFINITY PREDICTED BY RF-SCORE:    0.00 PKD
ROOT
HETATM    1  C   UNL     1     -10.206  10.233  64.028  1.00  0.00     0.089 C  
HETATM    2  C   UNL     1      -8.981   9.400  64.407  1.00  0.00    -0.215 C  
ENDROOT
BRANCH   2   3
HETATM    3  C   UNL     1      -8.268   9.745  65.707  1.00  0.00    -0.122 A  
HETATM    4  C   UNL     1      -8.073  11.101  66.020  1.00  0.00    -0.064 A  
HETATM    5  C   UNL     1      -7.529  11.519  67.237  1.00  0.00    -0.139 A  
HETATM    6  C   UNL     1      -7.116  10.580  68.192  1.00  0.00    -0.082 A  
HETATM    7  C   UNL     1      -7.274   9.224  67.857  1.00  0.00    -0.079 A  
HETATM    8  C   UNL     1      -6.546  10.982  69.568  1.00  0.00    -0.118 C  
HETATM    9  C   UNL     1      -7.864   8.768  66.653  1.00  0.00    -0.100 A  
HETATM   10  C   UNL     1      -7.479  10.456  70.682  1.00  0.00     0.735 C  
HETATM   11  C   UNL     1      -6.465  12.487  69.673  1.00  0.00    -0.057 A  
HETATM   12  C   UNL     1      -5.134  10.383  69.740  1.00  0.00    -0.038 C  
HETATM   13  N   UNL     1      -5.282  18.996  72.167  1.00  0.00    -0.728 NA 
HETATM   14  C   UNL     1      -6.874  13.397  68.720  1.00  0.00    -0.101 A  
HETATM   15  C   UNL     1      -6.859  15.994  68.718  1.00  0.00    -0.132 A  
HETATM   16  C   UNL     1      -7.435  12.990  67.456  1.00  0.00    -0.156 C  
HETATM   17  C   UNL     1      -6.642  14.698  69.225  1.00  0.00    -0.128 A  
HETATM   18  O   UNL     1      -7.818  13.788  66.607  1.00  0.00     0.355 OA 
HETATM   19  C   UNL     1      -6.506  17.101  69.490  1.00  0.00    -0.210 A  
HETATM   20  C   UNL     1      -6.079  14.548  70.492  1.00  0.00    -0.183 A  
HETATM   21  C   UNL     1      -5.716  15.645  71.281  1.00  0.00     0.330 A  
HETATM   22  N   UNL     1      -5.981  13.196  70.743  1.00  0.00    -0.434 NA 
HETATM   23  C   UNL     1      -5.581  18.075  71.531  1.00  0.00     0.380 C  
HETATM   24  C   UNL     1      -5.937  16.929  70.755  1.00  0.00     0.527 A  
HETATM   25  H   UNL     1      -5.605  12.784  71.596  1.00  0.00     0.000 HD 
BRANCH   9  26
HETATM   26  N   UNL     1      -8.104   7.411  66.497  1.00  0.00    -0.113 NA 
HETATM   27  C   UNL     1      -8.632   5.717  64.878  1.00  0.00    -0.065 C  
HETATM   28  C   UNL     1      -7.529   6.642  65.393  1.00  0.00    -0.080 C  
HETATM   29  C   UNL     1      -9.077   4.739  65.994  1.00  0.00    -0.133 C  
HETATM   30  C   UNL     1      -8.478   6.575  67.647  1.00  0.00    -0.117 C  
HETATM   31  C   UNL     1      -9.556   5.597  67.187  1.00  0.00    -0.137 C  
BRANCH  29  32
HETATM   32  N   UNL     1      -7.996   3.781  66.367  1.00  0.00    -0.089 NA 
HETATM   33  C   UNL     1      -7.886   3.561  67.830  1.00  0.00    -0.072 C  
HETATM   34  C   UNL     1      -9.096   2.818  68.419  1.00  0.00    -0.167 C  
HETATM   35  O   UNL     1      -9.298   1.552  67.776  1.00  0.00    -0.149 OA 
HETATM   36  C   UNL     1      -9.400   1.689  66.353  1.00  0.00     0.139 C  
HETATM   37  C   UNL     1      -8.187   2.434  65.772  1.00  0.00    -0.088 C  
ENDBRANCH  29  32
ENDBRANCH   9  26
ENDBRANCH   2   3
TORSDOF 3
ENDMDL
MODEL       44
REMARK 921   NORMALIZED FREE ENERGY PREDICTED BY IDOCK:   -0.48 KCAL/MOL
REMARK 922        TOTAL FREE ENERGY PREDICTED BY IDOCK:   -1.48 KCAL/MOL
REMARK 923 INTER-LIGAND FREE ENERGY PREDICTED BY IDOCK:   -7.01 KCAL/MOL
REMARK 924 INTRA-LIGAND FREE ENERGY PREDICTED BY IDOCK:    5.53 KCAL/MOL
REMARK 927      BINDING AFFINITY PREDICTED BY RF-SCORE:    0.00 PKD
ROOT
HETATM    1  C   UNL     1      -9.456   4.204  67.386  1.00  0.00    -0.223 C  
HETATM    2  C   UNL     1      -8.543   5.294  67.950  1.00  0.00    -0.103 C  
ENDROOT
BRANCH   2   3
HETATM    3  C   UNL     1      -8.905   6.742  67.651  1.00  0.00    -0.117 A  
HETATM    4  C   UNL     1      -9.709   7.432  68.574  1.00  0.00    -0.152 A  
HETATM    5  C   UNL     1     -10.004   8.792  68.443  1.00  0.00    -0.200 A  
HETATM    6  C   UNL     1      -9.528   9.520  67.344  1.00  0.00    -0.164 A  
HETATM    7  C   UNL     1      -8.760   8.816  66.401  1.00  0.00    -0.158 A  
HETATM    8  C   UNL     1      -9.788  11.031  67.167  1.00  0.00    -0.211 C  
HETATM    9  C   UNL     1      -8.405   7.451  66.528  1.00  0.00    -0.124 A  
HETATM   10  C   UNL     1      -8.440  11.787  67.184  1.00  0.00    -0.170 C  
HETATM   11  C   UNL     1     -10.647  11.542  68.299  1.00  0.00    -0.200 A  
HETATM   12  C   UNL     1     -10.512  11.279  65.826  1.00  0.00    -0.310 C  
HETATM   13  N   UNL     1     -14.408  15.837  72.470  1.00  0.00    -0.408 NA 
HETATM   14  C   UNL     1     -11.109  10.809  69.373  1.00  0.00    -0.324 A  
HETATM   15  C   UNL     1     -12.547  11.497  71.423  1.00  0.00    -0.419 A  
HETATM   16  C   UNL     1     -10.820   9.405  69.528  1.00  0.00    -0.213 C  
HETATM   17  C   UNL     1     -11.856  11.673  70.208  1.00  0.00    -0.414 A  
HETATM   18  O   UNL     1     -11.211   8.745  70.486  1.00  0.00    -0.255 OA 
HETATM   19  C   UNL     1     -13.203  12.585  72.002  1.00  0.00    -0.524 A  
HETATM   20  C   UNL     1     -11.838  12.932  69.609  1.00  0.00    -0.320 A  
HETATM   21  C   UNL     1     -12.491  14.034  70.174  1.00  0.00    -0.380 A  
HETATM   22  N   UNL     1     -11.098  12.829  68.451  1.00  0.00    -0.246 NA 
HETATM   23  C   UNL     1     -13.857  14.939  71.990  1.00  0.00    -0.460 C  
HETATM   24  C   UNL     1     -13.178  13.837  71.382  1.00  0.00    -0.378 A  
HETATM   25  H   UNL     1     -10.913  13.595  67.804  1.00  0.00     0.000 HD 
BRANCH   9  26
HETATM   26  N   UNL     1      -7.518   6.902  65.615  1.00  0.00    -0.082 NA 
HETATM   27  C   UNL     1      -5.420   7.264  64.503  1.00  0.00    -0.033 C  
HETATM   28  C   UNL     1      -6.071   6.904  65.838  1.00  0.00    -0.035 C  
HETATM   29  C   UNL     1      -5.762   6.197  63.434  1.00  0.00    -0.022 C  
HETATM   30  C   UNL     1      -7.953   5.857  64.675  1.00  0.00    -0.123 C  
HETATM   31  C   UNL     1      -7.302   6.139  63.324  1.00  0.00    -0.062 C  
BRANCH  29  32
HETATM   32  N   UNL     1      -5.153   4.871  63.746  1.00  0.00    -0.009 NA 
HETATM   33  C   UNL     1      -5.723   4.234  64.959  1.00  0.00    -0.014 C  
HETATM   34  C   UNL     1      -7.188   3.804  64.779  1.00  0.00    -0.067 C  
HETATM   35  O   UNL     1      -7.338   2.904  63.672  1.00  0.00    -0.054 OA 
HETATM   36  C   UNL     1      -6.794   3.452  62.465  1.00  0.00    -0.031 C  
HETATM   37  C   UNL     1      -5.329   3.881  62.654  1.00  0.00    -0.005 C  
ENDBRANCH  29  32
ENDBRANCH   9  26
ENDBRANCH   2   3
TORSDOF 3
ENDMDL
MODEL       45
REMARK 921   NORMALIZED FREE ENERGY PREDICTED BY IDOCK:   -0.47 KCAL/MOL
REMARK 922        TOTAL FREE ENERGY PREDICTED BY IDOCK:   -1.47 KCAL/MOL
REMARK 923 INTER-LIGAND FREE ENERGY PREDICTED BY IDOCK:   -2.66 KCAL/MOL
REMARK 924 INTRA-LIGAND FREE ENERGY PREDICTED BY IDOCK:    1.19 KCAL/MOL
REMARK 927      BINDING AFFINITY PREDICTED BY RF-SCORE:    0.00 PKD
ROOT
HETATM    1  C   UNL     1     -10.009  18.673  70.161  1.00  0.00     1.200 C  
HETATM    2  C   UNL     1     -11.024  17.697  69.564  1.00  0.00     0.851 C  
ENDROOT
BRANCH   2   3
HETATM    3  C   UNL     1     -10.608  16.238  69.433  1.00  0.00    -0.301 A  
HETATM    4  C   UNL     1     -11.387  15.263  70.078  1.00  0.00    -0.311 A  
HETATM    5  C   UNL     1     -11.151  13.894  69.929  1.00  0.00     0.006 A  
HETATM    6  C   UNL     1     -10.084  13.438  69.143  1.00  0.00     0.224 A  
HETATM    7  C   UNL     1      -9.282  14.419  68.533  1.00  0.00    -0.198 A  
HETATM    8  C   UNL     1      -9.799  11.940  68.908  1.00  0.00     0.008 C  
HETATM    9  C   UNL     1      -9.522  15.811  68.627  1.00  0.00    -0.208 A  
HETATM   10  C   UNL     1      -9.945  11.621  67.403  1.00  0.00    -0.200 C  
HETATM   11  C   UNL     1     -10.788  11.100  69.682  1.00  0.00    -0.142 A  
HETATM   12  C   UNL     1      -8.367  11.605  69.379  1.00  0.00     0.603 C  
HETATM   13  N   UNL     1     -14.231   5.537  72.360  1.00  0.00     0.777 NA 
HETATM   14  C   UNL     1     -11.831  11.567  70.454  1.00  0.00    -0.413 A  
HETATM   15  C   UNL     1     -13.648  10.307  71.817  1.00  0.00    -0.281 A  
HETATM   16  C   UNL     1     -12.092  12.974  70.626  1.00  0.00    -0.248 C  
HETATM   17  C   UNL     1     -12.522  10.451  70.983  1.00  0.00    -0.488 A  
HETATM   18  O   UNL     1     -13.027  13.402  71.296  1.00  0.00    -0.334 OA 
HETATM   19  C   UNL     1     -14.084   9.028  72.165  1.00  0.00    -0.461 A  
HETATM   20  C   UNL     1     -11.866   9.311  70.520  1.00  0.00    -0.124 A  
HETATM   21  C   UNL     1     -12.287   8.020  70.859  1.00  0.00    -0.073 A  
HETATM   22  N   UNL     1     -10.816   9.730  69.731  1.00  0.00    -0.244 NA 
HETATM   23  C   UNL     1     -13.870   6.596  72.063  1.00  0.00     0.138 C  
HETATM   24  C   UNL     1     -13.409   7.898  71.695  1.00  0.00    -0.374 A  
HETATM   25  H   UNL     1     -10.158   9.113  69.255  1.00  0.00     0.000 HD 
BRANCH   9  26
HETATM   26  N   UNL     1      -8.755  16.676  67.861  1.00  0.00    -0.191 NA 
HETATM   27  C   UNL     1      -7.666  16.923  65.735  1.00  0.00     0.447 C  
HETATM   28  C   UNL     1      -9.022  16.899  66.439  1.00  0.00    -0.283 C  
HETATM   29  C   UNL     1      -6.802  18.090  66.273  1.00  0.00    -0.256 C  
HETATM   30  C   UNL     1      -8.012  17.780  68.486  1.00  0.00    -0.294 C  
HETATM   31  C   UNL     1      -6.654  17.882  67.798  1.00  0.00    -0.193 C  
BRANCH  29  32
HETATM   32  N   UNL     1      -7.374  19.422  65.923  1.00  0.00    -0.287 NA 
HETATM   33  C   UNL     1      -7.242  20.423  67.011  1.00  0.00    -0.299 C  
HETATM   34  C   UNL     1      -5.784  20.835  67.274  1.00  0.00    -0.210 C  
HETATM   35  O   UNL     1      -5.165  21.357  66.090  1.00  0.00    -0.207 OA 
HETATM   36  C   UNL     1      -5.268  20.444  64.990  1.00  0.00    -0.162 C  
HETATM   37  C   UNL     1      -6.728  20.036  64.735  1.00  0.00    -0.131 C  
ENDBRANCH  29  32
ENDBRANCH   9  26
ENDBRANCH   2   3
TORSDOF 3
ENDMDL
MODEL       46
REMARK 921   NORMALIZED FREE ENERGY PREDICTED BY IDOCK:   -0.29 KCAL/MOL
REMARK 922        TOTAL FREE ENERGY PREDICTED BY IDOCK:   -1.25 KCAL/MOL
REMARK 923 INTER-LIGAND FREE ENERGY PREDICTED BY IDOCK:   -4.84 KCAL/MOL
REMARK 924 INTRA-LIGAND FREE ENERGY PREDICTED BY IDOCK:    3.59 KCAL/MOL
REMARK 927      BINDING AFFINITY PREDICTED BY RF-SCORE:    0.00 PKD
ROOT
HETATM    1  C   UNL     1      -9.011   7.218  64.572  1.00  0.00     0.869 C  
HETATM    2  C   UNL     1      -8.250   8.049  65.606  1.00  0.00    -0.135 C  
ENDROOT
BRANCH   2   3
HETATM    3  C   UNL     1      -8.914   8.272  66.959  1.00  0.00    -0.159 A  
HETATM    4  C   UNL     1      -9.375   9.562  67.270  1.00  0.00    -0.161 A  
HETATM    5  C   UNL     1     -10.092   9.842  68.437  1.00  0.00    -0.189 A  
HETATM    6  C   UNL     1     -10.350   8.830  69.372  1.00  0.00    -0.217 A  
HETATM    7  C   UNL     1      -9.851   7.550  69.076  1.00  0.00    -0.170 A  
HETATM    8  C   UNL     1     -11.170   9.070  70.657  1.00  0.00    -0.318 C  
HETATM    9  C   UNL     1      -9.160   7.225  67.883  1.00  0.00    -0.132 A  
HETATM   10  C   UNL     1     -12.447   8.200  70.618  1.00  0.00     0.248 C  
HETATM   11  C   UNL     1     -11.575  10.523  70.746  1.00  0.00    -0.338 A  
HETATM   12  C   UNL     1     -10.320   8.700  71.892  1.00  0.00    -0.405 C  
HETATM   13  N   UNL     1     -14.402  16.581  73.046  1.00  0.00     0.495 NA 
HETATM   14  C   UNL     1     -11.309  11.506  69.816  1.00  0.00    -0.303 A  
HETATM   15  C   UNL     1     -11.940  14.025  69.760  1.00  0.00    -0.393 A  
HETATM   16  C   UNL     1     -10.568  11.243  68.608  1.00  0.00    -0.202 C  
HETATM   17  C   UNL     1     -11.881  12.715  70.276  1.00  0.00    -0.295 A  
HETATM   18  O   UNL     1     -10.340  12.104  67.764  1.00  0.00    -0.199 OA 
HETATM   19  C   UNL     1     -12.599  15.018  70.486  1.00  0.00    -0.420 A  
HETATM   20  C   UNL     1     -12.485  12.438  71.503  1.00  0.00    -0.018 A  
HETATM   21  C   UNL     1     -13.149  13.421  72.245  1.00  0.00    -0.484 A  
HETATM   22  N   UNL     1     -12.286  11.100  71.767  1.00  0.00    -0.046 NA 
HETATM   23  C   UNL     1     -13.862  15.752  72.444  1.00  0.00    -0.443 C  
HETATM   24  C   UNL     1     -13.193  14.721  71.715  1.00  0.00    -0.435 A  
HETATM   25  H   UNL     1     -12.619  10.611  72.599  1.00  0.00     0.000 HD 
BRANCH   9  26
HETATM   26  N   UNL     1      -8.847   5.897  67.632  1.00  0.00    -0.107 NA 
HETATM   27  C   UNL     1      -9.497   3.636  68.112  1.00  0.00    -0.215 C  
HETATM   28  C   UNL     1      -9.876   4.898  67.338  1.00  0.00    -0.178 C  
HETATM   29  C   UNL     1      -8.125   3.102  67.630  1.00  0.00    -0.080 C  
HETATM   30  C   UNL     1      -7.518   5.518  67.130  1.00  0.00    -0.084 C  
HETATM   31  C   UNL     1      -7.096   4.235  67.840  1.00  0.00    -0.060 C  
BRANCH  29  32
HETATM   32  N   UNL     1      -8.174   2.617  66.220  1.00  0.00    -0.084 NA 
HETATM   33  C   UNL     1      -7.802   3.657  65.228  1.00  0.00    -0.086 C  
HETATM   34  C   UNL     1      -6.320   4.058  65.307  1.00  0.00    -0.028 C  
HETATM   35  O   UNL     1      -5.459   2.924  65.131  1.00  0.00    -0.009 OA 
HETATM   36  C   UNL     1      -5.773   1.871  66.051  1.00  0.00    -0.014 C  
HETATM   37  C   UNL     1      -7.257   1.477  65.968  1.00  0.00    -0.051 C  
ENDBRANCH  29  32
ENDBRANCH   9  26
ENDBRANCH   2   3
TORSDOF 3
ENDMDL
MODEL       47
REMARK 921   NORMALIZED FREE ENERGY PREDICTED BY IDOCK:    1.62 KCAL/MOL
REMARK 922        TOTAL FREE ENERGY PREDICTED BY IDOCK:    0.98 KCAL/MOL
REMARK 923 INTER-LIGAND FREE ENERGY PREDICTED BY IDOCK:   -2.11 KCAL/MOL
REMARK 924 INTRA-LIGAND FREE ENERGY PREDICTED BY IDOCK:    3.09 KCAL/MOL
REMARK 927      BINDING AFFINITY PREDICTED BY RF-SCORE:    0.00 PKD
ROOT
HETATM    1  C   UNL     1      -8.065  10.491  64.442  1.00  0.00    -0.042 C  
HETATM    2  C   UNL     1      -9.149   9.501  64.872  1.00  0.00    -0.276 C  
ENDROOT
BRANCH   2   3
HETATM    3  C   UNL     1      -9.593   9.531  66.328  1.00  0.00    -0.287 A  
HETATM    4  C   UNL     1     -10.046  10.749  66.862  1.00  0.00    -0.255 A  
HETATM    5  C   UNL     1     -10.575  10.854  68.151  1.00  0.00    -0.233 A  
HETATM    6  C   UNL     1     -10.639   9.730  68.986  1.00  0.00    -0.238 A  
HETATM    7  C   UNL     1     -10.146   8.522  68.463  1.00  0.00    -0.214 A  
HETATM    8  C   UNL     1     -11.249   9.775  70.403  1.00  0.00    -0.362 C  
HETATM    9  C   UNL     1      -9.647   8.373  67.146  1.00  0.00    -0.179 A  
HETATM   10  C   UNL     1     -12.482   8.844  70.459  1.00  0.00     0.302 C  
HETATM   11  C   UNL     1     -11.689  11.183  70.729  1.00  0.00    -0.109 A  
HETATM   12  C   UNL     1     -10.197   9.317  71.436  1.00  0.00    -0.371 C  
HETATM   13  N   UNL     1     -14.333  16.771  74.159  1.00  0.00     2.178 NA 
HETATM   14  C   UNL     1     -11.614  12.279  69.895  1.00  0.00    -0.278 A  
HETATM   15  C   UNL     1     -12.341  14.748  70.244  1.00  0.00    -0.400 A  
HETATM   16  C   UNL     1     -11.070  12.197  68.563  1.00  0.00    -0.252 C  
HETATM   17  C   UNL     1     -12.150  13.394  70.582  1.00  0.00    -0.374 A  
HETATM   18  O   UNL     1     -11.014  13.159  67.804  1.00  0.00    -0.240 OA 
HETATM   19  C   UNL     1     -12.911  15.614  71.178  1.00  0.00    -0.540 A  
HETATM   20  C   UNL     1     -12.537  12.945  71.845  1.00  0.00     0.031 A  
HETATM   21  C   UNL     1     -13.108  13.799  72.796  1.00  0.00    -0.432 A  
HETATM   22  N   UNL     1     -12.247  11.599  71.912  1.00  0.00     0.419 NA 
HETATM   23  C   UNL     1     -13.867  16.048  73.384  1.00  0.00     0.022 C  
HETATM   24  C   UNL     1     -13.286  15.146  72.440  1.00  0.00    -0.522 A  
HETATM   25  H   UNL     1     -12.421  11.002  72.719  1.00  0.00     0.000 HD 
BRANCH   9  26
HETATM   26  N   UNL     1      -9.328   7.103  66.690  1.00  0.00    -0.161 NA 
HETATM   27  C   UNL     1      -7.793   5.278  66.974  1.00  0.00    -0.100 C  
HETATM   28  C   UNL     1      -8.974   6.015  67.604  1.00  0.00    -0.111 C  
HETATM   29  C   UNL     1      -8.204   4.674  65.608  1.00  0.00    -0.115 C  
HETATM   30  C   UNL     1      -9.819   6.624  65.389  1.00  0.00     1.272 C  
HETATM   31  C   UNL     1      -8.692   5.841  64.721  1.00  0.00     0.030 C  
BRANCH  29  32
HETATM   32  N   UNL     1      -9.222   3.593  65.755  1.00  0.00    -0.152 NA 
HETATM   33  C   UNL     1      -8.642   2.228  65.698  1.00  0.00    -0.113 C  
HETATM   34  C   UNL     1      -7.752   1.903  66.909  1.00  0.00    -0.065 C  
HETATM   35  O   UNL     1      -8.471   2.047  68.142  1.00  0.00    -0.061 OA 
HETATM   36  C   UNL     1      -9.071   3.344  68.257  1.00  0.00    -0.155 C  
HETATM   37  C   UNL     1      -9.958   3.662  67.042  1.00  0.00     0.275 C  
ENDBRANCH  29  32
ENDBRANCH   9  26
ENDBRANCH   2   3
TORSDOF 3
ENDMDL
MODEL       48
REMARK 921   NORMALIZED FREE ENERGY PREDICTED BY IDOCK:    1.92 KCAL/MOL
REMARK 922        TOTAL FREE ENERGY PREDICTED BY IDOCK:    1.33 KCAL/MOL
REMARK 923 INTER-LIGAND FREE ENERGY PREDICTED BY IDOCK:   -0.67 KCAL/MOL
REMARK 924 INTRA-LIGAND FREE ENERGY PREDICTED BY IDOCK:    2.01 KCAL/MOL
REMARK 927      BINDING AFFINITY PREDICTED BY RF-SCORE:    0.00 PKD
ROOT
HETATM    1  C   UNL     1      -6.662   7.643  69.309  1.00  0.00    -0.044 C  
HETATM    2  C   UNL     1      -6.505   8.719  68.233  1.00  0.00    -0.060 C  
ENDROOT
BRANCH   2   3
HETATM    3  C   UNL     1      -7.142  10.077  68.496  1.00  0.00    -0.071 A  
HETATM    4  C   UNL     1      -6.507  11.221  67.982  1.00  0.00    -0.057 A  
HETATM    5  C   UNL     1      -7.070  12.497  68.076  1.00  0.00    -0.103 A  
HETATM    6  C   UNL     1      -8.294  12.688  68.732  1.00  0.00     0.138 A  
HETATM    7  C   UNL     1      -8.904  11.547  69.280  1.00  0.00     0.423 A  
HETATM    8  C   UNL     1      -8.982  14.065  68.832  1.00  0.00     0.059 C  
HETATM    9  C   UNL     1      -8.383  10.235  69.163  1.00  0.00    -0.154 A  
HETATM   10  C   UNL     1     -10.341  14.012  68.098  1.00  0.00    -0.241 C  
HETATM   11  C   UNL     1      -8.119  15.121  68.181  1.00  0.00    -0.137 A  
HETATM   12  C   UNL     1      -9.200  14.430  70.316  1.00  0.00     1.662 C  
HETATM   13  N   UNL     1      -5.781  21.347  65.782  1.00  0.00    -0.195 NA 
HETATM   14  C   UNL     1      -6.914  14.914  67.542  1.00  0.00    -0.203 A  
HETATM   15  C   UNL     1      -5.311  16.565  66.337  1.00  0.00     0.593 A  
HETATM   16  C   UNL     1      -6.313  13.609  67.435  1.00  0.00     0.089 C  
HETATM   17  C   UNL     1      -6.452  16.161  67.058  1.00  0.00    -0.109 A  
HETATM   18  O   UNL     1      -5.251  13.408  66.855  1.00  0.00     0.054 OA 
HETATM   19  C   UNL     1      -5.149  17.912  66.010  1.00  0.00    -0.226 A  
HETATM   20  C   UNL     1      -7.399  17.116  67.428  1.00  0.00    -0.153 A  
HETATM   21  C   UNL     1      -7.253  18.471  67.110  1.00  0.00    -0.218 A  
HETATM   22  N   UNL     1      -8.403  16.461  68.108  1.00  0.00    -0.181 NA 
HETATM   23  C   UNL     1      -5.922  20.229  66.050  1.00  0.00    -0.180 C  
HETATM   24  C   UNL     1      -6.106  18.854  66.394  1.00  0.00    -0.190 A  
HETATM   25  H   UNL     1      -9.232  16.906  68.500  1.00  0.00     0.000 HD 
BRANCH   9  26
HETATM   26  N   UNL     1      -9.147   9.169  69.613  1.00  0.00    -0.151 NA 
HETATM   27  C   UNL     1      -9.101   7.211  71.003  1.00  0.00    -0.151 C  
HETATM   28  C   UNL     1      -9.134   8.739  71.012  1.00  0.00    -0.218 C  
HETATM   29  C   UNL     1     -10.372   6.651  70.317  1.00  0.00    -0.202 C  
HETATM   30  C   UNL     1     -10.365   8.758  68.897  1.00  0.00    -0.212 C  
HETATM   31  C   UNL     1     -10.412   7.233  68.886  1.00  0.00    -0.216 C  
BRANCH  29  32
HETATM   32  N   UNL     1     -11.608   6.945  71.097  1.00  0.00    -0.300 NA 
HETATM   33  C   UNL     1     -12.343   5.726  71.517  1.00  0.00     0.883 C  
HETATM   34  C   UNL     1     -11.579   4.893  72.559  1.00  0.00     0.139 C  
HETATM   35  O   UNL     1     -11.270   5.669  73.726  1.00  0.00    -0.071 OA 
HETATM   36  C   UNL     1     -10.568   6.874  73.391  1.00  0.00    -0.344 C  
HETATM   37  C   UNL     1     -11.338   7.700  72.348  1.00  0.00    -0.329 C  
ENDBRANCH  29  32
ENDBRANCH   9  26
ENDBRANCH   2   3
TORSDOF 3
ENDMDL
MODEL       49
REMARK 921   NORMALIZED FREE ENERGY PREDICTED BY IDOCK:    2.21 KCAL/MOL
REMARK 922        TOTAL FREE ENERGY PREDICTED BY IDOCK:    1.68 KCAL/MOL
REMARK 923 INTER-LIGAND FREE ENERGY PREDICTED BY IDOCK:   -5.73 KCAL/MOL
REMARK 924 INTRA-LIGAND FREE ENERGY PREDICTED BY IDOCK:    7.41 KCAL/MOL
REMARK 927      BINDING AFFINITY PREDICTED BY RF-SCORE:    0.00 PKD
ROOT
HETATM    1  C   UNL     1      -7.488   7.266  63.635  1.00  0.00    -0.097 C  
HETATM    2  C   UNL     1      -6.763   7.915  64.815  1.00  0.00    -0.051 C  
ENDROOT
BRANCH   2   3
HETATM    3  C   UNL     1      -7.516   8.019  66.134  1.00  0.00    -0.075 A  
HETATM    4  C   UNL     1      -8.155   9.232  66.443  1.00  0.00    -0.107 A  
HETATM    5  C   UNL     1      -8.960   9.390  67.575  1.00  0.00    -0.130 A  
HETATM    6  C   UNL     1      -9.130   8.332  68.478  1.00  0.00    -0.136 A  
HETATM    7  C   UNL     1      -8.456   7.134  68.188  1.00  0.00    -0.123 A  
HETATM    8  C   UNL     1     -10.037   8.434  69.722  1.00  0.00    -0.197 C  
HETATM    9  C   UNL     1      -7.671   6.928  67.027  1.00  0.00    -0.103 A  
HETATM   10  C   UNL     1     -11.188   7.409  69.603  1.00  0.00    -0.065 C  
HETATM   11  C   UNL     1     -10.630   9.821  69.815  1.00  0.00    -0.257 A  
HETATM   12  C   UNL     1      -9.209   8.149  70.994  1.00  0.00    -0.178 C  
HETATM   13  N   UNL     1     -14.328  15.411  72.065  1.00  0.00    -0.553 NA 
HETATM   14  C   UNL     1     -10.448  10.852  68.916  1.00  0.00    -0.228 A  
HETATM   15  C   UNL     1     -11.396  13.269  68.870  1.00  0.00    -0.333 A  
HETATM   16  C   UNL     1      -9.621  10.714  67.744  1.00  0.00    -0.157 C  
HETATM   17  C   UNL     1     -11.194  11.967  69.366  1.00  0.00    -0.278 A  
HETATM   18  O   UNL     1      -9.464  11.616  66.928  1.00  0.00    -0.179 OA 
HETATM   19  C   UNL     1     -12.213  14.153  69.576  1.00  0.00    -0.351 A  
HETATM   20  C   UNL     1     -11.818  11.585  70.554  1.00  0.00    -0.267 A  
HETATM   21  C   UNL     1     -12.639  12.458  71.278  1.00  0.00    -0.332 A  
HETATM   22  N   UNL     1     -11.461  10.278  70.807  1.00  0.00    -0.340 NA 
HETATM   23  C   UNL     1     -13.656  14.673  71.478  1.00  0.00    -0.405 C  
HETATM   24  C   UNL     1     -12.824  13.753  70.768  1.00  0.00    -0.302 A  
HETATM   25  H   UNL     1     -11.768   9.732  71.611  1.00  0.00     0.000 HD 
BRANCH   9  26
HETATM   26  N   UNL     1      -7.177   5.658  66.771  1.00  0.00    -0.073 NA 
HETATM   27  C   UNL     1      -5.211   4.286  66.912  1.00  0.00    -0.012 C  
HETATM   28  C   UNL     1      -6.323   4.948  67.725  1.00  0.00    -0.040 C  
HETATM   29  C   UNL     1      -5.810   3.261  65.917  1.00  0.00    -0.019 C  
HETATM   30  C   UNL     1      -7.864   4.756  65.834  1.00  0.00    -0.095 C  
HETATM   31  C   UNL     1      -6.801   4.031  65.014  1.00  0.00    -0.049 C  
BRANCH  29  32
HETATM   32  N   UNL     1      -6.440   2.103  66.613  1.00  0.00    -0.024 NA 
HETATM   33  C   UNL     1      -5.561   1.481  67.634  1.00  0.00    -0.018 C  
HETATM   34  C   UNL     1      -5.307   2.395  68.844  1.00  0.00    -0.013 C  
HETATM   35  O   UNL     1      -6.535   2.788  69.472  1.00  0.00    -0.028 OA 
HETATM   36  C   UNL     1      -7.442   3.386  68.536  1.00  0.00    -0.050 C  
HETATM   37  C   UNL     1      -7.690   2.467  67.329  1.00  0.00    -0.065 C  
ENDBRANCH  29  32
ENDBRANCH   9  26
ENDBRANCH   2   3
TORSDOF 3
ENDMDL
MODEL       50
REMARK 921   NORMALIZED FREE ENERGY PREDICTED BY IDOCK:    2.22 KCAL/MOL
REMARK 922        TOTAL FREE ENERGY PREDICTED BY IDOCK:    1.69 KCAL/MOL
REMARK 923 INTER-LIGAND FREE ENERGY PREDICTED BY IDOCK:   -2.09 KCAL/MOL
REMARK 924 INTRA-LIGAND FREE ENERGY PREDICTED BY IDOCK:    3.78 KCAL/MOL
REMARK 927      BINDING AFFINITY PREDICTED BY RF-SCORE:    0.00 PKD
ROOT
HETATM    1  C   UNL     1      -6.167   6.263  65.172  1.00  0.00    -0.030 C  
HETATM    2  C   UNL     1      -7.092   7.396  64.726  1.00  0.00    -0.061 C  
ENDROOT
BRANCH   2   3
HETATM    3  C   UNL     1      -7.707   8.272  65.809  1.00  0.00    -0.091 A  
HETATM    4  C   UNL     1      -7.860   9.645  65.549  1.00  0.00    -0.111 A  
HETATM    5  C   UNL     1      -8.510  10.509  66.434  1.00  0.00    -0.143 A  
HETATM    6  C   UNL     1      -9.011  10.032  67.653  1.00  0.00    -0.135 A  
HETATM    7  C   UNL     1      -8.819   8.667  67.928  1.00  0.00    -0.137 A  
HETATM    8  C   UNL     1      -9.773  10.929  68.651  1.00  0.00    -0.188 C  
HETATM    9  C   UNL     1      -8.205   7.757  67.033  1.00  0.00    -0.117 A  
HETATM   10  C   UNL     1     -11.217  10.401  68.814  1.00  0.00    -0.295 C  
HETATM   11  C   UNL     1      -9.830  12.346  68.130  1.00  0.00    -0.213 A  
HETATM   12  C   UNL     1      -9.052  10.916  70.016  1.00  0.00     1.059 C  
HETATM   13  N   UNL     1     -11.206  19.261  67.604  1.00  0.00    -0.114 NA 
HETATM   14  C   UNL     1      -9.328  12.798  66.927  1.00  0.00    -0.234 A  
HETATM   15  C   UNL     1      -9.355  15.156  65.839  1.00  0.00    -0.279 A  
HETATM   16  C   UNL     1      -8.650  11.927  66.000  1.00  0.00     0.132 C  
HETATM   17  C   UNL     1      -9.611  14.180  66.822  1.00  0.00    -0.290 A  
HETATM   18  O   UNL     1      -8.215  12.311  64.920  1.00  0.00     1.821 OA 
HETATM   19  C   UNL     1      -9.776  16.469  66.051  1.00  0.00    -0.331 A  
HETATM   20  C   UNL     1     -10.282  14.547  67.989  1.00  0.00    -0.233 A  
HETATM   21  C   UNL     1     -10.710  15.859  68.220  1.00  0.00    -0.291 A  
HETATM   22  N   UNL     1     -10.404  13.417  68.768  1.00  0.00    -0.379 NA 
HETATM   23  C   UNL     1     -10.864  18.169  67.429  1.00  0.00    -0.235 C  
HETATM   24  C   UNL     1     -10.442  16.818  67.229  1.00  0.00    -0.310 A  
HETATM   25  H   UNL     1     -10.853  13.381  69.683  1.00  0.00     0.000 HD 
BRANCH   9  26
HETATM   26  N   UNL     1      -8.205   6.406  67.348  1.00  0.00    -0.116 NA 
HETATM   27  C   UNL     1      -9.230   4.301  66.816  1.00  0.00    -0.156 C  
HETATM   28  C   UNL     1      -8.258   5.369  66.317  1.00  0.00    -0.110 C  
HETATM   29  C   UNL     1      -8.710   3.674  68.134  1.00  0.00    -0.105 C  
HETATM   30  C   UNL     1      -7.637   5.927  68.617  1.00  0.00    -0.090 C  
HETATM   31  C   UNL     1      -8.547   4.825  69.152  1.00  0.00    -0.094 C  
BRANCH  29  32
HETATM   32  N   UNL     1      -7.451   2.900  67.930  1.00  0.00    -0.056 NA 
HETATM   33  C   UNL     1      -6.270   3.515  68.584  1.00  0.00    -0.029 C  
HETATM   34  C   UNL     1      -6.345   3.476  70.119  1.00  0.00    -0.028 C  
HETATM   35  O   UNL     1      -6.493   2.133  70.603  1.00  0.00    -0.023 OA 
HETATM   36  C   UNL     1      -7.612   1.471  70.000  1.00  0.00    -0.035 C  
HETATM   37  C   UNL     1      -7.530   1.516  68.465  1.00  0.00    -0.042 C  
ENDBRANCH  29  32
ENDBRANCH   9  26
ENDBRANCH   2   3
TORSDOF 3
ENDMDL
MODEL       51
REMARK 921   NORMALIZED FREE ENERGY PREDICTED BY IDOCK:    3.56 KCAL/MOL
REMARK 922        TOTAL FREE ENERGY PREDICTED BY IDOCK:    3.26 KCAL/MOL
REMARK 923 INTER-LIGAND FREE ENERGY PREDICTED BY IDOCK:    4.26 KCAL/MOL
REMARK 924 INTRA-LIGAND FREE ENERGY PREDICTED BY IDOCK:   -1.00 KCAL/MOL
REMARK 927      BINDING AFFINITY PREDICTED BY RF-SCORE:    0.00 PKD
ROOT
HETATM    1  C   UNL     1     -10.087  12.632  70.531  1.00  0.00     4.570 C  
HETATM    2  C   UNL     1      -8.605  12.476  70.186  1.00  0.00     4.086 C  
ENDROOT
BRANCH   2   3
HETATM    3  C   UNL     1      -8.256  11.895  68.823  1.00  0.00     0.000 A  
HETATM    4  C   UNL     1      -8.515  10.533  68.593  1.00  0.00    -0.138 A  
HETATM    5  C   UNL     1      -8.331   9.934  67.344  1.00  0.00    -0.118 A  
HETATM    6  C   UNL     1      -7.837  10.679  66.264  1.00  0.00    -0.150 A  
HETATM    7  C   UNL     1      -7.540  12.031  66.510  1.00  0.00     0.197 A  
HETATM    8  C   UNL     1      -7.652  10.084  64.853  1.00  0.00    -0.139 C  
HETATM    9  C   UNL     1      -7.758  12.678  67.750  1.00  0.00    -0.145 A  
HETATM   10  C   UNL     1      -8.573  10.827  63.859  1.00  0.00    -0.032 C  
HETATM   11  C   UNL     1      -8.025   8.620  64.859  1.00  0.00    -0.138 A  
HETATM   12  C   UNL     1      -6.179  10.233  64.416  1.00  0.00    -0.111 C  
HETATM   13  N   UNL     1      -9.203   1.978  62.743  1.00  0.00    -0.090 NA 
HETATM   14  C   UNL     1      -8.507   7.901  65.934  1.00  0.00    -0.147 A  
HETATM   15  C   UNL     1      -9.236   5.418  66.143  1.00  0.00    -0.162 A  
HETATM   16  C   UNL     1      -8.701   8.496  67.232  1.00  0.00    -0.130 C  
HETATM   17  C   UNL     1      -8.748   6.575  65.505  1.00  0.00    -0.063 A  
HETATM   18  O   UNL     1      -9.145   7.873  68.192  1.00  0.00    -0.134 OA 
HETATM   19  C   UNL     1      -9.353   4.232  65.416  1.00  0.00    -0.164 A  
HETATM   20  C   UNL     1      -8.392   6.512  64.158  1.00  0.00     0.123 A  
HETATM   21  C   UNL     1      -8.500   5.332  63.413  1.00  0.00    -0.092 A  
HETATM   22  N   UNL     1      -7.956   7.766  63.787  1.00  0.00    -0.226 NA 
HETATM   23  C   UNL     1      -9.112   2.965  63.341  1.00  0.00    -0.095 C  
HETATM   24  C   UNL     1      -8.986   4.189  64.069  1.00  0.00    -0.141 A  
HETATM   25  H   UNL     1      -7.631   8.022  62.855  1.00  0.00     0.000 HD 
BRANCH   9  26
HETATM   26  N   UNL     1      -7.569  14.050  67.832  1.00  0.00    -0.137 NA 
HETATM   27  C   UNL     1      -6.487  15.778  69.101  1.00  0.00    -0.143 C  
HETATM   28  C   UNL     1      -6.258  14.639  68.107  1.00  0.00    -0.141 C  
HETATM   29  C   UNL     1      -7.403  16.860  68.476  1.00  0.00    -0.206 C  
HETATM   30  C   UNL     1      -8.486  14.979  67.154  1.00  0.00    -0.218 C  
HETATM   31  C   UNL     1      -8.726  16.165  68.084  1.00  0.00    -0.175 C  
BRANCH  29  32
HETATM   32  N   UNL     1      -6.751  17.554  67.328  1.00  0.00    -0.160 NA 
HETATM   33  C   UNL     1      -7.543  18.695  66.805  1.00  0.00    -0.232 C  
HETATM   34  C   UNL     1      -7.631  19.869  67.795  1.00  0.00    -0.287 C  
HETATM   35  O   UNL     1      -6.329  20.343  68.162  1.00  0.00    -0.261 OA 
HETATM   36  C   UNL     1      -5.501  19.286  68.665  1.00  0.00    -0.195 C  
HETATM   37  C   UNL     1      -5.420  18.116  67.671  1.00  0.00    -0.146 C  
ENDBRANCH  29  32
ENDBRANCH   9  26
ENDBRANCH   2   3
TORSDOF 3
ENDMDL
MODEL       52
REMARK 921   NORMALIZED FREE ENERGY PREDICTED BY IDOCK:    3.70 KCAL/MOL
REMARK 922        TOTAL FREE ENERGY PREDICTED BY IDOCK:    3.44 KCAL/MOL
REMARK 923 INTER-LIGAND FREE ENERGY PREDICTED BY IDOCK:    1.00 KCAL/MOL
REMARK 924 INTRA-LIGAND FREE ENERGY PREDICTED BY IDOCK:    2.43 KCAL/MOL
REMARK 927      BINDING AFFINITY PREDICTED BY RF-SCORE:    0.00 PKD
ROOT
HETATM    1  C   UNL     1      -7.462   6.291  69.290  1.00  0.00    -0.094 C  
HETATM    2  C   UNL     1      -8.345   6.952  68.231  1.00  0.00    -0.123 C  
ENDROOT
BRANCH   2   3
HETATM    3  C   UNL     1      -9.103   8.210  68.631  1.00  0.00    -0.143 A  
HETATM    4  C   UNL     1      -8.985   9.347  67.814  1.00  0.00    -0.127 A  
HETATM    5  C   UNL     1      -9.725  10.512  68.037  1.00  0.00    -0.162 A  
HETATM    6  C   UNL     1     -10.602  10.599  69.127  1.00  0.00    -0.256 A  
HETATM    7  C   UNL     1     -10.685   9.474  69.966  1.00  0.00    -0.278 A  
HETATM    8  C   UNL     1     -11.474  11.842  69.400  1.00  0.00    -0.366 C  
HETATM    9  C   UNL     1      -9.984   8.265  69.742  1.00  0.00    -0.191 A  
HETATM   10  C   UNL     1     -12.966  11.451  69.308  1.00  0.00     1.194 C  
HETATM   11  C   UNL     1     -11.187  12.909  68.370  1.00  0.00    -0.270 A  
HETATM   12  C   UNL     1     -11.163  12.396  70.807  1.00  0.00     1.726 C  
HETATM   13  N   UNL     1     -11.383  18.978  64.748  1.00  0.00     0.775 NA 
HETATM   14  C   UNL     1     -10.317  12.806  67.304  1.00  0.00    -0.235 A  
HETATM   15  C   UNL     1      -9.715  14.488  65.419  1.00  0.00    -0.163 A  
HETATM   16  C   UNL     1      -9.541  11.618  67.056  1.00  0.00    -0.184 C  
HETATM   17  C   UNL     1     -10.364  14.020  66.578  1.00  0.00    -0.285 A  
HETATM   18  O   UNL     1      -8.777  11.506  66.102  1.00  0.00    -0.186 OA 
HETATM   19  C   UNL     1      -9.990  15.774  64.951  1.00  0.00     0.340 A  
HETATM   20  C   UNL     1     -11.270  14.852  67.235  1.00  0.00    -0.345 A  
HETATM   21  C   UNL     1     -11.557  16.145  66.783  1.00  0.00     0.634 A  
HETATM   22  N   UNL     1     -11.758  14.156  68.321  1.00  0.00    -0.329 NA 
HETATM   23  C   UNL     1     -11.164  17.909  65.134  1.00  0.00     1.045 C  
HETATM   24  C   UNL     1     -10.896  16.594  65.628  1.00  0.00    -0.142 A  
HETATM   25  H   UNL     1     -12.441  14.515  68.988  1.00  0.00     0.000 HD 
BRANCH   9  26
HETATM   26  N   UNL     1     -10.260   7.172  70.550  1.00  0.00    -0.195 NA 
HETATM   27  C   UNL     1     -10.511   4.784  70.548  1.00  0.00    -0.082 C  
HETATM   28  C   UNL     1      -9.498   5.925  70.457  1.00  0.00    -0.167 C  
HETATM   29  C   UNL     1     -11.245   4.824  71.911  1.00  0.00     0.407 C  
HETATM   30  C   UNL     1     -10.924   7.344  71.851  1.00  0.00    -0.233 C  
HETATM   31  C   UNL     1     -11.926   6.206  72.021  1.00  0.00    -0.310 C  
BRANCH  29  32
HETATM   32  N   UNL     1     -10.328   4.538  73.052  1.00  0.00    -0.169 NA 
HETATM   33  C   UNL     1     -11.021   3.968  74.235  1.00  0.00    -0.008 C  
HETATM   34  C   UNL     1     -11.566   2.552  73.987  1.00  0.00     0.243 C  
HETATM   35  O   UNL     1     -10.523   1.652  73.586  1.00  0.00    -0.089 OA 
HETATM   36  C   UNL     1      -9.799   2.149  72.452  1.00  0.00    -0.131 C  
HETATM   37  C   UNL     1      -9.260   3.565  72.708  1.00  0.00    -0.100 C  
ENDBRANCH  29  32
ENDBRANCH   9  26
ENDBRANCH   2   3
TORSDOF 3
ENDMDL
MODEL       53
REMARK 921   NORMALIZED FREE ENERGY PREDICTED BY IDOCK:    4.20 KCAL/MOL
REMARK 922        TOTAL FREE ENERGY PREDICTED BY IDOCK:    4.02 KCAL/MOL
REMARK 923 INTER-LIGAND FREE ENERGY PREDICTED BY IDOCK:   -4.40 KCAL/MOL
REMARK 924 INTRA-LIGAND FREE ENERGY PREDICTED BY IDOCK:    8.42 KCAL/MOL
REMARK 927      BINDING AFFINITY PREDICTED BY RF-SCORE:    0.00 PKD
ROOT
HETATM    1  C   UNL     1      -9.742   5.027  63.368  1.00  0.00     0.583 C  
HETATM    2  C   UNL     1      -8.411   5.675  63.750  1.00  0.00    -0.046 C  
ENDROOT
BRANCH   2   3
HETATM    3  C   UNL     1      -8.397   6.597  64.962  1.00  0.00    -0.067 A  
HETATM    4  C   UNL     1      -8.719   7.951  64.773  1.00  0.00     0.183 A  
HETATM    5  C   UNL     1      -8.840   8.850  65.836  1.00  0.00    -0.215 A  
HETATM    6  C   UNL     1      -8.604   8.430  67.152  1.00  0.00    -0.123 A  
HETATM    7  C   UNL     1      -8.242   7.084  67.333  1.00  0.00    -0.119 A  
HETATM    8  C   UNL     1      -8.761   9.365  68.369  1.00  0.00    -0.124 C  
HETATM    9  C   UNL     1      -8.155   6.138  66.282  1.00  0.00    -0.113 A  
HETATM   10  C   UNL     1      -9.880   8.825  69.289  1.00  0.00    -0.180 C  
HETATM   11  C   UNL     1      -9.140  10.753  67.907  1.00  0.00    -0.150 A  
HETATM   12  C   UNL     1      -7.430   9.433  69.147  1.00  0.00    -0.073 C  
HETATM   13  N   UNL     1     -10.861  17.610  67.939  1.00  0.00    -0.324 NA 
HETATM   14  C   UNL     1      -9.365  11.149  66.605  1.00  0.00    -0.194 A  
HETATM   15  C   UNL     1     -10.055  13.448  65.611  1.00  0.00    -0.285 A  
HETATM   16  C   UNL     1      -9.243  10.242  65.491  1.00  0.00    -0.190 C  
HETATM   17  C   UNL     1      -9.716  12.520  66.615  1.00  0.00    -0.244 A  
HETATM   18  O   UNL     1      -9.458  10.577  64.331  1.00  0.00    -0.229 OA 
HETATM   19  C   UNL     1     -10.353  14.764  65.966  1.00  0.00    -0.318 A  
HETATM   20  C   UNL     1      -9.686  12.936  67.946  1.00  0.00    -0.218 A  
HETATM   21  C   UNL     1      -9.980  14.252  68.322  1.00  0.00    -0.239 A  
HETATM   22  N   UNL     1      -9.334  11.846  68.712  1.00  0.00    -0.395 NA 
HETATM   23  C   UNL     1     -10.620  16.515  67.649  1.00  0.00    -0.321 C  
HETATM   24  C   UNL     1     -10.312  15.162  67.305  1.00  0.00    -0.261 A  
HETATM   25  H   UNL     1      -9.233  11.851  69.727  1.00  0.00     0.000 HD 
BRANCH   9  26
HETATM   26  N   UNL     1      -7.936   4.805  66.598  1.00  0.00    -0.103 NA 
HETATM   27  C   UNL     1      -7.585   2.629  65.646  1.00  0.00    -0.076 C  
HETATM   28  C   UNL     1      -6.943   3.993  65.893  1.00  0.00    -0.065 C  
HETATM   29  C   UNL     1      -7.930   1.945  66.993  1.00  0.00    -0.067 C  
HETATM   30  C   UNL     1      -8.264   4.283  67.933  1.00  0.00    -0.094 C  
HETATM   31  C   UNL     1      -8.878   2.897  67.757  1.00  0.00    -0.164 C  
BRANCH  29  32
HETATM   32  N   UNL     1      -6.709   1.594  67.774  1.00  0.00    -0.032 NA 
HETATM   33  C   UNL     1      -5.582   2.536  67.560  1.00  0.00    -0.018 C  
HETATM   34  C   UNL     1      -5.854   3.937  68.131  1.00  0.00    -0.026 C  
HETATM   35  O   UNL     1      -6.148   3.883  69.534  1.00  0.00    -0.025 OA 
HETATM   36  C   UNL     1      -7.223   2.977  69.817  1.00  0.00    -0.041 C  
HETATM   37  C   UNL     1      -6.944   1.579  69.240  1.00  0.00    -0.033 C  
ENDBRANCH  29  32
ENDBRANCH   9  26
ENDBRANCH   2   3
TORSDOF 3
ENDMDL
MODEL       54
REMARK 921   NORMALIZED FREE ENERGY PREDICTED BY IDOCK:    4.54 KCAL/MOL
REMARK 922        TOTAL FREE ENERGY PREDICTED BY IDOCK:    4.41 KCAL/MOL
REMARK 923 INTER-LIGAND FREE ENERGY PREDICTED BY IDOCK:   -1.72 KCAL/MOL
REMARK 924 INTRA-LIGAND FREE ENERGY PREDICTED BY IDOCK:    6.13 KCAL/MOL
REMARK 927      BINDING AFFINITY PREDICTED BY RF-SCORE:    0.00 PKD
ROOT
HETATM    1  C   UNL     1     -10.598  18.146  69.846  1.00  0.00     1.159 C  
HETATM    2  C   UNL     1     -10.910  17.028  68.850  1.00  0.00    -0.228 C  
ENDROOT
BRANCH   2   3
HETATM    3  C   UNL     1      -9.943  15.853  68.783  1.00  0.00    -0.220 A  
HETATM    4  C   UNL     1     -10.475  14.556  68.693  1.00  0.00    -0.247 A  
HETATM    5  C   UNL     1      -9.672  13.426  68.518  1.00  0.00    -0.156 A  
HETATM    6  C   UNL     1      -8.277  13.547  68.460  1.00  0.00    -0.104 A  
HETATM    7  C   UNL     1      -7.747  14.842  68.593  1.00  0.00    -0.130 A  
HETATM    8  C   UNL     1      -7.342  12.342  68.228  1.00  0.00    -0.108 C  
HETATM    9  C   UNL     1      -8.534  16.011  68.726  1.00  0.00    -0.228 A  
HETATM   10  C   UNL     1      -6.573  12.538  66.902  1.00  0.00     0.241 C  
HETATM   11  C   UNL     1      -8.154  11.071  68.135  1.00  0.00    -0.122 A  
HETATM   12  C   UNL     1      -6.346  12.224  69.401  1.00  0.00    -0.118 C  
HETATM   13  N   UNL     1      -9.920   4.262  67.418  1.00  0.00    -0.124 NA 
HETATM   14  C   UNL     1      -9.529  10.970  68.196  1.00  0.00    -0.172 A  
HETATM   15  C   UNL     1     -11.104   8.913  68.020  1.00  0.00     0.200 A  
HETATM   16  C   UNL     1     -10.377  12.121  68.380  1.00  0.00    -0.229 C  
HETATM   17  C   UNL     1      -9.879   9.608  68.046  1.00  0.00    -0.175 A  
HETATM   18  O   UNL     1     -11.602  12.048  68.419  1.00  0.00    -0.267 OA 
HETATM   19  C   UNL     1     -11.103   7.527  67.853  1.00  0.00     0.117 A  
HETATM   20  C   UNL     1      -8.688   8.896  67.903  1.00  0.00    -0.129 A  
HETATM   21  C   UNL     1      -8.666   7.506  67.737  1.00  0.00    -0.123 A  
HETATM   22  N   UNL     1      -7.654   9.805  67.960  1.00  0.00    -0.082 NA 
HETATM   23  C   UNL     1      -9.917   5.413  67.549  1.00  0.00    -0.166 C  
HETATM   24  C   UNL     1      -9.898   6.832  67.718  1.00  0.00    -0.148 A  
HETATM   25  H   UNL     1      -6.664   9.573  67.883  1.00  0.00     0.000 HD 
BRANCH   9  26
HETATM   26  N   UNL     1      -7.907  17.248  68.697  1.00  0.00    -0.265 NA 
HETATM   27  C   UNL     1      -7.927  19.446  69.663  1.00  0.00     0.273 C  
HETATM   28  C   UNL     1      -7.577  17.981  69.921  1.00  0.00     1.135 C  
HETATM   29  C   UNL     1      -7.074  20.005  68.497  1.00  0.00    -0.274 C  
HETATM   30  C   UNL     1      -7.082  17.648  67.547  1.00  0.00    -0.169 C  
HETATM   31  C   UNL     1      -7.358  19.121  67.261  1.00  0.00    -0.240 C  
BRANCH  29  32
HETATM   32  N   UNL     1      -5.625  20.072  68.841  1.00  0.00    -0.219 NA 
HETATM   33  C   UNL     1      -5.293  21.174  69.777  1.00  0.00    -0.204 C  
HETATM   34  C   UNL     1      -5.877  20.965  71.184  1.00  0.00     0.375 C  
HETATM   35  O   UNL     1      -5.435  19.726  71.756  1.00  0.00    -0.366 OA 
HETATM   36  C   UNL     1      -5.713  18.614  70.895  1.00  0.00    -0.023 C  
HETATM   37  C   UNL     1      -5.126  18.832  69.490  1.00  0.00    -0.184 C  
ENDBRANCH  29  32
ENDBRANCH   9  26
ENDBRANCH   2   3
TORSDOF 3
ENDMDL
MODEL       55
REMARK 921   NORMALIZED FREE ENERGY PREDICTED BY IDOCK:    4.69 KCAL/MOL
REMARK 922        TOTAL FREE ENERGY PREDICTED BY IDOCK:    4.59 KCAL/MOL
REMARK 923 INTER-LIGAND FREE ENERGY PREDICTED BY IDOCK:   -2.81 KCAL/MOL
REMARK 924 INTRA-LIGAND FREE ENERGY PREDICTED BY IDOCK:    7.40 KCAL/MOL
REMARK 927      BINDING AFFINITY PREDICTED BY RF-SCORE:    0.00 PKD
ROOT
HETATM    1  C   UNL     1     -11.074  14.892  66.455  1.00  0.00    -0.341 C  
HETATM    2  C   UNL     1     -10.554  14.597  67.863  1.00  0.00    -0.244 C  
ENDROOT
BRANCH   2   3
HETATM    3  C   UNL     1     -10.576  13.149  68.334  1.00  0.00    -0.264 A  
HETATM    4  C   UNL     1      -9.745  12.224  67.681  1.00  0.00    -0.194 A  
HETATM    5  C   UNL     1      -9.614  10.900  68.109  1.00  0.00    -0.169 A  
HETATM    6  C   UNL     1     -10.351  10.431  69.206  1.00  0.00    -0.250 A  
HETATM    7  C   UNL     1     -11.212  11.350  69.830  1.00  0.00    -0.221 A  
HETATM    8  C   UNL     1     -10.218   8.993  69.749  1.00  0.00    -0.214 C  
HETATM    9  C   UNL     1     -11.334  12.708  69.450  1.00  0.00    -0.208 A  
HETATM   10  C   UNL     1      -9.683   9.041  71.199  1.00  0.00    -0.369 C  
HETATM   11  C   UNL     1      -9.247   8.209  68.898  1.00  0.00    -0.147 A  
HETATM   12  C   UNL     1     -11.596   8.298  69.721  1.00  0.00     0.394 C  
HETATM   13  N   UNL     1      -5.240   2.954  66.385  1.00  0.00    -0.011 NA 
HETATM   14  C   UNL     1      -8.532   8.687  67.819  1.00  0.00    -0.125 A  
HETATM   15  C   UNL     1      -6.803   7.530  66.265  1.00  0.00    -0.061 A  
HETATM   16  C   UNL     1      -8.653  10.047  67.357  1.00  0.00    -0.125 C  
HETATM   17  C   UNL     1      -7.727   7.635  67.323  1.00  0.00    -0.113 A  
HETATM   18  O   UNL     1      -8.011  10.489  66.410  1.00  0.00    -0.125 OA 
HETATM   19  C   UNL     1      -6.162   6.312  66.033  1.00  0.00    -0.037 A  
HETATM   20  C   UNL     1      -7.981   6.518  68.119  1.00  0.00    -0.110 A  
HETATM   21  C   UNL     1      -7.349   5.288  67.901  1.00  0.00    -0.076 A  
HETATM   22  N   UNL     1      -8.907   6.891  69.070  1.00  0.00    -0.131 NA 
HETATM   23  C   UNL     1      -5.768   3.965  66.585  1.00  0.00    -0.022 C  
HETATM   24  C   UNL     1      -6.435   5.204  66.839  1.00  0.00    -0.041 A  
HETATM   25  H   UNL     1      -9.284   6.279  69.793  1.00  0.00     0.000 HD 
BRANCH   9  26
HETATM   26  N   UNL     1     -12.102  13.557  70.233  1.00  0.00    -0.353 NA 
HETATM   27  C   UNL     1     -13.409  13.674  72.243  1.00  0.00    -0.622 C  
HETATM   28  C   UNL     1     -11.987  13.585  71.692  1.00  0.00     0.657 C  
HETATM   29  C   UNL     1     -14.089  14.982  71.768  1.00  0.00    -0.527 C  
HETATM   30  C   UNL     1     -12.657  14.800  69.676  1.00  0.00    -0.062 C  
HETATM   31  C   UNL     1     -14.072  14.968  70.223  1.00  0.00     1.135 C  
BRANCH  29  32
HETATM   32  N   UNL     1     -13.439  16.195  72.344  1.00  0.00    -0.177 NA 
HETATM   33  C   UNL     1     -13.439  16.213  73.828  1.00  0.00     0.101 C  
HETATM   34  C   UNL     1     -12.538  15.129  74.441  1.00  0.00    -0.233 C  
HETATM   35  O   UNL     1     -11.186  15.247  73.978  1.00  0.00     0.677 OA 
HETATM   36  C   UNL     1     -11.112  15.250  72.547  1.00  0.00     0.239 C  
HETATM   37  C   UNL     1     -12.017  16.336  71.941  1.00  0.00    -0.441 C  
ENDBRANCH  29  32
ENDBRANCH   9  26
ENDBRANCH   2   3
TORSDOF 3
ENDMDL
MODEL       56
REMARK 921   NORMALIZED FREE ENERGY PREDICTED BY IDOCK:    4.81 KCAL/MOL
REMARK 922        TOTAL FREE ENERGY PREDICTED BY IDOCK:    4.73 KCAL/MOL
REMARK 923 INTER-LIGAND FREE ENERGY PREDICTED BY IDOCK:   -5.11 KCAL/MOL
REMARK 924 INTRA-LIGAND FREE ENERGY PREDICTED BY IDOCK:    9.84 KCAL/MOL
REMARK 927      BINDING AFFINITY PREDICTED BY RF-SCORE:    0.00 PKD
ROOT
HETATM    1  C   UNL     1      -5.245   5.829  67.394  1.00  0.00    -0.005 C  
HETATM    2  C   UNL     1      -5.211   7.166  66.651  1.00  0.00    -0.022 C  
ENDROOT
BRANCH   2   3
HETATM    3  C   UNL     1      -6.486   7.999  66.640  1.00  0.00    -0.055 A  
HETATM    4  C   UNL     1      -6.417   9.327  67.092  1.00  0.00    -0.063 A  
HETATM    5  C   UNL     1      -7.504  10.202  67.020  1.00  0.00    -0.092 A  
HETATM    6  C   UNL     1      -8.737   9.764  66.516  1.00  0.00    -0.139 A  
HETATM    7  C   UNL     1      -8.813   8.422  66.104  1.00  0.00    -0.198 A  
HETATM    8  C   UNL     1      -9.960  10.694  66.374  1.00  0.00    -0.273 C  
HETATM    9  C   UNL     1      -7.718   7.524  66.122  1.00  0.00    -0.090 A  
HETATM   10  C   UNL     1     -10.343  10.811  64.881  1.00  0.00    -0.369 C  
HETATM   11  C   UNL     1      -9.624  12.070  66.898  1.00  0.00    -0.203 A  
HETATM   12  C   UNL     1     -11.146  10.119  67.177  1.00  0.00    -0.122 C  
HETATM   13  N   UNL     1     -10.161  18.875  68.741  1.00  0.00    -0.339 NA 
HETATM   14  C   UNL     1      -8.404  12.483  67.394  1.00  0.00    -0.182 A  
HETATM   15  C   UNL     1      -7.615  14.787  68.298  1.00  0.00    -0.115 A  
HETATM   16  C   UNL     1      -7.269  11.598  67.482  1.00  0.00    -0.119 C  
HETATM   17  C   UNL     1      -8.513  13.847  67.756  1.00  0.00    -0.183 A  
HETATM   18  O   UNL     1      -6.174  11.957  67.904  1.00  0.00    -0.052 OA 
HETATM   19  C   UNL     1      -8.053  16.088  68.547  1.00  0.00    -0.169 A  
HETATM   20  C   UNL     1      -9.823  14.238  67.476  1.00  0.00    -0.231 A  
HETATM   21  C   UNL     1     -10.280  15.537  67.720  1.00  0.00    -0.243 A  
HETATM   22  N   UNL     1     -10.478  13.142  66.956  1.00  0.00    -0.247 NA 
HETATM   23  C   UNL     1      -9.800  17.796  68.527  1.00  0.00    -0.355 C  
HETATM   24  C   UNL     1      -9.370  16.458  68.264  1.00  0.00    -0.210 A  
HETATM   25  H   UNL     1     -11.453  13.130  66.658  1.00  0.00     0.000 HD 
BRANCH   9  26
HETATM   26  N   UNL     1      -7.872   6.270  65.552  1.00  0.00    -0.095 NA 
HETATM   27  C   UNL     1      -7.030   4.021  65.576  1.00  0.00    -0.062 C  
HETATM   28  C   UNL     1      -7.858   5.044  66.352  1.00  0.00    -0.099 C  
HETATM   29  C   UNL     1      -7.693   3.720  64.208  1.00  0.00    -0.084 C  
HETATM   30  C   UNL     1      -8.564   6.107  64.264  1.00  0.00     0.221 C  
HETATM   31  C   UNL     1      -7.804   5.063  63.451  1.00  0.00    -0.080 C  
BRANCH  29  32
HETATM   32  N   UNL     1      -9.006   3.030  64.359  1.00  0.00    -0.109 NA 
HETATM   33  C   UNL     1      -9.090   2.185  65.577  1.00  0.00    -0.091 C  
HETATM   34  C   UNL     1      -9.083   3.004  66.878  1.00  0.00    -0.167 C  
HETATM   35  O   UNL     1     -10.156   3.956  66.903  1.00  0.00    -0.064 OA 
HETATM   36  C   UNL     1     -10.145   4.800  65.744  1.00  0.00    -0.214 C  
HETATM   37  C   UNL     1     -10.150   3.974  64.448  1.00  0.00    -0.190 C  
ENDBRANCH  29  32
ENDBRANCH   9  26
ENDBRANCH   2   3
TORSDOF 3
ENDMDL
MODEL       57
REMARK 921   NORMALIZED FREE ENERGY PREDICTED BY IDOCK:    5.17 KCAL/MOL
REMARK 922        TOTAL FREE ENERGY PREDICTED BY IDOCK:    5.15 KCAL/MOL
REMARK 923 INTER-LIGAND FREE ENERGY PREDICTED BY IDOCK:   -2.81 KCAL/MOL
REMARK 924 INTRA-LIGAND FREE ENERGY PREDICTED BY IDOCK:    7.96 KCAL/MOL
REMARK 927      BINDING AFFINITY PREDICTED BY RF-SCORE:    0.00 PKD
ROOT
HETATM    1  C   UNL     1     -13.293  13.330  69.957  1.00  0.00     1.321 C  
HETATM    2  C   UNL     1     -12.587  12.864  68.682  1.00  0.00     0.755 C  
ENDROOT
BRANCH   2   3
HETATM    3  C   UNL     1     -11.165  12.336  68.816  1.00  0.00    -0.312 A  
HETATM    4  C   UNL     1     -10.978  11.061  69.376  1.00  0.00    -0.301 A  
HETATM    5  C   UNL     1      -9.725  10.446  69.441  1.00  0.00    -0.222 A  
HETATM    6  C   UNL     1      -8.582  11.110  68.973  1.00  0.00    -0.033 A  
HETATM    7  C   UNL     1      -8.768  12.402  68.452  1.00  0.00    -0.132 A  
HETATM    8  C   UNL     1      -7.180  10.467  68.981  1.00  0.00    -0.088 C  
HETATM    9  C   UNL     1     -10.030  13.034  68.330  1.00  0.00    -0.216 A  
HETATM   10  C   UNL     1      -6.670  10.331  67.528  1.00  0.00    -0.071 C  
HETATM   11  C   UNL     1      -7.248   9.091  69.602  1.00  0.00    -0.059 A  
HETATM   12  C   UNL     1      -6.210  11.347  69.798  1.00  0.00    -0.135 C  
HETATM   13  N   UNL     1      -5.388   2.725  72.051  1.00  0.00    -0.003 NA 
HETATM   14  C   UNL     1      -8.383   8.454  70.061  1.00  0.00    -0.123 A  
HETATM   15  C   UNL     1      -8.719   6.104  71.113  1.00  0.00    -0.132 A  
HETATM   16  C   UNL     1      -9.685   9.069  70.008  1.00  0.00    -0.185 C  
HETATM   17  C   UNL     1      -8.008   7.178  70.544  1.00  0.00    -0.105 A  
HETATM   18  O   UNL     1     -10.705   8.508  70.396  1.00  0.00    -0.219 OA 
HETATM   19  C   UNL     1      -8.030   4.953  71.498  1.00  0.00    -0.110 A  
HETATM   20  C   UNL     1      -6.628   7.069  70.374  1.00  0.00    -0.051 A  
HETATM   21  C   UNL     1      -5.919   5.924  70.754  1.00  0.00    -0.029 A  
HETATM   22  N   UNL     1      -6.188   8.242  69.800  1.00  0.00    -0.032 NA 
HETATM   23  C   UNL     1      -5.957   3.679  71.724  1.00  0.00    -0.013 C  
HETATM   24  C   UNL     1      -6.646   4.866  71.324  1.00  0.00    -0.034 A  
HETATM   25  H   UNL     1      -5.220   8.450  69.558  1.00  0.00     0.000 HD 
BRANCH   9  26
HETATM   26  N   UNL     1     -10.109  14.247  67.663  1.00  0.00    -0.228 NA 
HETATM   27  C   UNL     1     -10.802  15.279  65.609  1.00  0.00    -0.371 C  
HETATM   28  C   UNL     1     -11.298  14.642  66.906  1.00  0.00    -0.356 C  
HETATM   29  C   UNL     1      -9.962  16.543  65.918  1.00  0.00    -0.317 C  
HETATM   30  C   UNL     1      -9.288  15.393  68.083  1.00  0.00    -0.197 C  
HETATM   31  C   UNL     1      -8.791  16.100  66.825  1.00  0.00    -0.275 C  
BRANCH  29  32
HETATM   32  N   UNL     1     -10.783  17.631  66.523  1.00  0.00    -0.176 NA 
HETATM   33  C   UNL     1     -11.659  17.163  67.626  1.00  0.00     0.756 C  
HETATM   34  C   UNL     1     -10.873  16.717  68.870  1.00  0.00    -0.301 C  
HETATM   35  O   UNL     1     -10.034  17.771  69.364  1.00  0.00    -0.155 OA 
HETATM   36  C   UNL     1      -9.167  18.283  68.343  1.00  0.00    -0.317 C  
HETATM   37  C   UNL     1      -9.961  18.724  67.103  1.00  0.00    -0.336 C  
ENDBRANCH  29  32
ENDBRANCH   9  26
ENDBRANCH   2   3
TORSDOF 3
ENDMDL
MODEL       58
REMARK 921   NORMALIZED FREE ENERGY PREDICTED BY IDOCK:    5.50 KCAL/MOL
REMARK 922        TOTAL FREE ENERGY PREDICTED BY IDOCK:    5.55 KCAL/MOL
REMARK 923 INTER-LIGAND FREE ENERGY PREDICTED BY IDOCK:   -4.27 KCAL/MOL
REMARK 924 INTRA-LIGAND FREE ENERGY PREDICTED BY IDOCK:    9.82 KCAL/MOL
REMARK 927      BINDING AFFINITY PREDICTED BY RF-SCORE:    0.00 PKD
ROOT
HETATM    1  C   UNL     1      -6.168   6.077  71.188  1.00  0.00    -0.039 C  
HETATM    2  C   UNL     1      -6.612   7.493  71.557  1.00  0.00    -0.045 C  
ENDROOT
BRANCH   2   3
HETATM    3  C   UNL     1      -7.240   8.343  70.461  1.00  0.00    -0.042 A  
HETATM    4  C   UNL     1      -7.012   9.730  70.481  1.00  0.00    -0.131 A  
HETATM    5  C   UNL     1      -7.453  10.578  69.461  1.00  0.00    -0.146 A  
HETATM    6  C   UNL     1      -8.184  10.068  68.379  1.00  0.00    -0.106 A  
HETATM    7  C   UNL     1      -8.445   8.686  68.385  1.00  0.00    -0.131 A  
HETATM    8  C   UNL     1      -8.662  10.947  67.205  1.00  0.00    -0.132 C  
HETATM    9  C   UNL     1      -7.974   7.795  69.379  1.00  0.00    -0.124 A  
HETATM   10  C   UNL     1      -7.995  10.462  65.898  1.00  0.00    -0.151 C  
HETATM   11  C   UNL     1      -8.270  12.386  67.446  1.00  0.00    -0.180 A  
HETATM   12  C   UNL     1     -10.198  10.852  67.076  1.00  0.00    -0.256 C  
HETATM   13  N   UNL     1      -7.460  19.360  66.613  1.00  0.00    -0.231 NA 
HETATM   14  C   UNL     1      -7.552  12.870  68.520  1.00  0.00    -0.120 A  
HETATM   15  C   UNL     1      -6.750  15.272  69.098  1.00  0.00    -0.135 A  
HETATM   16  C   UNL     1      -7.090  12.017  69.585  1.00  0.00     0.268 C  
HETATM   17  C   UNL     1      -7.387  14.265  68.347  1.00  0.00    -0.119 A  
HETATM   18  O   UNL     1      -6.436  12.431  70.537  1.00  0.00    -0.009 OA 
HETATM   19  C   UNL     1      -6.773  16.589  68.637  1.00  0.00    -0.152 A  
HETATM   20  C   UNL     1      -8.027  14.605  67.155  1.00  0.00    -0.154 A  
HETATM   21  C   UNL     1      -8.062  15.920  66.678  1.00  0.00    -0.298 A  
HETATM   22  N   UNL     1      -8.556  13.448  66.626  1.00  0.00    -0.442 NA 
HETATM   23  C   UNL     1      -7.438  18.265  66.988  1.00  0.00    -0.213 C  
HETATM   24  C   UNL     1      -7.424  16.910  67.443  1.00  0.00    -0.187 A  
HETATM   25  H   UNL     1      -9.081  13.389  65.754  1.00  0.00     0.000 HD 
BRANCH   9  26
HETATM   26  N   UNL     1      -8.166   6.432  69.201  1.00  0.00    -0.111 NA 
HETATM   27  C   UNL     1      -7.224   4.273  69.667  1.00  0.00    -0.050 C  
HETATM   28  C   UNL     1      -7.949   5.470  70.282  1.00  0.00    -0.101 C  
HETATM   29  C   UNL     1      -8.103   3.614  68.576  1.00  0.00    -0.070 C  
HETATM   30  C   UNL     1      -9.066   5.928  68.153  1.00  0.00    -0.117 C  
HETATM   31  C   UNL     1      -8.412   4.702  67.522  1.00  0.00    -0.104 C  
BRANCH  29  32
HETATM   32  N   UNL     1      -9.334   2.992  69.144  1.00  0.00    -0.157 NA 
HETATM   33  C   UNL     1      -9.078   1.698  69.825  1.00  0.00    -0.092 C  
HETATM   34  C   UNL     1      -8.252   1.850  71.113  1.00  0.00    -0.046 C  
HETATM   35  O   UNL     1      -8.888   2.740  72.041  1.00  0.00    -0.072 OA 
HETATM   36  C   UNL     1      -9.178   4.011  71.444  1.00  0.00    -0.129 C  
HETATM   37  C   UNL     1     -10.002   3.850  70.155  1.00  0.00     0.051 C  
ENDBRANCH  29  32
ENDBRANCH   9  26
ENDBRANCH   2   3
TORSDOF 3
ENDMDL
MODEL       59
REMARK 921   NORMALIZED FREE ENERGY PREDICTED BY IDOCK:    5.64 KCAL/MOL
REMARK 922        TOTAL FREE ENERGY PREDICTED BY IDOCK:    5.71 KCAL/MOL
REMARK 923 INTER-LIGAND FREE ENERGY PREDICTED BY IDOCK:   -4.60 KCAL/MOL
REMARK 924 INTRA-LIGAND FREE ENERGY PREDICTED BY IDOCK:   10.31 KCAL/MOL
REMARK 927      BINDING AFFINITY PREDICTED BY RF-SCORE:    0.00 PKD
ROOT
HETATM    1  C   UNL     1      -5.787  16.665  70.162  1.00  0.00    -0.176 C  
HETATM    2  C   UNL     1      -5.794  15.617  69.048  1.00  0.00    -0.105 C  
ENDROOT
BRANCH   2   3
HETATM    3  C   UNL     1      -7.042  14.758  68.896  1.00  0.00    -0.118 A  
HETATM    4  C   UNL     1      -6.938  13.381  69.157  1.00  0.00    -0.044 A  
HETATM    5  C   UNL     1      -8.047  12.530  69.152  1.00  0.00     0.478 A  
HETATM    6  C   UNL     1      -9.322  13.026  68.844  1.00  0.00     0.275 A  
HETATM    7  C   UNL     1      -9.414  14.396  68.542  1.00  0.00    -0.212 A  
HETATM    8  C   UNL     1     -10.588  12.144  68.861  1.00  0.00    -0.179 C  
HETATM    9  C   UNL     1      -8.318  15.292  68.584  1.00  0.00    -0.162 A  
HETATM   10  C   UNL     1     -11.564  12.671  69.938  1.00  0.00    -0.248 C  
HETATM   11  C   UNL     1     -10.218  10.718  69.197  1.00  0.00    -0.211 A  
HETATM   12  C   UNL     1     -11.266  12.182  67.475  1.00  0.00    -0.357 C  
HETATM   13  N   UNL     1     -10.688   3.792  70.538  1.00  0.00     1.480 NA 
HETATM   14  C   UNL     1      -8.956  10.248  69.495  1.00  0.00    -0.176 A  
HETATM   15  C   UNL     1      -8.122   7.872  70.130  1.00  0.00    -0.116 A  
HETATM   16  C   UNL     1      -7.797  11.105  69.503  1.00  0.00     0.173 C  
HETATM   17  C   UNL     1      -9.054   8.863  69.769  1.00  0.00    -0.151 A  
HETATM   18  O   UNL     1      -6.672  10.703  69.783  1.00  0.00    -0.098 OA 
HETATM   19  C   UNL     1      -8.557   6.561  70.330  1.00  0.00    -0.136 A  
HETATM   20  C   UNL     1     -10.397   8.514  69.620  1.00  0.00    -0.218 A  
HETATM   21  C   UNL     1     -10.852   7.205  69.814  1.00  0.00    -0.261 A  
HETATM   22  N   UNL     1     -11.084   9.657  69.273  1.00  0.00    -0.401 NA 
HETATM   23  C   UNL     1     -10.332   4.883  70.378  1.00  0.00    -0.178 C  
HETATM   24  C   UNL     1      -9.905   6.231  70.170  1.00  0.00    -0.201 A  
HETATM   25  H   UNL     1     -12.088   9.707  69.098  1.00  0.00     0.000 HD 
BRANCH   9  26
HETATM   26  N   UNL     1      -8.556  16.648  68.415  1.00  0.00    -0.212 NA 
HETATM   27  C   UNL     1      -7.575  18.825  68.662  1.00  0.00    -0.357 C  
HETATM   28  C   UNL     1      -7.559  17.545  67.828  1.00  0.00    -0.193 C  
HETATM   29  C   UNL     1      -8.966  19.501  68.582  1.00  0.00    -0.336 C  
HETATM   30  C   UNL     1      -9.929  17.165  68.306  1.00  0.00    -0.300 C  
HETATM   31  C   UNL     1     -10.001  18.472  69.090  1.00  0.00    -0.221 C  
BRANCH  29  32
HETATM   32  N   UNL     1      -9.272  20.001  67.210  1.00  0.00    -0.349 NA 
HETATM   33  C   UNL     1      -8.332  19.496  66.178  1.00  0.00    -0.321 C  
HETATM   34  C   UNL     1      -8.465  17.984  65.932  1.00  0.00     0.145 C  
HETATM   35  O   UNL     1      -9.802  17.631  65.550  1.00  0.00    -0.475 OA 
HETATM   36  C   UNL     1     -10.767  18.101  66.500  1.00  0.00    -0.151 C  
HETATM   37  C   UNL     1     -10.626  19.613  66.741  1.00  0.00    -0.486 C  
ENDBRANCH  29  32
ENDBRANCH   9  26
ENDBRANCH   2   3
TORSDOF 3
ENDMDL
MODEL       60
REMARK 921   NORMALIZED FREE ENERGY PREDICTED BY IDOCK:    6.54 KCAL/MOL
REMARK 922        TOTAL FREE ENERGY PREDICTED BY IDOCK:    6.77 KCAL/MOL
REMARK 923 INTER-LIGAND FREE ENERGY PREDICTED BY IDOCK:    6.11 KCAL/MOL
REMARK 924 INTRA-LIGAND FREE ENERGY PREDICTED BY IDOCK:    0.65 KCAL/MOL
REMARK 927      BINDING AFFINITY PREDICTED BY RF-SCORE:    0.00 PKD
ROOT
HETATM    1  C   UNL     1      -9.030   9.747  62.561  1.00  0.00    -0.280 C  
HETATM    2  C   UNL     1     -10.151  10.529  63.246  1.00  0.00    -0.123 C  
ENDROOT
BRANCH   2   3
HETATM    3  C   UNL     1      -9.905  11.017  64.667  1.00  0.00    -0.338 A  
HETATM    4  C   UNL     1     -10.068  12.385  64.940  1.00  0.00    -0.259 A  
HETATM    5  C   UNL     1      -9.971  12.910  66.232  1.00  0.00    -0.271 A  
HETATM    6  C   UNL     1      -9.666  12.077  67.317  1.00  0.00    -0.190 A  
HETATM    7  C   UNL     1      -9.463  10.715  67.033  1.00  0.00    -0.187 A  
HETATM    8  C   UNL     1      -9.586  12.591  68.769  1.00  0.00     0.079 C  
HETATM    9  C   UNL     1      -9.598  10.145  65.744  1.00  0.00    -0.230 A  
HETATM   10  C   UNL     1     -10.672  11.894  69.620  1.00  0.00     0.221 C  
HETATM   11  C   UNL     1      -9.826  14.082  68.801  1.00  0.00    -0.139 A  
HETATM   12  C   UNL     1      -8.188  12.288  69.351  1.00  0.00     0.915 C  
HETATM   13  N   UNL     1     -10.646  20.708  71.129  1.00  0.00     2.784 NA 
HETATM   14  C   UNL     1     -10.122  14.888  67.721  1.00  0.00    -0.234 A  
HETATM   15  C   UNL     1     -10.604  17.436  67.568  1.00  0.00    -0.330 A  
HETATM   16  C   UNL     1     -10.224  14.371  66.379  1.00  0.00    -0.289 C  
HETATM   17  C   UNL     1     -10.292  16.212  68.191  1.00  0.00    -0.269 A  
HETATM   18  O   UNL     1     -10.503  15.072  65.413  1.00  0.00    -0.324 OA 
HETATM   19  C   UNL     1     -10.696  18.594  68.339  1.00  0.00     0.022 A  
HETATM   20  C   UNL     1     -10.082  16.183  69.570  1.00  0.00    -0.241 A  
HETATM   21  C   UNL     1     -10.169  17.335  70.360  1.00  0.00     1.259 A  
HETATM   22  N   UNL     1      -9.801  14.879  69.918  1.00  0.00    -0.456 NA 
HETATM   23  C   UNL     1     -10.575  19.743  70.492  1.00  0.00     1.824 C  
HETATM   24  C   UNL     1     -10.477  18.545  69.719  1.00  0.00     0.992 A  
HETATM   25  H   UNL     1      -9.604  14.555  70.864  1.00  0.00     0.000 HD 
BRANCH   9  26
HETATM   26  N   UNL     1      -9.523   8.767  65.610  1.00  0.00    -0.163 NA 
HETATM   27  C   UNL     1     -10.281   6.691  66.550  1.00  0.00    -0.129 C  
HETATM   28  C   UNL     1     -10.703   7.908  65.727  1.00  0.00     2.865 C  
HETATM   29  C   UNL     1      -9.162   5.909  65.818  1.00  0.00    -0.041 C  
HETATM   30  C   UNL     1      -8.431   8.142  64.848  1.00  0.00    -0.075 C  
HETATM   31  C   UNL     1      -7.988   6.891  65.602  1.00  0.00    -0.120 C  
BRANCH  29  32
HETATM   32  N   UNL     1      -9.644   5.294  64.548  1.00  0.00     0.404 NA 
HETATM   33  C   UNL     1      -8.581   5.157  63.521  1.00  0.00    -0.082 C  
HETATM   34  C   UNL     1      -7.502   4.132  63.906  1.00  0.00    -0.062 C  
HETATM   35  O   UNL     1      -8.073   2.839  64.154  1.00  0.00    -0.081 OA 
HETATM   36  C   UNL     1      -9.120   2.899  65.130  1.00  0.00    -0.148 C  
HETATM   37  C   UNL     1     -10.194   3.928  64.738  1.00  0.00    -0.188 C  
ENDBRANCH  29  32
ENDBRANCH   9  26
ENDBRANCH   2   3
TORSDOF 3
ENDMDL
MODEL       61
REMARK 921   NORMALIZED FREE ENERGY PREDICTED BY IDOCK:    6.81 KCAL/MOL
REMARK 922        TOTAL FREE ENERGY PREDICTED BY IDOCK:    7.08 KCAL/MOL
REMARK 923 INTER-LIGAND FREE ENERGY PREDICTED BY IDOCK:    1.03 KCAL/MOL
REMARK 924 INTRA-LIGAND FREE ENERGY PREDICTED BY IDOCK:    6.05 KCAL/MOL
REMARK 927      BINDING AFFINITY PREDICTED BY RF-SCORE:    0.00 PKD
ROOT
HETATM    1  C   UNL     1     -12.420   6.513  68.869  1.00  0.00     3.509 C  
HETATM    2  C   UNL     1     -12.181   7.757  69.726  1.00  0.00     1.139 C  
ENDROOT
BRANCH   2   3
HETATM    3  C   UNL     1     -10.820   8.432  69.625  1.00  0.00    -0.153 A  
HETATM    4  C   UNL     1     -10.745   9.692  69.008  1.00  0.00    -0.232 A  
HETATM    5  C   UNL     1      -9.564  10.438  68.964  1.00  0.00    -0.212 A  
HETATM    6  C   UNL     1      -8.380   9.927  69.514  1.00  0.00    -0.174 A  
HETATM    7  C   UNL     1      -8.450   8.649  70.093  1.00  0.00    -0.135 A  
HETATM    8  C   UNL     1      -7.057  10.720  69.531  1.00  0.00    -0.132 C  
HETATM    9  C   UNL     1      -9.640   7.888  70.194  1.00  0.00    -0.175 A  
HETATM   10  C   UNL     1      -6.635  10.979  70.995  1.00  0.00     1.105 C  
HETATM   11  C   UNL     1      -7.244  12.049  68.837  1.00  0.00    -0.089 A  
HETATM   12  C   UNL     1      -5.959   9.915  68.803  1.00  0.00    -0.038 C  
HETATM   13  N   UNL     1      -5.968  18.459  66.140  1.00  0.00    -0.164 NA 
HETATM   14  C   UNL     1      -8.417  12.534  68.298  1.00  0.00    -0.165 A  
HETATM   15  C   UNL     1      -8.955  14.781  67.111  1.00  0.00    -0.239 A  
HETATM   16  C   UNL     1      -9.647  11.782  68.328  1.00  0.00    -0.199 C  
HETATM   17  C   UNL     1      -8.160  13.819  67.765  1.00  0.00    -0.176 A  
HETATM   18  O   UNL     1     -10.701  12.209  67.868  1.00  0.00    -0.196 OA 
HETATM   19  C   UNL     1      -8.377  15.981  66.697  1.00  0.00    -0.331 A  
HETATM   20  C   UNL     1      -6.810  14.088  67.987  1.00  0.00    -0.145 A  
HETATM   21  C   UNL     1      -6.211  15.285  67.578  1.00  0.00    -0.102 A  
HETATM   22  N   UNL     1      -6.273  12.999  68.640  1.00  0.00    -0.073 NA 
HETATM   23  C   UNL     1      -6.446  17.464  66.491  1.00  0.00    -0.234 C  
HETATM   24  C   UNL     1      -7.021  16.229  66.924  1.00  0.00    -0.226 A  
HETATM   25  H   UNL     1      -5.301  12.912  68.933  1.00  0.00     0.000 HD 
BRANCH   9  26
HETATM   26  N   UNL     1      -9.619   6.706  70.920  1.00  0.00    -0.175 NA 
HETATM   27  C   UNL     1     -10.911   4.759  71.476  1.00  0.00     0.125 C  
HETATM   28  C   UNL     1     -10.115   5.445  70.366  1.00  0.00    -0.244 C  
HETATM   29  C   UNL     1      -9.991   4.450  72.683  1.00  0.00    -0.164 C  
HETATM   30  C   UNL     1      -8.663   6.513  72.020  1.00  0.00    -0.132 C  
HETATM   31  C   UNL     1      -9.389   5.794  73.153  1.00  0.00    -0.139 C  
BRANCH  29  32
HETATM   32  N   UNL     1      -8.950   3.434  72.352  1.00  0.00    -0.091 NA 
HETATM   33  C   UNL     1      -7.929   3.929  71.396  1.00  0.00    -0.068 C  
HETATM   34  C   UNL     1      -7.031   5.027  71.989  1.00  0.00    -0.066 C  
HETATM   35  O   UNL     1      -6.368   4.575  73.178  1.00  0.00    -0.037 OA 
HETATM   36  C   UNL     1      -7.297   4.069  74.145  1.00  0.00    -0.067 C  
HETATM   37  C   UNL     1      -8.192   2.973  73.543  1.00  0.00    -0.073 C  
ENDBRANCH  29  32
ENDBRANCH   9  26
ENDBRANCH   2   3
TORSDOF 3
ENDMDL
MODEL       62
REMARK 921   NORMALIZED FREE ENERGY PREDICTED BY IDOCK:    7.94 KCAL/MOL
REMARK 922        TOTAL FREE ENERGY PREDICTED BY IDOCK:    8.41 KCAL/MOL
REMARK 923 INTER-LIGAND FREE ENERGY PREDICTED BY IDOCK:   -2.69 KCAL/MOL
REMARK 924 INTRA-LIGAND FREE ENERGY PREDICTED BY IDOCK:   11.11 KCAL/MOL
REMARK 927      BINDING AFFINITY PREDICTED BY RF-SCORE:    0.00 PKD
ROOT
HETATM    1  C   UNL     1      -8.745   7.938  63.280  1.00  0.00     0.503 C  
HETATM    2  C   UNL     1      -9.227   9.390  63.288  1.00  0.00     0.093 C  
ENDROOT
BRANCH   2   3
HETATM    3  C   UNL     1      -8.912  10.230  64.517  1.00  0.00    -0.247 A  
HETATM    4  C   UNL     1      -9.246  11.595  64.495  1.00  0.00     0.138 A  
HETATM    5  C   UNL     1      -9.097  12.423  65.611  1.00  0.00     0.250 A  
HETATM    6  C   UNL     1      -8.564  11.918  66.805  1.00  0.00    -0.181 A  
HETATM    7  C   UNL     1      -8.192  10.562  66.810  1.00  0.00    -0.126 A  
HETATM    8  C   UNL     1      -8.413  12.772  68.080  1.00  0.00    -0.177 C  
HETATM    9  C   UNL     1      -8.372   9.687  65.711  1.00  0.00    -0.128 A  
HETATM   10  C   UNL     1      -9.292  12.176  69.203  1.00  0.00     0.520 C  
HETATM   11  C   UNL     1      -8.866  14.188  67.808  1.00  0.00    -0.185 A  
HETATM   12  C   UNL     1      -6.934  12.788  68.523  1.00  0.00    -0.095 C  
HETATM   13  N   UNL     1     -10.412  21.032  68.676  1.00  0.00     0.657 NA 
HETATM   14  C   UNL     1      -9.386  14.669  66.624  1.00  0.00    -0.293 A  
HETATM   15  C   UNL     1     -10.251  17.028  65.968  1.00  0.00    -0.337 A  
HETATM   16  C   UNL     1      -9.546  13.835  65.459  1.00  0.00     0.044 C  
HETATM   17  C   UNL     1      -9.700  16.036  66.803  1.00  0.00    -0.253 A  
HETATM   18  O   UNL     1     -10.023  14.245  64.405  1.00  0.00    -0.062 OA 
HETATM   19  C   UNL     1     -10.434  18.319  66.465  1.00  0.00    -0.378 A  
HETATM   20  C   UNL     1      -9.349  16.366  68.113  1.00  0.00    -0.209 A  
HETATM   21  C   UNL     1      -9.524  17.655  68.628  1.00  0.00    -0.284 A  
HETATM   22  N   UNL     1      -8.845  15.227  68.704  1.00  0.00    -0.177 NA 
HETATM   23  C   UNL     1     -10.265  19.958  68.269  1.00  0.00    -0.434 C  
HETATM   24  C   UNL     1     -10.071  18.630  67.778  1.00  0.00    -0.408 A  
HETATM   25  H   UNL     1      -8.507  15.166  69.664  1.00  0.00     0.000 HD 
BRANCH   9  26
HETATM   26  N   UNL     1      -8.108   8.336  65.882  1.00  0.00    -0.100 NA 
HETATM   27  C   UNL     1      -7.053   6.432  64.868  1.00  0.00    -0.060 C  
HETATM   28  C   UNL     1      -6.797   7.757  65.585  1.00  0.00    -0.053 C  
HETATM   29  C   UNL     1      -7.833   5.463  65.791  1.00  0.00    -0.100 C  
HETATM   30  C   UNL     1      -8.893   7.528  66.827  1.00  0.00    -0.140 C  
HETATM   31  C   UNL     1      -9.151   6.169  66.183  1.00  0.00    -0.158 C  
BRANCH  29  32
HETATM   32  N   UNL     1      -7.027   5.043  66.974  1.00  0.00    -0.063 NA 
HETATM   33  C   UNL     1      -5.629   5.540  66.940  1.00  0.00    -0.017 C  
HETATM   34  C   UNL     1      -5.530   7.066  67.095  1.00  0.00    -0.017 C  
HETATM   35  O   UNL     1      -6.147   7.510  68.312  1.00  0.00    -0.033 OA 
HETATM   36  C   UNL     1      -7.501   7.053  68.418  1.00  0.00    -0.102 C  
HETATM   37  C   UNL     1      -7.592   5.526  68.260  1.00  0.00    -0.081 C  
ENDBRANCH  29  32
ENDBRANCH   9  26
ENDBRANCH   2   3
TORSDOF 3
ENDMDL
MODEL       63
REMARK 921   NORMALIZED FREE ENERGY PREDICTED BY IDOCK:    8.13 KCAL/MOL
REMARK 922        TOTAL FREE ENERGY PREDICTED BY IDOCK:    8.64 KCAL/MOL
REMARK 923 INTER-LIGAND FREE ENERGY PREDICTED BY IDOCK:   -4.27 KCAL/MOL
REMARK 924 INTRA-LIGAND FREE ENERGY PREDICTED BY IDOCK:   12.91 KCAL/MOL
REMARK 927      BINDING AFFINITY PREDICTED BY RF-SCORE:    0.00 PKD
ROOT
HETATM    1  C   UNL     1     -11.342   6.198  73.142  1.00  0.00    -0.061 C  
HETATM    2  C   UNL     1     -11.369   6.668  71.686  1.00  0.00    -0.319 C  
ENDROOT
BRANCH   2   3
HETATM    3  C   UNL     1     -10.132   7.377  71.151  1.00  0.00    -0.189 A  
HETATM    4  C   UNL     1     -10.303   8.603  70.486  1.00  0.00    -0.234 A  
HETATM    5  C   UNL     1      -9.224   9.380  70.056  1.00  0.00    -0.245 A  
HETATM    6  C   UNL     1      -7.908   8.937  70.247  1.00  0.00    -0.104 A  
HETATM    7  C   UNL     1      -7.743   7.691  70.876  1.00  0.00    -0.088 A  
HETATM    8  C   UNL     1      -6.677   9.770  69.832  1.00  0.00    -0.078 C  
HETATM    9  C   UNL     1      -8.813   6.901  71.363  1.00  0.00    -0.133 A  
HETATM   10  C   UNL     1      -5.850  10.122  71.088  1.00  0.00    -0.025 C  
HETATM   11  C   UNL     1      -7.123  11.052  69.168  1.00  0.00    -0.116 A  
HETATM   12  C   UNL     1      -5.812   8.959  68.843  1.00  0.00    -0.040 C  
HETATM   13  N   UNL     1      -7.005  17.338  65.934  1.00  0.00    -0.162 NA 
HETATM   14  C   UNL     1      -8.425  11.470  68.985  1.00  0.00     0.106 A  
HETATM   15  C   UNL     1      -9.394  13.630  67.917  1.00  0.00    -0.206 A  
HETATM   16  C   UNL     1      -9.554  10.684  69.416  1.00  0.00    -0.096 C  
HETATM   17  C   UNL     1      -8.397  12.731  68.344  1.00  0.00    -0.119 A  
HETATM   18  O   UNL     1     -10.716  11.052  69.276  1.00  0.00    -0.219 OA 
HETATM   19  C   UNL     1      -9.021  14.823  67.296  1.00  0.00    -0.210 A  
HETATM   20  C   UNL     1      -7.056  13.053  68.138  1.00  0.00    -0.107 A  
HETATM   21  C   UNL     1      -6.662  14.243  67.516  1.00  0.00    -0.128 A  
HETATM   22  N   UNL     1      -6.300  12.018  68.647  1.00  0.00    -0.055 NA 
HETATM   23  C   UNL     1      -7.310  16.350  66.456  1.00  0.00    -0.141 C  
HETATM   24  C   UNL     1      -7.672  15.124  67.095  1.00  0.00    -0.223 A  
HETATM   25  H   UNL     1      -5.282  11.977  68.638  1.00  0.00     0.000 HD 
BRANCH   9  26
HETATM   26  N   UNL     1      -8.523   5.763  72.100  1.00  0.00    -0.122 NA 
HETATM   27  C   UNL     1      -7.464   4.981  74.109  1.00  0.00    -0.086 C  
HETATM   28  C   UNL     1      -8.684   5.716  73.554  1.00  0.00    -0.120 C  
HETATM   29  C   UNL     1      -7.416   3.532  73.562  1.00  0.00    -0.061 C  
HETATM   30  C   UNL     1      -8.555   4.432  71.476  1.00  0.00    -0.112 C  
HETATM   31  C   UNL     1      -7.377   3.629  72.020  1.00  0.00    -0.055 C  
BRANCH  29  32
HETATM   32  N   UNL     1      -8.552   2.704  74.062  1.00  0.00    -0.071 NA 
HETATM   33  C   UNL     1      -9.715   3.510  74.509  1.00  0.00    -0.122 C  
HETATM   34  C   UNL     1     -10.421   4.237  73.353  1.00  0.00    -0.190 C  
HETATM   35  O   UNL     1     -10.859   3.316  72.344  1.00  0.00     0.078 OA 
HETATM   36  C   UNL     1      -9.785   2.492  71.875  1.00  0.00    -0.150 C  
HETATM   37  C   UNL     1      -9.082   1.770  73.036  1.00  0.00    -0.062 C  
ENDBRANCH  29  32
ENDBRANCH   9  26
ENDBRANCH   2   3
TORSDOF 3
ENDMDL
MODEL       64
REMARK 921   NORMALIZED FREE ENERGY PREDICTED BY IDOCK:    8.23 KCAL/MOL
REMARK 922        TOTAL FREE ENERGY PREDICTED BY IDOCK:    8.75 KCAL/MOL
REMARK 923 INTER-LIGAND FREE ENERGY PREDICTED BY IDOCK:   -2.23 KCAL/MOL
REMARK 924 INTRA-LIGAND FREE ENERGY PREDICTED BY IDOCK:   10.98 KCAL/MOL
REMARK 927      BINDING AFFINITY PREDICTED BY RF-SCORE:    0.00 PKD
ROOT
HETATM    1  C   UNL     1      -8.014  15.167  70.841  1.00  0.00     2.098 C  
HETATM    2  C   UNL     1      -7.225  14.556  69.681  1.00  0.00    -0.050 C  
ENDROOT
BRANCH   2   3
HETATM    3  C   UNL     1      -7.932  13.522  68.816  1.00  0.00    -0.002 A  
HETATM    4  C   UNL     1      -7.153  12.538  68.184  1.00  0.00    -0.103 A  
HETATM    5  C   UNL     1      -7.717  11.484  67.460  1.00  0.00    -0.132 A  
HETATM    6  C   UNL     1      -9.107  11.391  67.307  1.00  0.00    -0.162 A  
HETATM    7  C   UNL     1      -9.880  12.400  67.906  1.00  0.00    -0.202 A  
HETATM    8  C   UNL     1      -9.789  10.229  66.554  1.00  0.00    -0.265 C  
HETATM    9  C   UNL     1      -9.342  13.455  68.683  1.00  0.00    -0.008 A  
HETATM   10  C   UNL     1     -10.688   9.442  67.534  1.00  0.00    -0.290 C  
HETATM   11  C   UNL     1      -8.743   9.293  65.996  1.00  0.00    -0.153 A  
HETATM   12  C   UNL     1     -10.641  10.790  65.396  1.00  0.00    -0.224 C  
HETATM   13  N   UNL     1      -5.676   3.863  62.664  1.00  0.00    -0.012 NA 
HETATM   14  C   UNL     1      -7.377   9.402  66.154  1.00  0.00    -0.096 A  
HETATM   15  C   UNL     1      -5.431   7.898  65.320  1.00  0.00    -0.033 A  
HETATM   16  C   UNL     1      -6.771  10.482  66.893  1.00  0.00    -0.086 C  
HETATM   17  C   UNL     1      -6.767   8.311  65.492  1.00  0.00    -0.055 A  
HETATM   18  O   UNL     1      -5.559  10.582  67.057  1.00  0.00    -0.041 OA 
HETATM   19  C   UNL     1      -5.160   6.741  64.587  1.00  0.00    -0.026 A  
HETATM   20  C   UNL     1      -7.793   7.554  64.927  1.00  0.00    -0.128 A  
HETATM   21  C   UNL     1      -7.541   6.392  64.188  1.00  0.00    -0.099 A  
HETATM   22  N   UNL     1      -8.984   8.169  65.247  1.00  0.00    -0.396 NA 
HETATM   23  C   UNL     1      -5.905   4.818  63.277  1.00  0.00    -0.017 C  
HETATM   24  C   UNL     1      -6.203   6.000  64.025  1.00  0.00    -0.029 A  
HETATM   25  H   UNL     1      -9.908   7.839  64.968  1.00  0.00     0.000 HD 
BRANCH   9  26
HETATM   26  N   UNL     1     -10.212  14.306  69.349  1.00  0.00    -0.009 NA 
HETATM   27  C   UNL     1     -12.496  15.038  69.452  1.00  0.00    -0.076 C  
HETATM   28  C   UNL     1     -11.549  13.880  69.766  1.00  0.00    -0.270 C  
HETATM   29  C   UNL     1     -12.094  16.296  70.262  1.00  0.00     0.226 C  
HETATM   30  C   UNL     1      -9.703  15.446  70.127  1.00  0.00     0.109 C  
HETATM   31  C   UNL     1     -10.633  16.631  69.886  1.00  0.00    -0.168 C  
BRANCH  29  32
HETATM   32  N   UNL     1     -12.285  16.106  71.729  1.00  0.00    -0.457 NA 
HETATM   33  C   UNL     1     -13.706  15.928  72.119  1.00  0.00    -0.208 C  
HETATM   34  C   UNL     1     -14.307  14.606  71.612  1.00  0.00    -0.517 C  
HETATM   35  O   UNL     1     -13.556  13.476  72.078  1.00  0.00    -0.435 OA 
HETATM   36  C   UNL     1     -12.166  13.589  71.747  1.00  0.00     0.258 C  
HETATM   37  C   UNL     1     -11.573  14.913  72.256  1.00  0.00    -0.172 C  
ENDBRANCH  29  32
ENDBRANCH   9  26
ENDBRANCH   2   3
TORSDOF 3
ENDMDL
MODEL       65
REMARK 921   NORMALIZED FREE ENERGY PREDICTED BY IDOCK:    8.91 KCAL/MOL
REMARK 922        TOTAL FREE ENERGY PREDICTED BY IDOCK:    9.55 KCAL/MOL
REMARK 923 INTER-LIGAND FREE ENERGY PREDICTED BY IDOCK:    3.83 KCAL/MOL
REMARK 924 INTRA-LIGAND FREE ENERGY PREDICTED BY IDOCK:    5.72 KCAL/MOL
REMARK 927      BINDING AFFINITY PREDICTED BY RF-SCORE:    0.00 PKD
ROOT
HETATM    1  C   UNL     1     -12.050  10.649  63.690  1.00  0.00     2.947 C  
HETATM    2  C   UNL     1     -10.648  10.256  64.157  1.00  0.00     0.720 C  
ENDROOT
BRANCH   2   3
HETATM    3  C   UNL     1      -9.987  11.130  65.215  1.00  0.00    -0.311 A  
HETATM    4  C   UNL     1     -10.811  11.805  66.131  1.00  0.00    -0.336 A  
HETATM    5  C   UNL     1     -10.298  12.540  67.202  1.00  0.00    -0.230 A  
HETATM    6  C   UNL     1      -8.913  12.662  67.382  1.00  0.00    -0.190 A  
HETATM    7  C   UNL     1      -8.092  12.020  66.439  1.00  0.00     0.150 A  
HETATM    8  C   UNL     1      -8.288  13.426  68.568  1.00  0.00    -0.085 C  
HETATM    9  C   UNL     1      -8.581  11.230  65.370  1.00  0.00     0.066 A  
HETATM   10  C   UNL     1      -7.467  12.445  69.434  1.00  0.00     0.400 C  
HETATM   11  C   UNL     1      -9.377  14.033  69.421  1.00  0.00     0.566 A  
HETATM   12  C   UNL     1      -7.372  14.550  68.036  1.00  0.00    -0.143 C  
HETATM   13  N   UNL     1     -12.699  17.572  74.561  1.00  0.00     0.523 NA 
HETATM   14  C   UNL     1     -10.737  13.905  69.226  1.00  0.00    -0.117 A  
HETATM   15  C   UNL     1     -12.753  14.824  70.582  1.00  0.00    -0.415 A  
HETATM   16  C   UNL     1     -11.290  13.155  68.127  1.00  0.00    -0.292 C  
HETATM   17  C   UNL     1     -11.399  14.609  70.260  1.00  0.00    -0.253 A  
HETATM   18  O   UNL     1     -12.497  13.018  67.953  1.00  0.00     0.008 OA 
HETATM   19  C   UNL     1     -13.078  15.591  71.701  1.00  0.00    -0.561 A  
HETATM   20  C   UNL     1     -10.409  15.167  71.069  1.00  0.00     0.552 A  
HETATM   21  C   UNL     1     -10.716  15.941  72.195  1.00  0.00     1.279 A  
HETATM   22  N   UNL     1      -9.189  14.804  70.540  1.00  0.00     0.635 NA 
HETATM   23  C   UNL     1     -12.425  16.930  73.637  1.00  0.00     0.129 C  
HETATM   24  C   UNL     1     -12.072  16.146  72.495  1.00  0.00    -0.644 A  
HETATM   25  H   UNL     1      -8.282  15.068  70.923  1.00  0.00     0.000 HD 
BRANCH   9  26
HETATM   26  N   UNL     1      -7.676  10.522  64.593  1.00  0.00    -0.048 NA 
HETATM   27  C   UNL     1      -5.681   9.188  64.684  1.00  0.00    -0.063 C  
HETATM   28  C   UNL     1      -7.179   9.202  64.986  1.00  0.00    -0.096 C  
HETATM   29  C   UNL     1      -5.437   9.385  63.167  1.00  0.00    -0.079 C  
HETATM   30  C   UNL     1      -7.569  10.769  63.147  1.00  0.00     0.155 C  
HETATM   31  C   UNL     1      -6.090  10.729  62.772  1.00  0.00    -0.054 C  
BRANCH  29  32
HETATM   32  N   UNL     1      -5.943   8.236  62.362  1.00  0.00    -0.082 NA 
HETATM   33  C   UNL     1      -5.174   6.985  62.575  1.00  0.00    -0.033 C  
HETATM   34  C   UNL     1      -5.353   6.403  63.987  1.00  0.00    -0.022 C  
HETATM   35  O   UNL     1      -6.735   6.150  64.278  1.00  0.00    -0.036 OA 
HETATM   36  C   UNL     1      -7.542   7.317  64.079  1.00  0.00    -0.110 C  
HETATM   37  C   UNL     1      -7.356   7.894  62.665  1.00  0.00    -0.101 C  
ENDBRANCH  29  32
ENDBRANCH   9  26
ENDBRANCH   2   3
TORSDOF 3
ENDMDL
MODEL       66
REMARK 921   NORMALIZED FREE ENERGY PREDICTED BY IDOCK:    9.00 KCAL/MOL
REMARK 922        TOTAL FREE ENERGY PREDICTED BY IDOCK:    9.66 KCAL/MOL
REMARK 923 INTER-LIGAND FREE ENERGY PREDICTED BY IDOCK:    6.91 KCAL/MOL
REMARK 924 INTRA-LIGAND FREE ENERGY PREDICTED BY IDOCK:    2.76 KCAL/MOL
REMARK 927      BINDING AFFINITY PREDICTED BY RF-SCORE:    0.00 PKD
ROOT
HETATM    1  C   UNL     1      -9.617  13.848  63.892  1.00  0.00     3.328 C  
HETATM    2  C   UNL     1      -8.467  14.095  64.869  1.00  0.00     5.411 C  
ENDROOT
BRANCH   2   3
HETATM    3  C   UNL     1      -8.370  13.187  66.088  1.00  0.00     0.992 A  
HETATM    4  C   UNL     1      -8.344  11.797  65.883  1.00  0.00     0.282 A  
HETATM    5  C   UNL     1      -8.148  10.888  66.926  1.00  0.00    -0.137 A  
HETATM    6  C   UNL     1      -8.003  11.340  68.245  1.00  0.00    -0.134 A  
HETATM    7  C   UNL     1      -8.071  12.729  68.451  1.00  0.00    -0.129 A  
HETATM    8  C   UNL     1      -7.744  10.388  69.431  1.00  0.00    -0.158 C  
HETATM    9  C   UNL     1      -8.223  13.678  67.411  1.00  0.00    -0.179 A  
HETATM   10  C   UNL     1      -6.369  10.713  70.058  1.00  0.00    -0.126 C  
HETATM   11  C   UNL     1      -7.732   8.956  68.948  1.00  0.00    -0.095 A  
HETATM   12  C   UNL     1      -8.857  10.559  70.487  1.00  0.00     1.530 C  
HETATM   13  N   UNL     1      -7.292   1.900  68.856  1.00  0.00    -0.043 NA 
HETATM   14  C   UNL     1      -7.880   8.529  67.645  1.00  0.00    -0.103 A  
HETATM   15  C   UNL     1      -7.850   6.147  66.610  1.00  0.00    -0.104 A  
HETATM   16  C   UNL     1      -8.086   9.448  66.553  1.00  0.00    -0.111 C  
HETATM   17  C   UNL     1      -7.785   7.118  67.629  1.00  0.00    -0.112 A  
HETATM   18  O   UNL     1      -8.202   9.083  65.387  1.00  0.00    -0.116 OA 
HETATM   19  C   UNL     1      -7.718   4.798  66.940  1.00  0.00    -0.091 A  
HETATM   20  C   UNL     1      -7.587   6.709  68.948  1.00  0.00    -0.101 A  
HETATM   21  C   UNL     1      -7.454   5.361  69.298  1.00  0.00    -0.073 A  
HETATM   22  N   UNL     1      -7.558   7.843  69.732  1.00  0.00    -0.088 NA 
HETATM   23  C   UNL     1      -7.394   3.021  68.586  1.00  0.00    -0.049 C  
HETATM   24  C   UNL     1      -7.527   4.409  68.268  1.00  0.00    -0.065 A  
HETATM   25  H   UNL     1      -7.427   7.853  70.743  1.00  0.00     0.000 HD 
BRANCH   9  26
HETATM   26  N   UNL     1      -8.125  15.027  67.716  1.00  0.00    -0.139 NA 
HETATM   27  C   UNL     1      -7.241  16.586  69.315  1.00  0.00    -0.213 C  
HETATM   28  C   UNL     1      -6.875  15.631  68.179  1.00  0.00    -0.122 C  
HETATM   29  C   UNL     1      -8.177  17.705  68.794  1.00  0.00    -0.224 C  
HETATM   30  C   UNL     1      -9.049  16.004  67.119  1.00  0.00    -0.208 C  
HETATM   31  C   UNL     1      -9.425  17.015  68.199  1.00  0.00    -0.262 C  
BRANCH  29  32
HETATM   32  N   UNL     1      -7.492  18.604  67.821  1.00  0.00    -0.226 NA 
HETATM   33  C   UNL     1      -7.833  18.307  66.407  1.00  0.00    -0.260 C  
HETATM   34  C   UNL     1      -9.296  18.629  66.062  1.00  0.00    -0.013 C  
HETATM   35  O   UNL     1      -9.609  20.002  66.333  1.00  0.00    -0.394 OA 
HETATM   36  C   UNL     1      -9.290  20.363  67.684  1.00  0.00    -0.320 C  
HETATM   37  C   UNL     1      -7.826  20.037  68.021  1.00  0.00    -0.244 C  
ENDBRANCH  29  32
ENDBRANCH   9  26
ENDBRANCH   2   3
TORSDOF 3
ENDMDL
MODEL       67
REMARK 921   NORMALIZED FREE ENERGY PREDICTED BY IDOCK:    9.20 KCAL/MOL
REMARK 922        TOTAL FREE ENERGY PREDICTED BY IDOCK:    9.89 KCAL/MOL
REMARK 923 INTER-LIGAND FREE ENERGY PREDICTED BY IDOCK:    9.61 KCAL/MOL
REMARK 924 INTRA-LIGAND FREE ENERGY PREDICTED BY IDOCK:    0.28 KCAL/MOL
REMARK 927      BINDING AFFINITY PREDICTED BY RF-SCORE:    0.00 PKD
ROOT
HETATM    1  C   UNL     1      -5.125   6.381  68.077  1.00  0.00    -0.004 C  
HETATM    2  C   UNL     1      -5.517   7.857  67.992  1.00  0.00    -0.033 C  
ENDROOT
BRANCH   2   3
HETATM    3  C   UNL     1      -7.002   8.193  67.997  1.00  0.00    -0.077 A  
HETATM    4  C   UNL     1      -7.430   9.311  68.734  1.00  0.00    -0.076 A  
HETATM    5  C   UNL     1      -8.752   9.763  68.712  1.00  0.00    -0.128 A  
HETATM    6  C   UNL     1      -9.724   9.081  67.968  1.00  0.00    -0.179 A  
HETATM    7  C   UNL     1      -9.301   7.939  67.267  1.00  0.00    -0.180 A  
HETATM    8  C   UNL     1     -11.190   9.555  67.874  1.00  0.00     0.110 C  
HETATM    9  C   UNL     1      -7.961   7.481  67.232  1.00  0.00    -0.118 A  
HETATM   10  C   UNL     1     -11.520   9.907  66.406  1.00  0.00     1.620 C  
HETATM   11  C   UNL     1     -11.388  10.787  68.726  1.00  0.00    -0.288 A  
HETATM   12  C   UNL     1     -12.131   8.436  68.370  1.00  0.00     3.518 C  
HETATM   13  N   UNL     1     -14.387  16.334  71.924  1.00  0.00     0.558 NA 
HETATM   14  C   UNL     1     -10.418  11.444  69.455  1.00  0.00    -0.040 A  
HETATM   15  C   UNL     1     -10.540  13.574  70.935  1.00  0.00     3.312 A  
HETATM   16  C   UNL     1      -9.049  10.994  69.495  1.00  0.00     0.377 C  
HETATM   17  C   UNL     1     -11.020  12.557  70.088  1.00  0.00     0.851 A  
HETATM   18  O   UNL     1      -8.173  11.579  70.125  1.00  0.00     1.402 OA 
HETATM   19  C   UNL     1     -11.421  14.550  71.403  1.00  0.00     0.019 A  
HETATM   20  C   UNL     1     -12.369  12.546  69.732  1.00  0.00    -0.020 A  
HETATM   21  C   UNL     1     -13.268  13.515  70.191  1.00  0.00     0.689 A  
HETATM   22  N   UNL     1     -12.569  11.463  68.904  1.00  0.00    -0.182 NA 
HETATM   23  C   UNL     1     -13.657  15.526  71.528  1.00  0.00    -0.480 C  
HETATM   24  C   UNL     1     -12.769  14.518  71.038  1.00  0.00    -0.413 A  
HETATM   25  H   UNL     1     -13.461  11.202  68.485  1.00  0.00     0.000 HD 
BRANCH   9  26
HETATM   26  N   UNL     1      -7.634   6.432  66.385  1.00  0.00    -0.089 NA 
HETATM   27  C   UNL     1      -7.629   4.039  66.189  1.00  0.00    -0.089 C  
HETATM   28  C   UNL     1      -8.519   5.282  66.195  1.00  0.00    -0.117 C  
HETATM   29  C   UNL     1      -6.626   4.102  65.010  1.00  0.00    -0.047 C  
HETATM   30  C   UNL     1      -6.699   6.629  65.267  1.00  0.00    -0.050 C  
HETATM   31  C   UNL     1      -5.802   5.398  65.182  1.00  0.00    -0.021 C  
BRANCH  29  32
HETATM   32  N   UNL     1      -7.309   4.021  63.686  1.00  0.00    -0.050 NA 
HETATM   33  C   UNL     1      -6.366   3.974  62.541  1.00  0.00    -0.022 C  
HETATM   34  C   UNL     1      -5.552   2.670  62.487  1.00  0.00    -0.008 C  
HETATM   35  O   UNL     1      -6.408   1.521  62.427  1.00  0.00    -0.008 OA 
HETATM   36  C   UNL     1      -7.358   1.509  63.500  1.00  0.00    -0.044 C  
HETATM   37  C   UNL     1      -8.166   2.816  63.549  1.00  0.00    -0.085 C  
ENDBRANCH  29  32
ENDBRANCH   9  26
ENDBRANCH   2   3
TORSDOF 3
ENDMDL
MODEL       68
REMARK 921   NORMALIZED FREE ENERGY PREDICTED BY IDOCK:   10.33 KCAL/MOL
REMARK 922        TOTAL FREE ENERGY PREDICTED BY IDOCK:   11.23 KCAL/MOL
REMARK 923 INTER-LIGAND FREE ENERGY PREDICTED BY IDOCK:    8.98 KCAL/MOL
REMARK 924 INTRA-LIGAND FREE ENERGY PREDICTED BY IDOCK:    2.24 KCAL/MOL
REMARK 927      BINDING AFFINITY PREDICTED BY RF-SCORE:    0.00 PKD
ROOT
HETATM    1  C   UNL     1      -6.220  14.096  65.979  1.00  0.00     6.659 C  
HETATM    2  C   UNL     1      -7.734  14.020  65.775  1.00  0.00     4.444 C  
ENDROOT
BRANCH   2   3
HETATM    3  C   UNL     1      -8.516  13.050  66.651  1.00  0.00     0.091 A  
HETATM    4  C   UNL     1      -8.405  11.675  66.385  1.00  0.00    -0.084 A  
HETATM    5  C   UNL     1      -8.995  10.703  67.198  1.00  0.00    -0.143 A  
HETATM    6  C   UNL     1      -9.763  11.077  68.309  1.00  0.00    -0.181 A  
HETATM    7  C   UNL     1      -9.905  12.455  68.547  1.00  0.00    -0.156 A  
HETATM    8  C   UNL     1     -10.405  10.050  69.265  1.00  0.00    -0.237 C  
HETATM    9  C   UNL     1      -9.284  13.463  67.770  1.00  0.00    -0.211 A  
HETATM   10  C   UNL     1      -9.804  10.222  70.679  1.00  0.00     0.579 C  
HETATM   11  C   UNL     1     -10.118   8.648  68.782  1.00  0.00    -0.196 A  
HETATM   12  C   UNL     1     -11.932  10.270  69.314  1.00  0.00    -0.005 C  
HETATM   13  N   UNL     1      -9.968   1.593  68.338  1.00  0.00     0.197 NA 
HETATM   14  C   UNL     1      -9.361   8.299  67.683  1.00  0.00    -0.158 A  
HETATM   15  C   UNL     1      -8.721   5.975  66.715  1.00  0.00    -0.119 A  
HETATM   16  C   UNL     1      -8.746   9.282  66.828  1.00  0.00    -0.127 C  
HETATM   17  C   UNL     1      -9.328   6.887  67.601  1.00  0.00    -0.124 A  
HETATM   18  O   UNL     1      -8.056   8.985  65.857  1.00  0.00    -0.104 OA 
HETATM   19  C   UNL     1      -8.891   4.605  66.917  1.00  0.00    -0.111 A  
HETATM   20  C   UNL     1     -10.086   6.400  68.666  1.00  0.00    -0.158 A  
HETATM   21  C   UNL     1     -10.270   5.030  68.884  1.00  0.00    -0.184 A  
HETATM   22  N   UNL     1     -10.556   7.488  69.369  1.00  0.00    -0.229 NA 
HETATM   23  C   UNL     1      -9.823   2.731  68.177  1.00  0.00     0.404 C  
HETATM   24  C   UNL     1      -9.660   4.138  67.987  1.00  0.00    -0.200 A  
HETATM   25  H   UNL     1     -11.142   7.438  70.203  1.00  0.00     0.000 HD 
BRANCH   9  26
HETATM   26  N   UNL     1      -9.373  14.782  68.188  1.00  0.00    -0.192 NA 
HETATM   27  C   UNL     1      -8.607  17.010  67.725  1.00  0.00    -0.213 C  
HETATM   28  C   UNL     1      -9.527  15.889  67.243  1.00  0.00    -0.212 C  
HETATM   29  C   UNL     1      -9.038  17.489  69.134  1.00  0.00     0.069 C  
HETATM   30  C   UNL     1      -9.842  15.113  69.542  1.00  0.00    -0.184 C  
HETATM   31  C   UNL     1      -8.984  16.260  70.069  1.00  0.00     0.975 C  
BRANCH  29  32
HETATM   32  N   UNL     1     -10.376  18.148  69.120  1.00  0.00    -0.178 NA 
HETATM   33  C   UNL     1     -10.312  19.615  69.332  1.00  0.00     0.122 C  
HETATM   34  C   UNL     1      -9.649  20.363  68.163  1.00  0.00    -0.109 C  
HETATM   35  O   UNL     1     -10.327  20.106  66.926  1.00  0.00    -0.439 OA 
HETATM   36  C   UNL     1     -10.438  18.701  66.662  1.00  0.00    -0.413 C  
HETATM   37  C   UNL     1     -11.100  17.961  67.836  1.00  0.00     0.107 C  
ENDBRANCH  29  32
ENDBRANCH   9  26
ENDBRANCH   2   3
TORSDOF 3
ENDMDL
MODEL       69
REMARK 921   NORMALIZED FREE ENERGY PREDICTED BY IDOCK:   10.41 KCAL/MOL
REMARK 922        TOTAL FREE ENERGY PREDICTED BY IDOCK:   11.31 KCAL/MOL
REMARK 923 INTER-LIGAND FREE ENERGY PREDICTED BY IDOCK:    0.07 KCAL/MOL
REMARK 924 INTRA-LIGAND FREE ENERGY PREDICTED BY IDOCK:   11.24 KCAL/MOL
REMARK 927      BINDING AFFINITY PREDICTED BY RF-SCORE:    0.00 PKD
ROOT
HETATM    1  C   UNL     1      -6.139  12.637  66.272  1.00  0.00     2.267 C  
HETATM    2  C   UNL     1      -5.929  11.574  67.351  1.00  0.00    -0.082 C  
ENDROOT
BRANCH   2   3
HETATM    3  C   UNL     1      -7.168  10.987  68.014  1.00  0.00    -0.086 A  
HETATM    4  C   UNL     1      -7.082   9.695  68.560  1.00  0.00    -0.069 A  
HETATM    5  C   UNL     1      -8.129   9.114  69.282  1.00  0.00    -0.102 A  
HETATM    6  C   UNL     1      -9.337   9.802  69.459  1.00  0.00    -0.226 A  
HETATM    7  C   UNL     1      -9.433  11.077  68.875  1.00  0.00    -0.166 A  
HETATM    8  C   UNL     1     -10.512   9.229  70.279  1.00  0.00    -0.271 C  
HETATM    9  C   UNL     1      -8.376  11.711  68.177  1.00  0.00    -0.154 A  
HETATM   10  C   UNL     1     -10.783  10.147  71.493  1.00  0.00     0.879 C  
HETATM   11  C   UNL     1     -10.164   7.848  70.782  1.00  0.00    -0.194 A  
HETATM   12  C   UNL     1     -11.773   9.146  69.393  1.00  0.00     0.613 C  
HETATM   13  N   UNL     1     -10.581   1.564  73.996  1.00  0.00    -0.101 NA 
HETATM   14  C   UNL     1      -8.968   7.185  70.595  1.00  0.00    -0.154 A  
HETATM   15  C   UNL     1      -8.162   4.851  71.400  1.00  0.00    -0.112 A  
HETATM   16  C   UNL     1      -7.877   7.761  69.852  1.00  0.00    -0.105 C  
HETATM   17  C   UNL     1      -9.053   5.931  71.245  1.00  0.00    -0.148 A  
HETATM   18  O   UNL     1      -6.802   7.190  69.693  1.00  0.00    -0.048 OA 
HETATM   19  C   UNL     1      -8.568   3.725  72.118  1.00  0.00    -0.107 A  
HETATM   20  C   UNL     1     -10.324   5.854  71.815  1.00  0.00    -0.216 A  
HETATM   21  C   UNL     1     -10.750   4.733  72.537  1.00  0.00    -0.240 A  
HETATM   22  N   UNL     1     -10.980   7.029  71.521  1.00  0.00    -0.232 NA 
HETATM   23  C   UNL     1     -10.246   2.503  73.407  1.00  0.00    -0.121 C  
HETATM   24  C   UNL     1      -9.848   3.665  72.676  1.00  0.00    -0.213 A  
HETATM   25  H   UNL     1     -11.931   7.257  71.809  1.00  0.00     0.000 HD 
BRANCH   9  26
HETATM   26  N   UNL     1      -8.535  13.029  67.776  1.00  0.00    -0.174 NA 
HETATM   27  C   UNL     1      -9.338  15.179  68.482  1.00  0.00    -0.192 C  
HETATM   28  C   UNL     1      -8.218  14.153  68.658  1.00  0.00    -0.116 C  
HETATM   29  C   UNL     1      -9.379  15.684  67.019  1.00  0.00    -0.226 C  
HETATM   30  C   UNL     1      -8.510  13.391  66.351  1.00  0.00     0.496 C  
HETATM   31  C   UNL     1      -9.586  14.447  66.116  1.00  0.00    -0.309 C  
BRANCH  29  32
HETATM   32  N   UNL     1      -8.161  16.466  66.659  1.00  0.00    -0.255 NA 
HETATM   33  C   UNL     1      -7.782  17.470  67.684  1.00  0.00    -0.200 C  
HETATM   34  C   UNL     1      -7.296  16.834  68.997  1.00  0.00    -0.231 C  
HETATM   35  O   UNL     1      -6.181  15.960  68.774  1.00  0.00    -0.106 OA 
HETATM   36  C   UNL     1      -6.472  14.969  67.780  1.00  0.00    -0.163 C  
HETATM   37  C   UNL     1      -6.959  15.613  66.472  1.00  0.00     0.936 C  
ENDBRANCH  29  32
ENDBRANCH   9  26
ENDBRANCH   2   3
TORSDOF 3
ENDMDL
MODEL       70
REMARK 921   NORMALIZED FREE ENERGY PREDICTED BY IDOCK:   10.61 KCAL/MOL
REMARK 922        TOTAL FREE ENERGY PREDICTED BY IDOCK:   11.55 KCAL/MOL
REMARK 923 INTER-LIGAND FREE ENERGY PREDICTED BY IDOCK:    5.21 KCAL/MOL
REMARK 924 INTRA-LIGAND FREE ENERGY PREDICTED BY IDOCK:    6.35 KCAL/MOL
REMARK 927      BINDING AFFINITY PREDICTED BY RF-SCORE:    0.00 PKD
ROOT
HETATM    1  C   UNL     1     -13.375  13.309  69.557  1.00  0.00     2.299 C  
HETATM    2  C   UNL     1     -13.065  12.481  68.310  1.00  0.00     3.483 C  
ENDROOT
BRANCH   2   3
HETATM    3  C   UNL     1     -11.857  11.555  68.361  1.00  0.00    -0.353 A  
HETATM    4  C   UNL     1     -11.786  10.609  69.397  1.00  0.00    -0.344 A  
HETATM    5  C   UNL     1     -10.775   9.646  69.467  1.00  0.00    -0.252 A  
HETATM    6  C   UNL     1      -9.756   9.614  68.505  1.00  0.00    -0.161 A  
HETATM    7  C   UNL     1      -9.809  10.589  67.493  1.00  0.00    -0.196 A  
HETATM    8  C   UNL     1      -8.638   8.551  68.506  1.00  0.00    -0.138 C  
HETATM    9  C   UNL     1     -10.843  11.548  67.369  1.00  0.00    -0.246 A  
HETATM   10  C   UNL     1      -8.733   7.707  67.216  1.00  0.00    -0.124 C  
HETATM   11  C   UNL     1      -8.799   7.637  69.699  1.00  0.00    -0.140 A  
HETATM   12  C   UNL     1      -7.261   9.246  68.580  1.00  0.00    -0.072 C  
HETATM   13  N   UNL     1      -7.733   2.443  74.375  1.00  0.00    -0.045 NA 
HETATM   14  C   UNL     1      -9.808   7.686  70.638  1.00  0.00    -0.182 A  
HETATM   15  C   UNL     1     -10.284   6.202  72.716  1.00  0.00    -0.203 A  
HETATM   16  C   UNL     1     -10.858   8.671  70.590  1.00  0.00    -0.229 C  
HETATM   17  C   UNL     1      -9.595   6.641  71.569  1.00  0.00    -0.169 A  
HETATM   18  O   UNL     1     -11.771   8.715  71.409  1.00  0.00    -0.271 OA 
HETATM   19  C   UNL     1      -9.794   5.110  73.434  1.00  0.00    -0.170 A  
HETATM   20  C   UNL     1      -8.436   5.974  71.172  1.00  0.00    -0.125 A  
HETATM   21  C   UNL     1      -7.928   4.879  71.880  1.00  0.00    -0.109 A  
HETATM   22  N   UNL     1      -7.970   6.597  70.034  1.00  0.00    -0.114 NA 
HETATM   23  C   UNL     1      -8.140   3.344  73.772  1.00  0.00    -0.074 C  
HETATM   24  C   UNL     1      -8.627   4.459  73.023  1.00  0.00    -0.101 A  
HETATM   25  H   UNL     1      -7.134   6.324  69.518  1.00  0.00     0.000 HD 
BRANCH   9  26
HETATM   26  N   UNL     1     -10.870  12.362  66.246  1.00  0.00    -0.258 NA 
HETATM   27  C   UNL     1     -11.054  12.343  63.852  1.00  0.00    -0.475 C  
HETATM   28  C   UNL     1     -11.826  12.152  65.157  1.00  0.00    -0.298 C  
HETATM   29  C   UNL     1     -10.498  13.785  63.762  1.00  0.00     1.146 C  
HETATM   30  C   UNL     1     -10.350  13.737  66.298  1.00  0.00    -0.294 C  
HETATM   31  C   UNL     1      -9.597  14.004  64.998  1.00  0.00     0.344 C  
BRANCH  29  32
HETATM   32  N   UNL     1     -11.584  14.801  63.649  1.00  0.00     0.341 NA 
HETATM   33  C   UNL     1     -12.547  14.759  64.778  1.00  0.00    -0.095 C  
HETATM   34  C   UNL     1     -11.926  15.199  66.114  1.00  0.00     0.194 C  
HETATM   35  O   UNL     1     -11.377  16.521  66.026  1.00  0.00     0.266 OA 
HETATM   36  C   UNL     1     -10.444  16.638  64.944  1.00  0.00     0.196 C  
HETATM   37  C   UNL     1     -11.072  16.195  63.612  1.00  0.00     2.180 C  
ENDBRANCH  29  32
ENDBRANCH   9  26
ENDBRANCH   2   3
TORSDOF 3
ENDMDL
MODEL       71
REMARK 921   NORMALIZED FREE ENERGY PREDICTED BY IDOCK:   12.68 KCAL/MOL
REMARK 922        TOTAL FREE ENERGY PREDICTED BY IDOCK:   13.98 KCAL/MOL
REMARK 923 INTER-LIGAND FREE ENERGY PREDICTED BY IDOCK:    7.33 KCAL/MOL
REMARK 924 INTRA-LIGAND FREE ENERGY PREDICTED BY IDOCK:    6.65 KCAL/MOL
REMARK 927      BINDING AFFINITY PREDICTED BY RF-SCORE:    0.00 PKD
ROOT
HETATM    1  C   UNL     1     -11.668  13.125  68.729  1.00  0.00    -0.363 C  
HETATM    2  C   UNL     1     -10.343  12.372  68.864  1.00  0.00    -0.074 C  
ENDROOT
BRANCH   2   3
HETATM    3  C   UNL     1      -9.709  11.829  67.591  1.00  0.00    -0.186 A  
HETATM    4  C   UNL     1      -9.455  10.449  67.509  1.00  0.00    -0.167 A  
HETATM    5  C   UNL     1      -8.978   9.842  66.344  1.00  0.00    -0.176 A  
HETATM    6  C   UNL     1      -8.696  10.610  65.206  1.00  0.00    -0.198 A  
HETATM    7  C   UNL     1      -8.911  11.995  65.307  1.00  0.00     0.390 A  
HETATM    8  C   UNL     1      -8.206   9.991  63.880  1.00  0.00    -0.159 C  
HETATM    9  C   UNL     1      -9.436  12.635  66.456  1.00  0.00    -0.247 A  
HETATM   10  C   UNL     1      -9.249  10.261  62.773  1.00  0.00    -0.316 C  
HETATM   11  C   UNL     1      -8.041   8.497  64.039  1.00  0.00    -0.156 A  
HETATM   12  C   UNL     1      -6.849  10.614  63.487  1.00  0.00     0.177 C  
HETATM   13  N   UNL     1      -6.650   1.705  62.653  1.00  0.00    -0.009 NA 
HETATM   14  C   UNL     1      -8.321   7.758  65.170  1.00  0.00    -0.113 A  
HETATM   15  C   UNL     1      -8.147   5.208  65.633  1.00  0.00    -0.115 A  
HETATM   16  C   UNL     1      -8.811   8.362  66.383  1.00  0.00    -0.153 C  
HETATM   17  C   UNL     1      -8.048   6.399  64.887  1.00  0.00    -0.120 A  
HETATM   18  O   UNL     1      -9.081   7.714  67.390  1.00  0.00    -0.125 OA 
HETATM   19  C   UNL     1      -7.785   3.997  65.043  1.00  0.00    -0.082 A  
HETATM   20  C   UNL     1      -7.590   6.342  63.570  1.00  0.00    -0.087 A  
HETATM   21  C   UNL     1      -7.221   5.137  62.962  1.00  0.00    -0.043 A  
HETATM   22  N   UNL     1      -7.595   7.628  63.076  1.00  0.00    -0.112 NA 
HETATM   23  C   UNL     1      -6.956   2.712  63.137  1.00  0.00    -0.036 C  
HETATM   24  C   UNL     1      -7.323   3.962  63.724  1.00  0.00    -0.051 A  
HETATM   25  H   UNL     1      -7.309   7.895  62.134  1.00  0.00     0.000 HD 
BRANCH   9  26
HETATM   26  N   UNL     1      -9.747  13.984  66.387  1.00  0.00    -0.288 NA 
HETATM   27  C   UNL     1      -9.163  16.147  67.253  1.00  0.00    -0.218 C  
HETATM   28  C   UNL     1      -8.713  15.018  66.326  1.00  0.00    -0.028 C  
HETATM   29  C   UNL     1     -10.503  16.746  66.758  1.00  0.00    -0.258 C  
HETATM   30  C   UNL     1     -11.042  14.434  65.852  1.00  0.00    -0.319 C  
HETATM   31  C   UNL     1     -11.530  15.593  66.716  1.00  0.00     0.113 C  
BRANCH  29  32
HETATM   32  N   UNL     1     -10.358  17.441  65.446  1.00  0.00    -0.632 NA 
HETATM   33  C   UNL     1      -9.870  16.552  64.361  1.00  0.00     3.341 C  
HETATM   34  C   UNL     1     -10.890  15.472  63.965  1.00  0.00     1.073 C  
HETATM   35  O   UNL     1     -12.137  16.053  63.559  1.00  0.00    -0.501 OA 
HETATM   36  C   UNL     1     -12.662  16.937  64.558  1.00  0.00     4.745 C  
HETATM   37  C   UNL     1     -11.636  18.013  64.950  1.00  0.00     2.823 C  
ENDBRANCH  29  32
ENDBRANCH   9  26
ENDBRANCH   2   3
TORSDOF 3
ENDMDL
MODEL       72
REMARK 921   NORMALIZED FREE ENERGY PREDICTED BY IDOCK:   14.12 KCAL/MOL
REMARK 922        TOTAL FREE ENERGY PREDICTED BY IDOCK:   15.67 KCAL/MOL
REMARK 923 INTER-LIGAND FREE ENERGY PREDICTED BY IDOCK:    4.88 KCAL/MOL
REMARK 924 INTRA-LIGAND FREE ENERGY PREDICTED BY IDOCK:   10.79 KCAL/MOL
REMARK 927      BINDING AFFINITY PREDICTED BY RF-SCORE:    0.00 PKD
ROOT
HETATM    1  C   UNL     1      -9.322   4.127  67.861  1.00  0.00    -0.210 C  
HETATM    2  C   UNL     1      -9.715   5.245  68.828  1.00  0.00    -0.203 C  
ENDROOT
BRANCH   2   3
HETATM    3  C   UNL     1      -9.720   6.671  68.293  1.00  0.00    -0.132 A  
HETATM    4  C   UNL     1     -10.142   7.702  69.149  1.00  0.00    -0.194 A  
HETATM    5  C   UNL     1     -10.079   9.051  68.788  1.00  0.00    -0.214 A  
HETATM    6  C   UNL     1      -9.616   9.426  67.519  1.00  0.00    -0.174 A  
HETATM    7  C   UNL     1      -9.234   8.388  66.651  1.00  0.00    -0.226 A  
HETATM    8  C   UNL     1      -9.485  10.899  67.079  1.00  0.00    -0.184 C  
HETATM    9  C   UNL     1      -9.243   7.016  67.002  1.00  0.00    -0.147 A  
HETATM   10  C   UNL     1      -8.001  11.217  66.790  1.00  0.00    -0.156 C  
HETATM   11  C   UNL     1      -9.972  11.811  68.180  1.00  0.00    -0.194 A  
HETATM   12  C   UNL     1     -10.330  11.138  65.809  1.00  0.00    -0.316 C  
HETATM   13  N   UNL     1     -11.686  17.618  71.830  1.00  0.00     2.264 NA 
HETATM   14  C   UNL     1     -10.428  11.423  69.423  1.00  0.00    -0.040 A  
HETATM   15  C   UNL     1     -11.264  12.815  71.450  1.00  0.00     3.535 A  
HETATM   16  C   UNL     1     -10.506  10.038  69.817  1.00  0.00    -0.256 C  
HETATM   17  C   UNL     1     -10.764  12.587  70.153  1.00  0.00     1.380 A  
HETATM   18  O   UNL     1     -10.893   9.681  70.925  1.00  0.00    -0.295 OA 
HETATM   19  C   UNL     1     -11.496  14.124  71.875  1.00  0.00     1.082 A  
HETATM   20  C   UNL     1     -10.509  13.677  69.320  1.00  0.00     0.101 A  
HETATM   21  C   UNL     1     -10.738  14.996  69.728  1.00  0.00    -0.260 A  
HETATM   22  N   UNL     1     -10.029  13.180  68.127  1.00  0.00    -0.230 NA 
HETATM   23  C   UNL     1     -11.485  16.534  71.476  1.00  0.00    -0.051 C  
HETATM   24  C   UNL     1     -11.240  15.201  71.023  1.00  0.00    -0.328 A  
HETATM   25  H   UNL     1      -9.756  13.747  67.324  1.00  0.00     0.000 HD 
BRANCH   9  26
HETATM   26  N   UNL     1      -8.702   6.095  66.118  1.00  0.00    -0.143 NA 
HETATM   27  C   UNL     1      -9.203   4.131  64.831  1.00  0.00    -0.154 C  
HETATM   28  C   UNL     1      -9.428   5.639  64.931  1.00  0.00     0.541 C  
HETATM   29  C   UNL     1      -7.696   3.823  64.648  1.00  0.00    -0.081 C  
HETATM   30  C   UNL     1      -7.246   5.926  66.002  1.00  0.00    -0.075 C  
HETATM   31  C   UNL     1      -6.956   4.434  65.860  1.00  0.00    -0.059 C  
BRANCH  29  32
HETATM   32  N   UNL     1      -7.175   4.317  63.341  1.00  0.00    -0.049 NA 
HETATM   33  C   UNL     1      -8.246   4.656  62.371  1.00  0.00    -0.076 C  
HETATM   34  C   UNL     1      -9.073   5.881  62.794  1.00  0.00     0.578 C  
HETATM   35  O   UNL     1      -8.242   7.035  62.984  1.00  0.00    -0.061 OA 
HETATM   36  C   UNL     1      -7.173   6.774  63.903  1.00  0.00    -0.068 C  
HETATM   37  C   UNL     1      -6.352   5.547  63.474  1.00  0.00    -0.022 C  
ENDBRANCH  29  32
ENDBRANCH   9  26
ENDBRANCH   2   3
TORSDOF 3
ENDMDL
MODEL       73
REMARK 921   NORMALIZED FREE ENERGY PREDICTED BY IDOCK:   15.15 KCAL/MOL
REMARK 922        TOTAL FREE ENERGY PREDICTED BY IDOCK:   16.88 KCAL/MOL
REMARK 923 INTER-LIGAND FREE ENERGY PREDICTED BY IDOCK:    1.96 KCAL/MOL
REMARK 924 INTRA-LIGAND FREE ENERGY PREDICTED BY IDOCK:   14.92 KCAL/MOL
REMARK 927      BINDING AFFINITY PREDICTED BY RF-SCORE:    0.00 PKD
ROOT
HETATM    1  C   UNL     1     -12.026   6.319  73.000  1.00  0.00     0.455 C  
HETATM    2  C   UNL     1     -12.526   7.402  72.043  1.00  0.00    -0.280 C  
ENDROOT
BRANCH   2   3
HETATM    3  C   UNL     1     -11.497   8.086  71.153  1.00  0.00    -0.302 A  
HETATM    4  C   UNL     1     -11.577   9.480  70.992  1.00  0.00    -0.419 A  
HETATM    5  C   UNL     1     -10.617  10.210  70.286  1.00  0.00    -0.324 A  
HETATM    6  C   UNL     1      -9.539   9.558  69.671  1.00  0.00    -0.216 A  
HETATM    7  C   UNL     1      -9.486   8.160  69.799  1.00  0.00    -0.159 A  
HETATM    8  C   UNL     1      -8.428  10.314  68.913  1.00  0.00    -0.138 C  
HETATM    9  C   UNL     1     -10.417   7.396  70.545  1.00  0.00    -0.218 A  
HETATM   10  C   UNL     1      -7.075  10.082  69.623  1.00  0.00    -0.104 C  
HETATM   11  C   UNL     1      -8.725  11.796  68.907  1.00  0.00     0.131 A  
HETATM   12  C   UNL     1      -8.352   9.804  67.458  1.00  0.00    -0.114 C  
HETATM   13  N   UNL     1      -8.207  18.748  67.732  1.00  0.00    -0.260 NA 
HETATM   14  C   UNL     1      -9.794  12.419  69.516  1.00  0.00     1.129 A  
HETATM   15  C   UNL     1     -10.460  14.926  69.657  1.00  0.00    -0.182 A  
HETATM   16  C   UNL     1     -10.798  11.687  70.247  1.00  0.00     0.949 C  
HETATM   17  C   UNL     1      -9.684  13.811  69.285  1.00  0.00     0.415 A  
HETATM   18  O   UNL     1     -11.745  12.231  70.808  1.00  0.00     0.005 OA 
HETATM   19  C   UNL     1     -10.065  16.202  69.251  1.00  0.00    -0.260 A  
HETATM   20  C   UNL     1      -8.535  14.005  68.518  1.00  0.00    -0.143 A  
HETATM   21  C   UNL     1      -8.124  15.276  68.100  1.00  0.00    -0.136 A  
HETATM   22  N   UNL     1      -7.969  12.767  68.301  1.00  0.00    -0.146 NA 
HETATM   23  C   UNL     1      -8.527  17.689  68.072  1.00  0.00    -0.244 C  
HETATM   24  C   UNL     1      -8.914  16.374  68.479  1.00  0.00    -0.224 A  
HETATM   25  H   UNL     1      -7.115  12.598  67.770  1.00  0.00     0.000 HD 
BRANCH   9  26
HETATM   26  N   UNL     1     -10.179   6.042  70.726  1.00  0.00    -0.196 NA 
HETATM   27  C   UNL     1      -8.723   4.237  70.103  1.00  0.00    -0.115 C  
HETATM   28  C   UNL     1      -8.832   5.511  70.940  1.00  0.00    -0.139 C  
HETATM   29  C   UNL     1      -9.758   3.189  70.582  1.00  0.00    -0.067 C  
HETATM   30  C   UNL     1     -11.235   5.152  71.233  1.00  0.00     0.379 C  
HETATM   31  C   UNL     1     -11.155   3.839  70.459  1.00  0.00     3.646 C  
BRANCH  29  32
HETATM   32  N   UNL     1      -9.467   2.699  71.961  1.00  0.00    -0.109 NA 
HETATM   33  C   UNL     1      -8.413   3.483  72.652  1.00  0.00    -0.085 C  
HETATM   34  C   UNL     1      -8.850   4.919  72.981  1.00  0.00    -0.113 C  
HETATM   35  O   UNL     1     -10.038   4.934  73.786  1.00  0.00    -0.154 OA 
HETATM   36  C   UNL     1     -11.098   4.181  73.182  1.00  0.00    -0.173 C  
HETATM   37  C   UNL     1     -10.652   2.747  72.855  1.00  0.00    -0.129 C  
ENDBRANCH  29  32
ENDBRANCH   9  26
ENDBRANCH   2   3
TORSDOF 3
ENDMDL
MODEL       74
REMARK 921   NORMALIZED FREE ENERGY PREDICTED BY IDOCK:   15.32 KCAL/MOL
REMARK 922        TOTAL FREE ENERGY PREDICTED BY IDOCK:   17.08 KCAL/MOL
REMARK 923 INTER-LIGAND FREE ENERGY PREDICTED BY IDOCK:   15.57 KCAL/MOL
REMARK 924 INTRA-LIGAND FREE ENERGY PREDICTED BY IDOCK:    1.51 KCAL/MOL
REMARK 927      BINDING AFFINITY PREDICTED BY RF-SCORE:    0.00 PKD
ROOT
HETATM    1  C   UNL     1      -6.346   9.263  64.316  1.00  0.00    -0.085 C  
HETATM    2  C   UNL     1      -6.092  10.755  64.542  1.00  0.00     0.163 C  
ENDROOT
BRANCH   2   3
HETATM    3  C   UNL     1      -6.513  11.346  65.881  1.00  0.00     0.314 A  
HETATM    4  C   UNL     1      -6.048  12.628  66.218  1.00  0.00     2.267 A  
HETATM    5  C   UNL     1      -6.465  13.299  67.371  1.00  0.00    -0.047 A  
HETATM    6  C   UNL     1      -7.353  12.688  68.267  1.00  0.00    -0.116 A  
HETATM    7  C   UNL     1      -7.783  11.389  67.946  1.00  0.00    -0.114 A  
HETATM    8  C   UNL     1      -7.880  13.394  69.534  1.00  0.00     0.786 C  
HETATM    9  C   UNL     1      -7.416  10.701  66.765  1.00  0.00    -0.120 A  
HETATM   10  C   UNL     1      -9.414  13.553  69.431  1.00  0.00     0.856 C  
HETATM   11  C   UNL     1      -7.256  14.765  69.656  1.00  0.00    -0.136 A  
HETATM   12  C   UNL     1      -7.521  12.558  70.781  1.00  0.00     4.557 C  
HETATM   13  N   UNL     1      -5.611  21.208  72.058  1.00  0.00    -0.127 NA 
HETATM   14  C   UNL     1      -6.380  15.349  68.765  1.00  0.00    -0.101 A  
HETATM   15  C   UNL     1      -5.238  17.682  68.769  1.00  0.00    -0.155 A  
HETATM   16  C   UNL     1      -5.933  14.676  67.571  1.00  0.00     0.092 C  
HETATM   17  C   UNL     1      -6.058  16.641  69.245  1.00  0.00    -0.182 A  
HETATM   18  O   UNL     1      -5.168  15.191  66.761  1.00  0.00     0.488 OA 
HETATM   19  C   UNL     1      -5.132  18.862  69.505  1.00  0.00    -0.183 A  
HETATM   20  C   UNL     1      -6.750  16.812  70.444  1.00  0.00     1.076 A  
HETATM   21  C   UNL     1      -6.655  17.988  71.197  1.00  0.00     2.548 A  
HETATM   22  N   UNL     1      -7.471  15.660  70.673  1.00  0.00     1.092 NA 
HETATM   23  C   UNL     1      -5.707  20.229  71.447  1.00  0.00    -0.313 C  
HETATM   24  C   UNL     1      -5.829  19.012  70.706  1.00  0.00    -0.070 A  
HETATM   25  H   UNL     1      -8.075  15.497  71.479  1.00  0.00     0.000 HD 
BRANCH   9  26
HETATM   26  N   UNL     1      -8.021   9.486  66.482  1.00  0.00    -0.111 NA 
HETATM   27  C   UNL     1     -10.083   8.472  65.784  1.00  0.00     0.511 C  
HETATM   28  C   UNL     1      -8.888   9.301  65.317  1.00  0.00    -0.198 C  
HETATM   29  C   UNL     1      -9.611   7.083  66.284  1.00  0.00    -0.031 C  
HETATM   30  C   UNL     1      -7.448   8.225  66.977  1.00  0.00    -0.088 C  
HETATM   31  C   UNL     1      -8.600   7.330  67.427  1.00  0.00    -0.121 C  
BRANCH  29  32
HETATM   32  N   UNL     1      -9.047   6.251  65.182  1.00  0.00     0.231 NA 
HETATM   33  C   UNL     1      -8.397   5.005  65.660  1.00  0.00    -0.120 C  
HETATM   34  C   UNL     1      -9.395   3.997  66.253  1.00  0.00    -0.174 C  
HETATM   35  O   UNL     1     -10.416   3.651  65.306  1.00  0.00     0.053 OA 
HETATM   36  C   UNL     1     -11.078   4.813  64.791  1.00  0.00     0.491 C  
HETATM   37  C   UNL     1     -10.074   5.816  64.201  1.00  0.00     2.641 C  
ENDBRANCH  29  32
ENDBRANCH   9  26
ENDBRANCH   2   3
TORSDOF 3
ENDMDL
MODEL       75
REMARK 921   NORMALIZED FREE ENERGY PREDICTED BY IDOCK:   16.07 KCAL/MOL
REMARK 922        TOTAL FREE ENERGY PREDICTED BY IDOCK:   17.97 KCAL/MOL
REMARK 923 INTER-LIGAND FREE ENERGY PREDICTED BY IDOCK:   18.96 KCAL/MOL
REMARK 924 INTRA-LIGAND FREE ENERGY PREDICTED BY IDOCK:   -1.00 KCAL/MOL
REMARK 927      BINDING AFFINITY PREDICTED BY RF-SCORE:    0.00 PKD
ROOT
HETATM    1  C   UNL     1     -10.535  10.642  71.824  1.00  0.00     4.278 C  
HETATM    2  C   UNL     1      -9.031  10.615  71.547  1.00  0.00     6.122 C  
ENDROOT
BRANCH   2   3
HETATM    3  C   UNL     1      -8.581  10.270  70.134  1.00  0.00     0.241 A  
HETATM    4  C   UNL     1      -8.804   8.965  69.663  1.00  0.00    -0.142 A  
HETATM    5  C   UNL     1      -8.527   8.583  68.348  1.00  0.00    -0.138 A  
HETATM    6  C   UNL     1      -7.971   9.499  67.444  1.00  0.00    -0.106 A  
HETATM    7  C   UNL     1      -7.711  10.791  67.931  1.00  0.00    -0.100 A  
HETATM    8  C   UNL     1      -7.681   9.147  65.970  1.00  0.00    -0.095 C  
HETATM    9  C   UNL     1      -8.022  11.222  69.243  1.00  0.00     0.086 A  
HETATM   10  C   UNL     1      -8.542  10.043  65.051  1.00  0.00    -0.173 C  
HETATM   11  C   UNL     1      -8.033   7.702  65.707  1.00  0.00    -0.116 A  
HETATM   12  C   UNL     1      -6.184   9.370  65.668  1.00  0.00    -0.064 C  
HETATM   13  N   UNL     1      -8.970   1.502  62.440  1.00  0.00    -0.071 NA 
HETATM   14  C   UNL     1      -8.577   6.813  66.611  1.00  0.00    -0.123 A  
HETATM   15  C   UNL     1      -9.284   4.327  66.353  1.00  0.00    -0.150 A  
HETATM   16  C   UNL     1      -8.868   7.182  67.973  1.00  0.00    -0.129 C  
HETATM   17  C   UNL     1      -8.769   5.575  65.952  1.00  0.00    -0.145 A  
HETATM   18  O   UNL     1      -9.368   6.407  68.783  1.00  0.00    -0.126 OA 
HETATM   19  C   UNL     1      -9.334   3.279  65.433  1.00  0.00    -0.140 A  
HETATM   20  C   UNL     1      -8.321   5.739  64.641  1.00  0.00    -0.102 A  
HETATM   21  C   UNL     1      -8.361   4.700  63.705  1.00  0.00    -0.117 A  
HETATM   22  N   UNL     1      -7.878   7.038  64.516  1.00  0.00    -0.116 NA 
HETATM   23  C   UNL     1      -8.933   2.376  63.198  1.00  0.00    -0.088 C  
HETATM   24  C   UNL     1      -8.874   3.462  64.126  1.00  0.00    -0.097 A  
HETATM   25  H   UNL     1      -7.494   7.447  63.664  1.00  0.00     0.000 HD 
BRANCH   9  26
HETATM   26  N   UNL     1      -7.858  12.561  69.565  1.00  0.00     0.750 NA 
HETATM   27  C   UNL     1      -7.003  14.055  71.239  1.00  0.00     1.881 C  
HETATM   28  C   UNL     1      -6.611  13.078  70.131  1.00  0.00     0.296 C  
HETATM   29  C   UNL     1      -7.816  15.235  70.653  1.00  0.00     1.469 C  
HETATM   30  C   UNL     1      -8.663  13.599  68.902  1.00  0.00     0.184 C  
HETATM   31  C   UNL     1      -9.056  14.632  69.955  1.00  0.00     0.587 C  
BRANCH  29  32
HETATM   32  N   UNL     1      -6.997  16.087  69.744  1.00  0.00    -0.124 NA 
HETATM   33  C   UNL     1      -7.782  17.148  69.065  1.00  0.00    -0.164 C  
HETATM   34  C   UNL     1      -8.293  18.229  70.032  1.00  0.00     1.939 C  
HETATM   35  O   UNL     1      -7.212  18.843  70.749  1.00  0.00     1.457 OA 
HETATM   36  C   UNL     1      -6.400  17.871  71.420  1.00  0.00     2.330 C  
HETATM   37  C   UNL     1      -5.895  16.793  70.447  1.00  0.00    -0.032 C  
ENDBRANCH  29  32
ENDBRANCH   9  26
ENDBRANCH   2   3
TORSDOF 3
ENDMDL
MODEL       76
REMARK 921   NORMALIZED FREE ENERGY PREDICTED BY IDOCK:   21.55 KCAL/MOL
REMARK 922        TOTAL FREE ENERGY PREDICTED BY IDOCK:   24.41 KCAL/MOL
REMARK 923 INTER-LIGAND FREE ENERGY PREDICTED BY IDOCK:   24.51 KCAL/MOL
REMARK 924 INTRA-LIGAND FREE ENERGY PREDICTED BY IDOCK:   -0.10 KCAL/MOL
REMARK 927      BINDING AFFINITY PREDICTED BY RF-SCORE:    0.00 PKD
ROOT
HETATM    1  C   UNL     1     -13.781   8.398  73.018  1.00  0.00     0.338 C  
HETATM    2  C   UNL     1     -12.878   7.969  71.860  1.00  0.00    -0.343 C  
ENDROOT
BRANCH   2   3
HETATM    3  C   UNL     1     -12.221   9.067  71.034  1.00  0.00    -0.275 A  
HETATM    4  C   UNL     1     -12.347  10.396  71.473  1.00  0.00    -0.468 A  
HETATM    5  C   UNL     1     -11.691  11.459  70.846  1.00  0.00     0.087 A  
HETATM    6  C   UNL     1     -10.898  11.235  69.712  1.00  0.00    -0.089 A  
HETATM    7  C   UNL     1     -10.809   9.910  69.252  1.00  0.00    -0.255 A  
HETATM    8  C   UNL     1     -10.118  12.361  69.002  1.00  0.00     0.136 C  
HETATM    9  C   UNL     1     -11.423   8.806  69.891  1.00  0.00     0.135 A  
HETATM   10  C   UNL     1      -8.603  12.066  69.085  1.00  0.00     0.490 C  
HETATM   11  C   UNL     1     -10.393  13.684  69.678  1.00  0.00     0.596 A  
HETATM   12  C   UNL     1     -10.556  12.444  67.524  1.00  0.00    -0.240 C  
HETATM   13  N   UNL     1     -10.292  20.576  71.251  1.00  0.00     2.482 NA 
HETATM   14  C   UNL     1     -11.180  13.886  70.793  1.00  0.00     0.623 A  
HETATM   15  C   UNL     1     -11.745  16.045  72.120  1.00  0.00    -0.587 A  
HETATM   16  C   UNL     1     -11.869  12.806  71.455  1.00  0.00     1.203 C  
HETATM   17  C   UNL     1     -11.153  15.265  71.109  1.00  0.00    -0.328 A  
HETATM   18  O   UNL     1     -12.558  12.969  72.457  1.00  0.00     0.106 OA 
HETATM   19  C   UNL     1     -11.513  17.421  72.149  1.00  0.00     1.513 A  
HETATM   20  C   UNL     1     -10.342  15.883  70.157  1.00  0.00    -0.175 A  
HETATM   21  C   UNL     1     -10.099  17.261  70.168  1.00  0.00     0.899 A  
HETATM   22  N   UNL     1      -9.892  14.903  69.298  1.00  0.00    -0.339 NA 
HETATM   23  C   UNL     1     -10.477  19.433  71.228  1.00  0.00     2.851 C  
HETATM   24  C   UNL     1     -10.703  18.022  71.182  1.00  0.00     2.579 A  
HETATM   25  H   UNL     1      -9.278  15.061  68.499  1.00  0.00     0.000 HD 
BRANCH   9  26
HETATM   26  N   UNL     1     -11.143   7.526  69.434  1.00  0.00    -0.074 NA 
HETATM   27  C   UNL     1     -11.597   5.199  69.811  1.00  0.00     2.898 C  
HETATM   28  C   UNL     1     -12.184   6.508  69.285  1.00  0.00     1.479 C  
HETATM   29  C   UNL     1     -10.365   4.785  68.968  1.00  0.00     0.073 C  
HETATM   30  C   UNL     1      -9.961   7.267  68.598  1.00  0.00    -0.166 C  
HETATM   31  C   UNL     1      -9.347   5.945  69.050  1.00  0.00    -0.138 C  
BRANCH  29  32
HETATM   32  N   UNL     1     -10.735   4.437  67.565  1.00  0.00     0.687 NA 
HETATM   33  C   UNL     1      -9.605   4.561  66.611  1.00  0.00    -0.190 C  
HETATM   34  C   UNL     1      -8.501   3.518  66.849  1.00  0.00    -0.106 C  
HETATM   35  O   UNL     1      -9.019   2.182  66.778  1.00  0.00    -0.128 OA 
HETATM   36  C   UNL     1     -10.127   1.994  67.668  1.00  0.00     1.368 C  
HETATM   37  C   UNL     1     -11.225   3.042  67.425  1.00  0.00     7.874 C  
ENDBRANCH  29  32
ENDBRANCH   9  26
ENDBRANCH   2   3
TORSDOF 3
ENDMDL
MODEL       77
REMARK 921   NORMALIZED FREE ENERGY PREDICTED BY IDOCK:   22.47 KCAL/MOL
REMARK 922        TOTAL FREE ENERGY PREDICTED BY IDOCK:   25.50 KCAL/MOL
REMARK 923 INTER-LIGAND FREE ENERGY PREDICTED BY IDOCK:   22.57 KCAL/MOL
REMARK 924 INTRA-LIGAND FREE ENERGY PREDICTED BY IDOCK:    2.92 KCAL/MOL
REMARK 927      BINDING AFFINITY PREDICTED BY RF-SCORE:    0.00 PKD
ROOT
HETATM    1  C   UNL     1      -9.581  13.877  63.876  1.00  0.00     3.328 C  
HETATM    2  C   UNL     1      -8.432  14.332  64.776  1.00  0.00     6.142 C  
ENDROOT
BRANCH   2   3
HETATM    3  C   UNL     1      -8.318  13.689  66.152  1.00  0.00     1.164 A  
HETATM    4  C   UNL     1      -8.287  12.287  66.232  1.00  0.00     0.268 A  
HETATM    5  C   UNL     1      -8.076  11.607  67.435  1.00  0.00    -0.153 A  
HETATM    6  C   UNL     1      -7.920  12.317  68.634  1.00  0.00    -0.050 A  
HETATM    7  C   UNL     1      -7.993  13.718  68.555  1.00  0.00    -0.131 A  
HETATM    8  C   UNL     1      -7.644  11.625  69.984  1.00  0.00     1.328 C  
HETATM    9  C   UNL     1      -8.160  14.437  67.347  1.00  0.00    -0.199 A  
HETATM   10  C   UNL     1      -6.264  12.074  70.518  1.00  0.00     0.210 C  
HETATM   11  C   UNL     1      -7.629  10.125  69.801  1.00  0.00    -0.170 A  
HETATM   12  C   UNL     1      -8.746  12.003  70.997  1.00  0.00    10.051 C  
HETATM   13  N   UNL     1      -7.153   3.197  71.130  1.00  0.00    -0.032 NA 
HETATM   14  C   UNL     1      -7.787   9.443  68.612  1.00  0.00    -0.088 A  
HETATM   15  C   UNL     1      -7.756   6.902  68.080  1.00  0.00    -0.113 A  
HETATM   16  C   UNL     1      -8.010  10.122  67.360  1.00  0.00    -0.110 C  
HETATM   17  C   UNL     1      -7.685   8.058  68.881  1.00  0.00    -0.104 A  
HETATM   18  O   UNL     1      -8.135   9.529  66.293  1.00  0.00    -0.110 OA 
HETATM   19  C   UNL     1      -7.614   5.647  68.673  1.00  0.00    -0.088 A  
HETATM   20  C   UNL     1      -7.472   7.925  70.253  1.00  0.00    -0.077 A  
HETATM   21  C   UNL     1      -7.329   6.675  70.866  1.00  0.00    -0.082 A  
HETATM   22  N   UNL     1      -7.441   9.194  70.791  1.00  0.00    -0.111 NA 
HETATM   23  C   UNL     1      -7.264   4.241  70.640  1.00  0.00    -0.044 C  
HETATM   24  C   UNL     1      -7.406   5.535  70.050  1.00  0.00    -0.069 A  
HETATM   25  H   UNL     1      -7.300   9.408  71.778  1.00  0.00     0.000 HD 
BRANCH   9  26
HETATM   26  N   UNL     1      -8.067  15.821  67.373  1.00  0.00    -0.155 NA 
HETATM   27  C   UNL     1      -7.883  17.770  65.982  1.00  0.00    -0.193 C  
HETATM   28  C   UNL     1      -8.831  16.669  66.457  1.00  0.00    -0.279 C  
HETATM   29  C   UNL     1      -7.410  18.626  67.183  1.00  0.00    -0.210 C  
HETATM   30  C   UNL     1      -7.647  16.526  68.594  1.00  0.00    -0.213 C  
HETATM   31  C   UNL     1      -6.723  17.669  68.182  1.00  0.00    -0.205 C  
BRANCH  29  32
HETATM   32  N   UNL     1      -8.528  19.400  67.797  1.00  0.00    -0.302 NA 
HETATM   33  C   UNL     1      -9.064  18.778  69.033  1.00  0.00    -0.122 C  
HETATM   34  C   UNL     1      -8.066  18.805  70.201  1.00  0.00     1.732 C  
HETATM   35  O   UNL     1      -7.649  20.144  70.503  1.00  0.00     0.474 OA 
HETATM   36  C   UNL     1      -7.130  20.812  69.346  1.00  0.00     0.958 C  
HETATM   37  C   UNL     1      -8.134  20.779  68.182  1.00  0.00     0.329 C  
ENDBRANCH  29  32
ENDBRANCH   9  26
ENDBRANCH   2   3
TORSDOF 3
ENDMDL
MODEL       78
REMARK 921   NORMALIZED FREE ENERGY PREDICTED BY IDOCK:   22.83 KCAL/MOL
REMARK 922        TOTAL FREE ENERGY PREDICTED BY IDOCK:   25.92 KCAL/MOL
REMARK 923 INTER-LIGAND FREE ENERGY PREDICTED BY IDOCK:   17.05 KCAL/MOL
REMARK 924 INTRA-LIGAND FREE ENERGY PREDICTED BY IDOCK:    8.86 KCAL/MOL
REMARK 927      BINDING AFFINITY PREDICTED BY RF-SCORE:    0.00 PKD
ROOT
HETATM    1  C   UNL     1     -10.605  16.707  71.795  1.00  0.00     2.332 C  
HETATM    2  C   UNL     1     -11.625  15.699  71.263  1.00  0.00    -0.485 C  
ENDROOT
BRANCH   2   3
HETATM    3  C   UNL     1     -11.116  14.317  70.879  1.00  0.00     0.496 A  
HETATM    4  C   UNL     1     -11.759  13.193  71.425  1.00  0.00     1.250 A  
HETATM    5  C   UNL     1     -11.437  11.886  71.049  1.00  0.00     1.310 A  
HETATM    6  C   UNL     1     -10.414  11.645  70.122  1.00  0.00     1.273 A  
HETATM    7  C   UNL     1      -9.744  12.770  69.609  1.00  0.00     1.640 A  
HETATM    8  C   UNL     1     -10.040  10.229  69.639  1.00  0.00    -0.257 C  
HETATM    9  C   UNL     1     -10.077  14.108  69.935  1.00  0.00     0.767 A  
HETATM   10  C   UNL     1     -10.297  10.122  68.119  1.00  0.00    -0.217 C  
HETATM   11  C   UNL     1     -10.891   9.202  70.349  1.00  0.00    -0.242 A  
HETATM   12  C   UNL     1      -8.552   9.953  69.941  1.00  0.00    -0.216 C  
HETATM   13  N   UNL     1     -13.660   3.028  72.399  1.00  0.00     3.797 NA 
HETATM   14  C   UNL     1     -11.893   9.458  71.262  1.00  0.00    -0.435 A  
HETATM   15  C   UNL     1     -13.482   7.859  72.552  1.00  0.00     0.173 A  
HETATM   16  C   UNL     1     -12.241  10.796  71.668  1.00  0.00    -0.084 C  
HETATM   17  C   UNL     1     -12.449   8.221  71.665  1.00  0.00    -0.351 A  
HETATM   18  O   UNL     1     -13.141  11.039  72.466  1.00  0.00    -0.016 OA 
HETATM   19  C   UNL     1     -13.789   6.509  72.732  1.00  0.00     1.100 A  
HETATM   20  C   UNL     1     -11.755   7.222  70.983  1.00  0.00    -0.307 A  
HETATM   21  C   UNL     1     -12.047   5.863  71.152  1.00  0.00     0.518 A  
HETATM   22  N   UNL     1     -10.814   7.841  70.189  1.00  0.00    -0.245 NA 
HETATM   23  C   UNL     1     -13.407   4.147  72.242  1.00  0.00     4.390 C  
HETATM   24  C   UNL     1     -13.078   5.524  72.044  1.00  0.00     1.547 A  
HETATM   25  H   UNL     1     -10.157   7.360  69.575  1.00  0.00     0.000 HD 
BRANCH   9  26
HETATM   26  N   UNL     1      -9.448  15.139  69.253  1.00  0.00    -0.225 NA 
HETATM   27  C   UNL     1      -9.674  16.647  67.398  1.00  0.00    -0.251 C  
HETATM   28  C   UNL     1     -10.172  16.331  68.808  1.00  0.00    -0.249 C  
HETATM   29  C   UNL     1      -8.157  16.959  67.422  1.00  0.00    -0.174 C  
HETATM   30  C   UNL     1      -8.002  15.363  69.394  1.00  0.00    -0.234 C  
HETATM   31  C   UNL     1      -7.447  15.723  68.019  1.00  0.00    -0.136 C  
BRANCH  29  32
HETATM   32  N   UNL     1      -7.853  18.217  68.164  1.00  0.00    -0.271 NA 
HETATM   33  C   UNL     1      -8.497  19.417  67.577  1.00  0.00    -0.292 C  
HETATM   34  C   UNL     1     -10.029  19.405  67.715  1.00  0.00    -0.379 C  
HETATM   35  O   UNL     1     -10.429  19.292  69.088  1.00  0.00    -0.070 OA 
HETATM   36  C   UNL     1      -9.830  18.157  69.725  1.00  0.00     0.655 C  
HETATM   37  C   UNL     1      -8.299  18.175  69.580  1.00  0.00     0.940 C  
ENDBRANCH  29  32
ENDBRANCH   9  26
ENDBRANCH   2   3
TORSDOF 3
ENDMDL
MODEL       79
REMARK 921   NORMALIZED FREE ENERGY PREDICTED BY IDOCK:   23.00 KCAL/MOL
REMARK 922        TOTAL FREE ENERGY PREDICTED BY IDOCK:   26.12 KCAL/MOL
REMARK 923 INTER-LIGAND FREE ENERGY PREDICTED BY IDOCK:   26.60 KCAL/MOL
REMARK 924 INTRA-LIGAND FREE ENERGY PREDICTED BY IDOCK:   -0.48 KCAL/MOL
REMARK 927      BINDING AFFINITY PREDICTED BY RF-SCORE:    0.00 PKD
ROOT
HETATM    1  C   UNL     1      -6.816  13.355  63.208  1.00  0.00    16.457 C  
HETATM    2  C   UNL     1      -8.256  13.213  63.702  1.00  0.00     8.257 C  
ENDROOT
BRANCH   2   3
HETATM    3  C   UNL     1      -8.514  12.252  64.855  1.00  0.00     1.869 A  
HETATM    4  C   UNL     1      -7.985  10.953  64.770  1.00  0.00     0.250 A  
HETATM    5  C   UNL     1      -8.074  10.036  65.821  1.00  0.00    -0.128 A  
HETATM    6  C   UNL     1      -8.740  10.376  67.006  1.00  0.00    -0.132 A  
HETATM    7  C   UNL     1      -9.304  11.662  67.071  1.00  0.00    -0.186 A  
HETATM    8  C   UNL     1      -8.836   9.421  68.215  1.00  0.00    -0.128 C  
HETATM    9  C   UNL     1      -9.192  12.629  66.042  1.00  0.00     0.020 A  
HETATM   10  C   UNL     1      -8.116  10.055  69.426  1.00  0.00    -0.150 C  
HETATM   11  C   UNL     1      -8.168   8.106  67.886  1.00  0.00    -0.129 A  
HETATM   12  C   UNL     1     -10.319   9.167  68.559  1.00  0.00    -0.236 C  
HETATM   13  N   UNL     1      -5.697   1.504  68.429  1.00  0.00    -0.018 NA 
HETATM   14  C   UNL     1      -7.519   7.788  66.711  1.00  0.00    -0.090 A  
HETATM   15  C   UNL     1      -6.286   5.626  65.968  1.00  0.00    -0.039 A  
HETATM   16  C   UNL     1      -7.417   8.715  65.612  1.00  0.00    -0.085 C  
HETATM   17  C   UNL     1      -7.021   6.469  66.825  1.00  0.00    -0.067 A  
HETATM   18  O   UNL     1      -6.828   8.452  64.568  1.00  0.00    -0.068 OA 
HETATM   19  C   UNL     1      -5.946   4.342  66.396  1.00  0.00    -0.027 A  
HETATM   20  C   UNL     1      -7.392   6.002  68.086  1.00  0.00    -0.085 A  
HETATM   21  C   UNL     1      -7.062   4.718  68.532  1.00  0.00    -0.057 A  
HETATM   22  N   UNL     1      -8.087   7.014  68.713  1.00  0.00    -0.120 NA 
HETATM   23  C   UNL     1      -5.975   2.573  68.081  1.00  0.00    -0.024 C  
HETATM   24  C   UNL     1      -6.332   3.892  67.661  1.00  0.00    -0.037 A  
HETATM   25  H   UNL     1      -8.483   6.960  69.651  1.00  0.00     0.000 HD 
BRANCH   9  26
HETATM   26  N   UNL     1      -9.658  13.914  66.278  1.00  0.00    -0.278 NA 
HETATM   27  C   UNL     1     -11.584  15.334  66.085  1.00  0.00     0.008 C  
HETATM   28  C   UNL     1     -10.976  14.167  66.862  1.00  0.00    -0.300 C  
HETATM   29  C   UNL     1     -10.710  16.603  66.249  1.00  0.00    -0.119 C  
HETATM   30  C   UNL     1      -8.722  15.033  66.463  1.00  0.00    -0.208 C  
HETATM   31  C   UNL     1      -9.294  16.248  65.739  1.00  0.00    -0.194 C  
BRANCH  29  32
HETATM   32  N   UNL     1     -10.710  17.109  67.652  1.00  0.00    -0.336 NA 
HETATM   33  C   UNL     1      -9.519  17.932  67.980  1.00  0.00    -0.279 C  
HETATM   34  C   UNL     1      -9.489  19.272  67.227  1.00  0.00    -0.314 C  
HETATM   35  O   UNL     1     -10.669  20.045  67.486  1.00  0.00    -0.332 OA 
HETATM   36  C   UNL     1     -11.863  19.304  67.202  1.00  0.00     1.854 C  
HETATM   37  C   UNL     1     -11.885  17.965  67.958  1.00  0.00     2.050 C  
ENDBRANCH  29  32
ENDBRANCH   9  26
ENDBRANCH   2   3
TORSDOF 3
ENDMDL
MODEL       80
REMARK 921   NORMALIZED FREE ENERGY PREDICTED BY IDOCK:   23.57 KCAL/MOL
REMARK 922        TOTAL FREE ENERGY PREDICTED BY IDOCK:   26.79 KCAL/MOL
REMARK 923 INTER-LIGAND FREE ENERGY PREDICTED BY IDOCK:   24.83 KCAL/MOL
REMARK 924 INTRA-LIGAND FREE ENERGY PREDICTED BY IDOCK:    1.96 KCAL/MOL
REMARK 927      BINDING AFFINITY PREDICTED BY RF-SCORE:    0.00 PKD
ROOT
HETATM    1  C   UNL     1     -11.530   7.282  69.881  1.00  0.00    -0.085 C  
HETATM    2  C   UNL     1     -10.672   8.326  70.599  1.00  0.00    -0.240 C  
ENDROOT
BRANCH   2   3
HETATM    3  C   UNL     1      -9.952   9.357  69.741  1.00  0.00    -0.217 A  
HETATM    4  C   UNL     1      -9.834  10.668  70.235  1.00  0.00     0.693 A  
HETATM    5  C   UNL     1      -9.098  11.655  69.573  1.00  0.00     1.002 A  
HETATM    6  C   UNL     1      -8.470  11.375  68.352  1.00  0.00    -0.155 A  
HETATM    7  C   UNL     1      -8.626  10.074  67.842  1.00  0.00    -0.121 A  
HETATM    8  C   UNL     1      -7.612  12.411  67.596  1.00  0.00    -0.141 C  
HETATM    9  C   UNL     1      -9.326   9.040  68.509  1.00  0.00    -0.139 A  
HETATM   10  C   UNL     1      -6.157  11.899  67.501  1.00  0.00    -0.100 C  
HETATM   11  C   UNL     1      -7.617  13.725  68.341  1.00  0.00    -0.135 A  
HETATM   12  C   UNL     1      -8.186  12.627  66.180  1.00  0.00     0.790 C  
HETATM   13  N   UNL     1      -6.337  20.448  70.117  1.00  0.00    -0.390 NA 
HETATM   14  C   UNL     1      -8.244  13.984  69.543  1.00  0.00     0.618 A  
HETATM   15  C   UNL     1      -8.342  16.135  70.994  1.00  0.00     4.387 A  
HETATM   16  C   UNL     1      -9.011  12.983  70.242  1.00  0.00     4.781 C  
HETATM   17  C   UNL     1      -7.981  15.327  69.898  1.00  0.00     0.097 A  
HETATM   18  O   UNL     1      -9.559  13.194  71.319  1.00  0.00     8.429 OA 
HETATM   19  C   UNL     1      -7.908  17.461  71.042  1.00  0.00     6.224 A  
HETATM   20  C   UNL     1      -7.193  15.869  68.883  1.00  0.00    -0.158 A  
HETATM   21  C   UNL     1      -6.750  17.196  68.912  1.00  0.00    -0.209 A  
HETATM   22  N   UNL     1      -6.985  14.878  67.948  1.00  0.00    -0.139 NA 
HETATM   23  C   UNL     1      -6.690  19.346  70.077  1.00  0.00    -0.046 C  
HETATM   24  C   UNL     1      -7.125  17.986  70.011  1.00  0.00     0.873 A  
HETATM   25  H   UNL     1      -6.442  14.984  67.092  1.00  0.00     0.000 HD 
BRANCH   9  26
HETATM   26  N   UNL     1      -9.286   7.757  67.982  1.00  0.00    -0.141 NA 
HETATM   27  C   UNL     1      -8.443   5.541  68.360  1.00  0.00    -0.101 C  
HETATM   28  C   UNL     1      -9.478   6.569  68.815  1.00  0.00    -0.128 C  
HETATM   29  C   UNL     1      -8.682   5.159  66.878  1.00  0.00    -0.107 C  
HETATM   30  C   UNL     1      -9.578   7.516  66.561  1.00  0.00    -0.173 C  
HETATM   31  C   UNL     1      -8.598   6.463  66.053  1.00  0.00    -0.149 C  
BRANCH  29  32
HETATM   32  N   UNL     1      -9.970   4.433  66.684  1.00  0.00    -0.226 NA 
HETATM   33  C   UNL     1     -10.242   4.087  65.266  1.00  0.00    -0.139 C  
HETATM   34  C   UNL     1      -9.271   3.033  64.709  1.00  0.00    -0.146 C  
HETATM   35  O   UNL     1      -9.298   1.830  65.490  1.00  0.00    -0.067 OA 
HETATM   36  C   UNL     1      -9.055   2.093  66.878  1.00  0.00    -0.084 C  
HETATM   37  C   UNL     1     -10.029   3.149  67.428  1.00  0.00     0.671 C  
ENDBRANCH  29  32
ENDBRANCH   9  26
ENDBRANCH   2   3
TORSDOF 3
ENDMDL
MODEL       81
REMARK 921   NORMALIZED FREE ENERGY PREDICTED BY IDOCK:   24.96 KCAL/MOL
REMARK 922        TOTAL FREE ENERGY PREDICTED BY IDOCK:   28.42 KCAL/MOL
REMARK 923 INTER-LIGAND FREE ENERGY PREDICTED BY IDOCK:   13.14 KCAL/MOL
REMARK 924 INTRA-LIGAND FREE ENERGY PREDICTED BY IDOCK:   15.28 KCAL/MOL
REMARK 927      BINDING AFFINITY PREDICTED BY RF-SCORE:    0.00 PKD
ROOT
HETATM    1  C   UNL     1      -6.375   5.703  70.829  1.00  0.00    -0.031 C  
HETATM    2  C   UNL     1      -7.253   6.933  71.068  1.00  0.00    -0.076 C  
ENDROOT
BRANCH   2   3
HETATM    3  C   UNL     1      -8.066   7.457  69.892  1.00  0.00    -0.126 A  
HETATM    4  C   UNL     1      -8.574   8.765  69.964  1.00  0.00    -0.136 A  
HETATM    5  C   UNL     1      -9.237   9.373  68.894  1.00  0.00    -0.140 A  
HETATM    6  C   UNL     1      -9.453   8.671  67.700  1.00  0.00    -0.169 A  
HETATM    7  C   UNL     1      -8.979   7.349  67.648  1.00  0.00    -0.126 A  
HETATM    8  C   UNL     1     -10.141   9.302  66.472  1.00  0.00    -0.343 C  
HETATM    9  C   UNL     1      -8.265   6.720  68.696  1.00  0.00    -0.120 A  
HETATM   10  C   UNL     1      -9.147   9.337  65.289  1.00  0.00    -0.271 C  
HETATM   11  C   UNL     1     -10.567  10.717  66.791  1.00  0.00    -0.237 A  
HETATM   12  C   UNL     1     -11.384   8.471  66.090  1.00  0.00     3.590 C  
HETATM   13  N   UNL     1     -13.280  17.216  66.179  1.00  0.00     8.778 NA 
HETATM   14  C   UNL     1     -10.348  11.391  67.974  1.00  0.00    -0.204 A  
HETATM   15  C   UNL     1     -10.955  13.809  68.703  1.00  0.00    -0.287 A  
HETATM   16  C   UNL     1      -9.670  10.784  69.092  1.00  0.00    -0.163 C  
HETATM   17  C   UNL     1     -10.886  12.693  67.846  1.00  0.00    -0.244 A  
HETATM   18  O   UNL     1      -9.454  11.378  70.144  1.00  0.00     1.555 OA 
HETATM   19  C   UNL     1     -11.576  14.977  68.259  1.00  0.00    -0.355 A  
HETATM   20  C   UNL     1     -11.439  12.780  66.568  1.00  0.00    -0.355 A  
HETATM   21  C   UNL     1     -12.066  13.942  66.106  1.00  0.00    -0.478 A  
HETATM   22  N   UNL     1     -11.233  11.568  65.946  1.00  0.00    -0.233 NA 
HETATM   23  C   UNL     1     -12.760  16.247  66.541  1.00  0.00     3.858 C  
HETATM   24  C   UNL     1     -12.128  15.042  66.977  1.00  0.00     0.115 A  
HETATM   25  H   UNL     1     -11.530  11.338  64.998  1.00  0.00     0.000 HD 
BRANCH   9  26
HETATM   26  N   UNL     1      -7.716   5.466  68.475  1.00  0.00    -0.083 NA 
HETATM   27  C   UNL     1      -5.821   4.074  68.961  1.00  0.00    -0.022 C  
HETATM   28  C   UNL     1      -7.090   4.691  69.547  1.00  0.00    -0.051 C  
HETATM   29  C   UNL     1      -6.176   3.121  67.793  1.00  0.00    -0.032 C  
HETATM   30  C   UNL     1      -8.172   4.631  67.353  1.00  0.00    -0.101 C  
HETATM   31  C   UNL     1      -6.947   3.953  66.744  1.00  0.00    -0.059 C  
BRANCH  29  32
HETATM   32  N   UNL     1      -6.936   1.923  68.255  1.00  0.00    -0.039 NA 
HETATM   33  C   UNL     1      -6.619   1.529  69.651  1.00  0.00    -0.029 C  
HETATM   34  C   UNL     1      -7.105   2.553  70.689  1.00  0.00    -0.033 C  
HETATM   35  O   UNL     1      -8.517   2.778  70.583  1.00  0.00    -0.051 OA 
HETATM   36  C   UNL     1      -8.898   3.151  69.252  1.00  0.00    -0.098 C  
HETATM   37  C   UNL     1      -8.407   2.123  68.220  1.00  0.00    -0.059 C  
ENDBRANCH  29  32
ENDBRANCH   9  26
ENDBRANCH   2   3
TORSDOF 3
ENDMDL
MODEL       82
REMARK 921   NORMALIZED FREE ENERGY PREDICTED BY IDOCK:   29.54 KCAL/MOL
REMARK 922        TOTAL FREE ENERGY PREDICTED BY IDOCK:   33.81 KCAL/MOL
REMARK 923 INTER-LIGAND FREE ENERGY PREDICTED BY IDOCK:   29.18 KCAL/MOL
REMARK 924 INTRA-LIGAND FREE ENERGY PREDICTED BY IDOCK:    4.63 KCAL/MOL
REMARK 927      BINDING AFFINITY PREDICTED BY RF-SCORE:    0.00 PKD
ROOT
HETATM    1  C   UNL     1      -7.055   6.720  63.875  1.00  0.00    -0.059 C  
HETATM    2  C   UNL     1      -7.556   8.031  63.266  1.00  0.00    -0.130 C  
ENDROOT
BRANCH   2   3
HETATM    3  C   UNL     1      -8.433   8.921  64.135  1.00  0.00    -0.156 A  
HETATM    4  C   UNL     1      -8.426  10.305  63.892  1.00  0.00    -0.179 A  
HETATM    5  C   UNL     1      -9.276  11.190  64.561  1.00  0.00    -0.126 A  
HETATM    6  C   UNL     1     -10.159  10.721  65.544  1.00  0.00    -0.335 A  
HETATM    7  C   UNL     1     -10.133   9.341  65.813  1.00  0.00    -0.092 A  
HETATM    8  C   UNL     1     -11.148  11.642  66.287  1.00  0.00    -0.345 C  
HETATM    9  C   UNL     1      -9.317   8.413  65.122  1.00  0.00     0.436 A  
HETATM   10  C   UNL     1     -12.595  11.200  65.970  1.00  0.00     4.086 C  
HETATM   11  C   UNL     1     -10.965  13.070  65.828  1.00  0.00    -0.277 A  
HETATM   12  C   UNL     1     -10.894  11.559  67.807  1.00  0.00    -0.270 C  
HETATM   13  N   UNL     1     -11.747  20.065  65.160  1.00  0.00     1.040 NA 
HETATM   14  C   UNL     1     -10.088  13.514  64.860  1.00  0.00    -0.280 A  
HETATM   15  C   UNL     1      -9.650  15.890  63.908  1.00  0.00     7.054 A  
HETATM   16  C   UNL     1      -9.199  12.622  64.160  1.00  0.00     1.071 C  
HETATM   17  C   UNL     1     -10.252  14.913  64.725  1.00  0.00    -0.153 A  
HETATM   18  O   UNL     1      -8.427  13.000  63.284  1.00  0.00     4.066 OA 
HETATM   19  C   UNL     1     -10.048  17.223  64.028  1.00  0.00     6.528 A  
HETATM   20  C   UNL     1     -11.235  15.297  65.636  1.00  0.00    -0.256 A  
HETATM   21  C   UNL     1     -11.646  16.628  65.771  1.00  0.00     1.088 A  
HETATM   22  N   UNL     1     -11.654  14.161  66.295  1.00  0.00    -0.356 NA 
HETATM   23  C   UNL     1     -11.424  18.958  65.059  1.00  0.00     2.565 C  
HETATM   24  C   UNL     1     -11.031  17.588  64.951  1.00  0.00     0.670 A  
HETATM   25  H   UNL     1     -12.370  14.135  67.021  1.00  0.00     0.000 HD 
BRANCH   9  26
HETATM   26  N   UNL     1      -9.486   7.059  65.369  1.00  0.00     0.593 NA 
HETATM   27  C   UNL     1     -11.005   5.220  65.089  1.00  0.00     1.001 C  
HETATM   28  C   UNL     1     -10.031   6.148  64.362  1.00  0.00     2.913 C  
HETATM   29  C   UNL     1     -10.257   4.393  66.164  1.00  0.00    -0.203 C  
HETATM   30  C   UNL     1      -8.679   6.373  66.389  1.00  0.00    -0.138 C  
HETATM   31  C   UNL     1      -9.590   5.398  67.130  1.00  0.00    -0.144 C  
BRANCH  29  32
HETATM   32  N   UNL     1      -9.284   3.436  65.561  1.00  0.00    -0.149 NA 
HETATM   33  C   UNL     1      -7.900   3.969  65.495  1.00  0.00    -0.090 C  
HETATM   34  C   UNL     1      -7.257   4.144  66.881  1.00  0.00    -0.068 C  
HETATM   35  O   UNL     1      -7.241   2.910  67.611  1.00  0.00    -0.052 OA 
HETATM   36  C   UNL     1      -8.549   2.330  67.703  1.00  0.00    -0.098 C  
HETATM   37  C   UNL     1      -9.185   2.159  66.313  1.00  0.00     0.026 C  
ENDBRANCH  29  32
ENDBRANCH   9  26
ENDBRANCH   2   3
TORSDOF 3
ENDMDL
MODEL       83
REMARK 921   NORMALIZED FREE ENERGY PREDICTED BY IDOCK:   30.67 KCAL/MOL
REMARK 922        TOTAL FREE ENERGY PREDICTED BY IDOCK:   35.13 KCAL/MOL
REMARK 923 INTER-LIGAND FREE ENERGY PREDICTED BY IDOCK:   26.85 KCAL/MOL
REMARK 924 INTRA-LIGAND FREE ENERGY PREDICTED BY IDOCK:    8.28 KCAL/MOL
REMARK 927      BINDING AFFINITY PREDICTED BY RF-SCORE:    0.00 PKD
ROOT
HETATM    1  C   UNL     1      -9.898   9.354  64.010  1.00  0.00     1.112 C  
HETATM    2  C   UNL     1      -9.590   8.353  65.125  1.00  0.00     0.760 C  
ENDROOT
BRANCH   2   3
HETATM    3  C   UNL     1      -9.343   8.907  66.521  1.00  0.00    -0.252 A  
HETATM    4  C   UNL     1     -10.201   9.911  67.001  1.00  0.00    -0.294 A  
HETATM    5  C   UNL     1     -10.123  10.405  68.306  1.00  0.00    -0.174 A  
HETATM    6  C   UNL     1      -9.142   9.930  69.188  1.00  0.00    -0.175 A  
HETATM    7  C   UNL     1      -8.260   8.956  68.690  1.00  0.00    -0.116 A  
HETATM    8  C   UNL     1      -9.033  10.407  70.651  1.00  0.00     1.477 C  
HETATM    9  C   UNL     1      -8.340   8.403  67.389  1.00  0.00    -0.124 A  
HETATM   10  C   UNL     1      -9.268   9.209  71.599  1.00  0.00    -0.088 C  
HETATM   11  C   UNL     1     -10.080  11.460  70.929  1.00  0.00     4.533 A  
HETATM   12  C   UNL     1      -7.631  11.005  70.899  1.00  0.00     3.128 C  
HETATM   13  N   UNL     1     -14.018  16.311  74.237  1.00  0.00     1.292 NA 
HETATM   14  C   UNL     1     -11.037  11.917  70.047  1.00  0.00     0.215 A  
HETATM   15  C   UNL     1     -12.931  13.671  70.334  1.00  0.00    -0.001 A  
HETATM   16  C   UNL     1     -11.134  11.426  68.695  1.00  0.00    -0.236 C  
HETATM   17  C   UNL     1     -11.827  12.883  70.714  1.00  0.00     0.092 A  
HETATM   18  O   UNL     1     -11.991  11.811  67.905  1.00  0.00    -0.575 OA 
HETATM   19  C   UNL     1     -13.493  14.554  71.257  1.00  0.00    -0.428 A  
HETATM   20  C   UNL     1     -11.318  13.001  72.007  1.00  0.00     4.531 A  
HETATM   21  C   UNL     1     -11.867  13.882  72.946  1.00  0.00     1.281 A  
HETATM   22  N   UNL     1     -10.258  12.127  72.115  1.00  0.00    11.970 NA 
HETATM   23  C   UNL     1     -13.553  15.572  73.477  1.00  0.00     0.064 C  
HETATM   24  C   UNL     1     -12.965  14.661  72.546  1.00  0.00    -0.492 A  
HETATM   25  H   UNL     1      -9.690  11.995  72.952  1.00  0.00     0.000 HD 
BRANCH   9  26
HETATM   26  N   UNL     1      -7.511   7.342  67.060  1.00  0.00    -0.102 NA 
HETATM   27  C   UNL     1      -6.184   5.568  67.988  1.00  0.00    -0.037 C  
HETATM   28  C   UNL     1      -7.613   6.041  67.724  1.00  0.00    -0.096 C  
HETATM   29  C   UNL     1      -5.421   5.392  66.652  1.00  0.00    -0.013 C  
HETATM   30  C   UNL     1      -6.876   7.263  65.736  1.00  0.00    -0.056 C  
HETATM   31  C   UNL     1      -5.450   6.757  65.928  1.00  0.00    -0.025 C  
BRANCH  29  32
HETATM   32  N   UNL     1      -5.982   4.285  65.825  1.00  0.00    -0.023 NA 
HETATM   33  C   UNL     1      -7.466   4.271  65.791  1.00  0.00    -0.081 C  
HETATM   34  C   UNL     1      -8.062   5.474  65.043  1.00  0.00    -0.119 C  
HETATM   35  O   UNL     1      -7.572   5.549  63.697  1.00  0.00    -0.061 OA 
HETATM   36  C   UNL     1      -6.139   5.553  63.653  1.00  0.00    -0.021 C  
HETATM   37  C   UNL     1      -5.551   4.348  64.405  1.00  0.00    -0.014 C  
ENDBRANCH  29  32
ENDBRANCH   9  26
ENDBRANCH   2   3
TORSDOF 3
ENDMDL
MODEL       84
REMARK 921   NORMALIZED FREE ENERGY PREDICTED BY IDOCK:   33.65 KCAL/MOL
REMARK 922        TOTAL FREE ENERGY PREDICTED BY IDOCK:   38.63 KCAL/MOL
REMARK 923 INTER-LIGAND FREE ENERGY PREDICTED BY IDOCK:   28.64 KCAL/MOL
REMARK 924 INTRA-LIGAND FREE ENERGY PREDICTED BY IDOCK:    9.99 KCAL/MOL
REMARK 927      BINDING AFFINITY PREDICTED BY RF-SCORE:    0.00 PKD
ROOT
HETATM    1  C   UNL     1      -5.533   6.502  68.736  1.00  0.00    -0.016 C  
HETATM    2  C   UNL     1      -6.541   6.799  69.847  1.00  0.00    -0.048 C  
ENDROOT
BRANCH   2   3
HETATM    3  C   UNL     1      -7.851   7.465  69.450  1.00  0.00    -0.122 A  
HETATM    4  C   UNL     1      -8.157   8.719  70.007  1.00  0.00    -0.111 A  
HETATM    5  C   UNL     1      -9.279   9.458  69.622  1.00  0.00    -0.195 A  
HETATM    6  C   UNL     1     -10.176   8.947  68.674  1.00  0.00    -0.221 A  
HETATM    7  C   UNL     1      -9.889   7.675  68.150  1.00  0.00    -0.186 A  
HETATM    8  C   UNL     1     -11.408   9.733  68.181  1.00  0.00     0.058 C  
HETATM    9  C   UNL     1      -8.738   6.921  68.485  1.00  0.00    -0.125 A  
HETATM   10  C   UNL     1     -11.270  10.005  66.666  1.00  0.00     0.433 C  
HETATM   11  C   UNL     1     -11.499  11.056  68.906  1.00  0.00    -0.296 A  
HETATM   12  C   UNL     1     -12.689   8.915  68.453  1.00  0.00     7.256 C  
HETATM   13  N   UNL     1     -13.725  17.431  71.001  1.00  0.00    10.955 NA 
HETATM   14  C   UNL     1     -10.607  11.541  69.840  1.00  0.00     0.460 A  
HETATM   15  C   UNL     1     -10.559  13.778  71.158  1.00  0.00     3.425 A  
HETATM   16  C   UNL     1      -9.445  10.796  70.255  1.00  0.00     1.295 C  
HETATM   17  C   UNL     1     -11.052  12.820  70.252  1.00  0.00     0.836 A  
HETATM   18  O   UNL     1      -8.635  11.223  71.071  1.00  0.00     4.493 OA 
HETATM   19  C   UNL     1     -11.258  14.972  71.342  1.00  0.00    -0.260 A  
HETATM   20  C   UNL     1     -12.231  13.084  69.555  1.00  0.00    -0.140 A  
HETATM   21  C   UNL     1     -12.947  14.274  69.727  1.00  0.00     0.366 A  
HETATM   22  N   UNL     1     -12.482  11.999  68.743  1.00  0.00     0.050 NA 
HETATM   23  C   UNL     1     -13.143  16.443  70.841  1.00  0.00     2.212 C  
HETATM   24  C   UNL     1     -12.440  15.215  70.638  1.00  0.00    -0.442 A  
HETATM   25  H   UNL     1     -13.280  11.910  68.114  1.00  0.00     0.000 HD 
BRANCH   9  26
HETATM   26  N   UNL     1      -8.482   5.747  67.793  1.00  0.00    -0.104 NA 
HETATM   27  C   UNL     1      -8.854   3.374  67.812  1.00  0.00    -0.153 C  
HETATM   28  C   UNL     1      -9.515   4.732  67.576  1.00  0.00    -0.146 C  
HETATM   29  C   UNL     1      -7.707   3.150  66.794  1.00  0.00    -0.076 C  
HETATM   30  C   UNL     1      -7.387   5.671  66.813  1.00  0.00    -0.083 C  
HETATM   31  C   UNL     1      -6.707   4.315  66.972  1.00  0.00    -0.051 C  
BRANCH  29  32
HETATM   32  N   UNL     1      -8.212   3.029  65.396  1.00  0.00    -0.090 NA 
HETATM   33  C   UNL     1      -9.517   3.702  65.181  1.00  0.00    -0.162 C  
HETATM   34  C   UNL     1      -9.426   5.234  65.285  1.00  0.00     0.065 C  
HETATM   35  O   UNL     1      -8.474   5.767  64.355  1.00  0.00    -0.114 OA 
HETATM   36  C   UNL     1      -7.188   5.148  64.497  1.00  0.00    -0.058 C  
HETATM   37  C   UNL     1      -7.288   3.618  64.394  1.00  0.00    -0.067 C  
ENDBRANCH  29  32
ENDBRANCH   9  26
ENDBRANCH   2   3
TORSDOF 3
ENDMDL
MODEL       85
REMARK 921   NORMALIZED FREE ENERGY PREDICTED BY IDOCK:   37.87 KCAL/MOL
REMARK 922        TOTAL FREE ENERGY PREDICTED BY IDOCK:   43.59 KCAL/MOL
REMARK 923 INTER-LIGAND FREE ENERGY PREDICTED BY IDOCK:   38.82 KCAL/MOL
REMARK 924 INTRA-LIGAND FREE ENERGY PREDICTED BY IDOCK:    4.77 KCAL/MOL
REMARK 927      BINDING AFFINITY PREDICTED BY RF-SCORE:    0.00 PKD
ROOT
HETATM    1  C   UNL     1      -7.404  11.605  73.149  1.00  0.00    13.068 C  
HETATM    2  C   UNL     1      -7.059  10.662  71.994  1.00  0.00     4.114 C  
ENDROOT
BRANCH   2   3
HETATM    3  C   UNL     1      -7.858  10.804  70.706  1.00  0.00     2.418 A  
HETATM    4  C   UNL     1      -8.085  12.095  70.201  1.00  0.00     3.165 A  
HETATM    5  C   UNL     1      -8.711  12.322  68.972  1.00  0.00     0.423 A  
HETATM    6  C   UNL     1      -9.176  11.247  68.203  1.00  0.00    -0.170 A  
HETATM    7  C   UNL     1      -8.985   9.959  68.731  1.00  0.00    -0.140 A  
HETATM    8  C   UNL     1      -9.838  11.433  66.821  1.00  0.00    -0.232 C  
HETATM    9  C   UNL     1      -8.315   9.693  69.950  1.00  0.00    -0.183 A  
HETATM   10  C   UNL     1      -8.974  10.740  65.743  1.00  0.00    -0.203 C  
HETATM   11  C   UNL     1      -9.939  12.904  66.492  1.00  0.00    -0.259 A  
HETATM   12  C   UNL     1     -11.253  10.816  66.836  1.00  0.00    -0.109 C  
HETATM   13  N   UNL     1     -11.339  18.952  63.109  1.00  0.00    12.289 NA 
HETATM   14  C   UNL     1      -9.477  13.950  67.265  1.00  0.00    -0.239 A  
HETATM   15  C   UNL     1      -9.515  16.516  66.868  1.00  0.00    -0.250 A  
HETATM   16  C   UNL     1      -8.832  13.741  68.536  1.00  0.00    -0.116 C  
HETATM   17  C   UNL     1      -9.753  15.158  66.582  1.00  0.00    -0.274 A  
HETATM   18  O   UNL     1      -8.401  14.661  69.225  1.00  0.00    -0.098 OA 
HETATM   19  C   UNL     1      -9.928  17.491  65.959  1.00  0.00    -0.231 A  
HETATM   20  C   UNL     1     -10.396  14.814  65.392  1.00  0.00    -0.386 A  
HETATM   21  C   UNL     1     -10.819  15.777  64.469  1.00  0.00    -0.095 A  
HETATM   22  N   UNL     1     -10.498  13.440  65.360  1.00  0.00    -0.294 NA 
HETATM   23  C   UNL     1     -10.992  18.139  63.857  1.00  0.00     7.057 C  
HETATM   24  C   UNL     1     -10.575  17.126  64.776  1.00  0.00     0.677 A  
HETATM   25  H   UNL     1     -10.924  12.902  64.606  1.00  0.00     0.000 HD 
BRANCH   9  26
HETATM   26  N   UNL     1      -8.052   8.376  70.297  1.00  0.00    -0.101 NA 
HETATM   27  C   UNL     1      -8.672   6.618  71.810  1.00  0.00    -0.129 C  
HETATM   28  C   UNL     1      -9.123   7.422  70.591  1.00  0.00    -0.156 C  
HETATM   29  C   UNL     1      -7.375   5.835  71.488  1.00  0.00    -0.088 C  
HETATM   30  C   UNL     1      -6.797   7.726  69.891  1.00  0.00    -0.049 C  
HETATM   31  C   UNL     1      -6.312   6.871  71.059  1.00  0.00    -0.041 C  
BRANCH  29  32
HETATM   32  N   UNL     1      -7.598   4.775  70.463  1.00  0.00    -0.057 NA 
HETATM   33  C   UNL     1      -8.316   3.588  70.990  1.00  0.00    -0.066 C  
HETATM   34  C   UNL     1      -9.777   3.888  71.366  1.00  0.00    -0.176 C  
HETATM   35  O   UNL     1     -10.508   4.410  70.248  1.00  0.00     0.037 OA 
HETATM   36  C   UNL     1      -9.861   5.555  69.677  1.00  0.00    -0.193 C  
HETATM   37  C   UNL     1      -8.401   5.248  69.307  1.00  0.00    -0.091 C  
ENDBRANCH  29  32
ENDBRANCH   9  26
ENDBRANCH   2   3
TORSDOF 3
ENDMDL
MODEL       86
REMARK 921   NORMALIZED FREE ENERGY PREDICTED BY IDOCK:   42.18 KCAL/MOL
REMARK 922        TOTAL FREE ENERGY PREDICTED BY IDOCK:   48.65 KCAL/MOL
REMARK 923 INTER-LIGAND FREE ENERGY PREDICTED BY IDOCK:   30.58 KCAL/MOL
REMARK 924 INTRA-LIGAND FREE ENERGY PREDICTED BY IDOCK:   18.07 KCAL/MOL
REMARK 927      BINDING AFFINITY PREDICTED BY RF-SCORE:    0.00 PKD
ROOT
HETATM    1  C   UNL     1      -7.149   5.426  71.048  1.00  0.00    -0.068 C  
HETATM    2  C   UNL     1      -7.926   6.631  71.581  1.00  0.00    -0.103 C  
ENDROOT
BRANCH   2   3
HETATM    3  C   UNL     1      -8.822   7.379  70.603  1.00  0.00    -0.150 A  
HETATM    4  C   UNL     1      -9.339   8.626  70.994  1.00  0.00    -0.254 A  
HETATM    5  C   UNL     1     -10.080   9.436  70.129  1.00  0.00    -0.273 A  
HETATM    6  C   UNL     1     -10.368   9.008  68.826  1.00  0.00    -0.236 A  
HETATM    7  C   UNL     1      -9.883   7.742  68.453  1.00  0.00    -0.180 A  
HETATM    8  C   UNL     1     -11.144   9.875  67.814  1.00  0.00    -0.196 C  
HETATM    9  C   UNL     1      -9.093   6.917  69.290  1.00  0.00    -0.140 A  
HETATM   10  C   UNL     1     -10.233  10.194  66.607  1.00  0.00    -0.287 C  
HETATM   11  C   UNL     1     -11.564  11.173  68.463  1.00  0.00    -0.314 A  
HETATM   12  C   UNL     1     -12.401   9.115  67.336  1.00  0.00     7.159 C  
HETATM   13  N   UNL     1     -14.387  17.576  69.473  1.00  0.00    12.288 NA 
HETATM   14  C   UNL     1     -11.273  11.577  69.749  1.00  0.00    -0.237 A  
HETATM   15  C   UNL     1     -11.858  13.759  71.031  1.00  0.00    -0.063 A  
HETATM   16  C   UNL     1     -10.515  10.757  70.661  1.00  0.00     1.036 C  
HETATM   17  C   UNL     1     -11.834  12.861  69.946  1.00  0.00    -0.373 A  
HETATM   18  O   UNL     1     -10.235  11.112  71.802  1.00  0.00     5.348 OA 
HETATM   19  C   UNL     1     -12.520  14.980  70.896  1.00  0.00    -0.407 A  
HETATM   20  C   UNL     1     -12.472  13.212  68.756  1.00  0.00     0.383 A  
HETATM   21  C   UNL     1     -13.143  14.431  68.602  1.00  0.00     2.137 A  
HETATM   22  N   UNL     1     -12.295  12.172  67.870  1.00  0.00    -0.143 NA 
HETATM   23  C   UNL     1     -13.832  16.565  69.578  1.00  0.00     5.896 C  
HETATM   24  C   UNL     1     -13.158  15.310  69.697  1.00  0.00     0.488 A  
HETATM   25  H   UNL     1     -12.653  12.147  66.916  1.00  0.00     0.000 HD 
BRANCH   9  26
HETATM   26  N   UNL     1      -8.546   5.757  68.762  1.00  0.00    -0.109 NA 
HETATM   27  C   UNL     1      -8.039   4.622  66.708  1.00  0.00    -0.103 C  
HETATM   28  C   UNL     1      -7.631   5.779  67.620  1.00  0.00    -0.089 C  
HETATM   29  C   UNL     1      -7.884   3.272  67.450  1.00  0.00    -0.077 C  
HETATM   30  C   UNL     1      -8.410   4.546  69.585  1.00  0.00    -0.069 C  
HETATM   31  C   UNL     1      -8.768   3.344  68.716  1.00  0.00    -0.143 C  
BRANCH  29  32
HETATM   32  N   UNL     1      -6.458   2.958  67.757  1.00  0.00    -0.035 NA 
HETATM   33  C   UNL     1      -5.536   4.089  67.485  1.00  0.00    -0.017 C  
HETATM   34  C   UNL     1      -5.745   5.277  68.439  1.00  0.00    -0.016 C  
HETATM   35  O   UNL     1      -5.596   4.880  69.810  1.00  0.00    -0.011 OA 
HETATM   36  C   UNL     1      -6.452   3.778  70.140  1.00  0.00    -0.032 C  
HETATM   37  C   UNL     1      -6.238   2.595  69.180  1.00  0.00    -0.028 C  
ENDBRANCH  29  32
ENDBRANCH   9  26
ENDBRANCH   2   3
TORSDOF 3
ENDMDL
MODEL       87
REMARK 921   NORMALIZED FREE ENERGY PREDICTED BY IDOCK:   44.25 KCAL/MOL
REMARK 922        TOTAL FREE ENERGY PREDICTED BY IDOCK:   51.09 KCAL/MOL
REMARK 923 INTER-LIGAND FREE ENERGY PREDICTED BY IDOCK:   35.94 KCAL/MOL
REMARK 924 INTRA-LIGAND FREE ENERGY PREDICTED BY IDOCK:   15.16 KCAL/MOL
REMARK 927      BINDING AFFINITY PREDICTED BY RF-SCORE:    0.00 PKD
ROOT
HETATM    1  C   UNL     1      -8.648   4.829  63.535  1.00  0.00    -0.132 C  
HETATM    2  C   UNL     1      -8.096   6.155  64.061  1.00  0.00    -0.074 C  
ENDROOT
BRANCH   2   3
HETATM    3  C   UNL     1      -8.803   6.790  65.251  1.00  0.00     0.146 A  
HETATM    4  C   UNL     1      -8.570   8.151  65.516  1.00  0.00    -0.173 A  
HETATM    5  C   UNL     1      -9.253   8.849  66.516  1.00  0.00    -0.231 A  
HETATM    6  C   UNL     1     -10.188   8.193  67.328  1.00  0.00    -0.348 A  
HETATM    7  C   UNL     1     -10.388   6.823  67.086  1.00  0.00    -0.327 A  
HETATM    8  C   UNL     1     -11.002   8.919  68.419  1.00  0.00     0.071 C  
HETATM    9  C   UNL     1      -9.746   6.098  66.053  1.00  0.00     0.087 A  
HETATM   10  C   UNL     1     -12.506   8.844  68.071  1.00  0.00     6.746 C  
HETATM   11  C   UNL     1     -10.592  10.371  68.487  1.00  0.00    -0.209 A  
HETATM   12  C   UNL     1     -10.746   8.252  69.788  1.00  0.00    -0.221 C  
HETATM   13  N   UNL     1     -10.214  17.164  70.410  1.00  0.00     0.899 NA 
HETATM   14  C   UNL     1      -9.666  10.999  67.680  1.00  0.00    -0.184 A  
HETATM   15  C   UNL     1      -8.853  13.465  67.607  1.00  0.00    -0.200 A  
HETATM   16  C   UNL     1      -8.946  10.300  66.646  1.00  0.00    -0.140 C  
HETATM   17  C   UNL     1      -9.597  12.360  68.063  1.00  0.00    -0.211 A  
HETATM   18  O   UNL     1      -8.133  10.850  65.910  1.00  0.00    -0.160 OA 
HETATM   19  C   UNL     1      -9.023  14.707  68.221  1.00  0.00    -0.184 A  
HETATM   20  C   UNL     1     -10.492  12.530  69.120  1.00  0.00     0.110 A  
HETATM   21  C   UNL     1     -10.675  13.766  69.749  1.00  0.00     0.282 A  
HETATM   22  N   UNL     1     -11.084  11.308  69.360  1.00  0.00    -0.280 NA 
HETATM   23  C   UNL     1     -10.080  16.134  69.899  1.00  0.00    -0.074 C  
HETATM   24  C   UNL     1      -9.920  14.854  69.282  1.00  0.00    -0.181 A  
HETATM   25  H   UNL     1     -11.785  11.128  70.078  1.00  0.00     0.000 HD 
BRANCH   9  26
HETATM   26  N   UNL     1     -10.133   4.788  65.814  1.00  0.00    -0.217 NA 
HETATM   27  C   UNL     1     -10.768   2.735  66.887  1.00  0.00     4.278 C  
HETATM   28  C   UNL     1     -11.228   4.154  66.551  1.00  0.00     2.951 C  
HETATM   29  C   UNL     1     -10.507   1.934  65.587  1.00  0.00     2.226 C  
HETATM   30  C   UNL     1      -9.867   4.148  64.517  1.00  0.00    -0.162 C  
HETATM   31  C   UNL     1      -9.439   2.708  64.782  1.00  0.00    -0.116 C  
BRANCH  29  32
HETATM   32  N   UNL     1     -11.758   1.696  64.811  1.00  0.00     3.051 NA 
HETATM   33  C   UNL     1     -12.781   2.754  65.006  1.00  0.00    13.093 C  
HETATM   34  C   UNL     1     -12.365   4.108  64.409  1.00  0.00     4.503 C  
HETATM   35  O   UNL     1     -12.079   3.997  63.007  1.00  0.00     1.298 OA 
HETATM   36  C   UNL     1     -11.105   2.979  62.743  1.00  0.00    -0.052 C  
HETATM   37  C   UNL     1     -11.526   1.629  63.346  1.00  0.00     0.071 C  
ENDBRANCH  29  32
ENDBRANCH   9  26
ENDBRANCH   2   3
TORSDOF 3
ENDMDL
MODEL       88
REMARK 921   NORMALIZED FREE ENERGY PREDICTED BY IDOCK:   50.12 KCAL/MOL
REMARK 922        TOTAL FREE ENERGY PREDICTED BY IDOCK:   57.99 KCAL/MOL
REMARK 923 INTER-LIGAND FREE ENERGY PREDICTED BY IDOCK:   51.30 KCAL/MOL
REMARK 924 INTRA-LIGAND FREE ENERGY PREDICTED BY IDOCK:    6.69 KCAL/MOL
REMARK 927      BINDING AFFINITY PREDICTED BY RF-SCORE:    0.00 PKD
ROOT
HETATM    1  C   UNL     1     -10.245  10.974  63.290  1.00  0.00    -0.360 C  
HETATM    2  C   UNL     1     -11.218  11.701  64.219  1.00  0.00    -0.392 C  
ENDROOT
BRANCH   2   3
HETATM    3  C   UNL     1     -10.726  12.058  65.615  1.00  0.00    -0.313 A  
HETATM    4  C   UNL     1     -10.578  13.417  65.942  1.00  0.00    -0.286 A  
HETATM    5  C   UNL     1     -10.238  13.847  67.227  1.00  0.00    -0.249 A  
HETATM    6  C   UNL     1      -9.993  12.917  68.246  1.00  0.00    -0.234 A  
HETATM    7  C   UNL     1     -10.101  11.558  67.904  1.00  0.00    -0.202 A  
HETATM    8  C   UNL     1      -9.654  13.332  69.693  1.00  0.00     1.548 C  
HETATM    9  C   UNL     1     -10.487  11.091  66.625  1.00  0.00    -0.256 A  
HETATM   10  C   UNL     1     -10.759  12.822  70.645  1.00  0.00     2.988 C  
HETATM   11  C   UNL     1      -9.583  14.838  69.793  1.00  0.00     0.255 A  
HETATM   12  C   UNL     1      -8.291  12.730  70.100  1.00  0.00     3.767 C  
HETATM   13  N   UNL     1      -8.790  21.370  72.379  1.00  0.00     2.886 NA 
HETATM   14  C   UNL     1      -9.825  15.739  68.777  1.00  0.00    -0.214 A  
HETATM   15  C   UNL     1      -9.796  18.336  68.750  1.00  0.00    -0.377 A  
HETATM   16  C   UNL     1     -10.174  15.319  67.443  1.00  0.00    -0.243 C  
HETATM   17  C   UNL     1      -9.672  17.045  69.300  1.00  0.00    -0.083 A  
HETATM   18  O   UNL     1     -10.409  16.110  66.535  1.00  0.00    -0.293 OA 
HETATM   19  C   UNL     1      -9.568  19.450  69.559  1.00  0.00    -0.032 A  
HETATM   20  C   UNL     1      -9.325  16.907  70.644  1.00  0.00     3.432 A  
HETATM   21  C   UNL     1      -9.090  18.012  71.470  1.00  0.00     9.520 A  
HETATM   22  N   UNL     1      -9.277  15.557  70.921  1.00  0.00     1.180 NA 
HETATM   23  C   UNL     1      -8.985  20.443  71.713  1.00  0.00     2.372 C  
HETATM   24  C   UNL     1      -9.216  19.290  70.901  1.00  0.00     2.841 A  
HETATM   25  H   UNL     1      -9.048  15.153  71.829  1.00  0.00     0.000 HD 
BRANCH   9  26
HETATM   26  N   UNL     1     -10.706   9.733  66.446  1.00  0.00    -0.025 NA 
HETATM   27  C   UNL     1     -12.319   8.120  65.694  1.00  0.00    13.464 C  
HETATM   28  C   UNL     1     -11.339   9.200  65.238  1.00  0.00     5.971 C  
HETATM   29  C   UNL     1     -11.561   6.975  66.411  1.00  0.00     2.468 C  
HETATM   30  C   UNL     1      -9.886   8.737  67.151  1.00  0.00    -0.207 C  
HETATM   31  C   UNL     1     -10.805   7.605  67.602  1.00  0.00    -0.171 C  
BRANCH  29  32
HETATM   32  N   UNL     1     -10.661   6.229  65.484  1.00  0.00     1.745 NA 
HETATM   33  C   UNL     1      -9.480   7.016  65.050  1.00  0.00     1.392 C  
HETATM   34  C   UNL     1      -8.491   7.295  66.193  1.00  0.00    -0.142 C  
HETATM   35  O   UNL     1      -8.035   6.077  66.800  1.00  0.00    -0.100 OA 
HETATM   36  C   UNL     1      -9.129   5.257  67.232  1.00  0.00    -0.112 C  
HETATM   37  C   UNL     1     -10.114   4.985  66.084  1.00  0.00    -0.236 C  
ENDBRANCH  29  32
ENDBRANCH   9  26
ENDBRANCH   2   3
TORSDOF 3
ENDMDL
MODEL       89
REMARK 921   NORMALIZED FREE ENERGY PREDICTED BY IDOCK:   52.24 KCAL/MOL
REMARK 922        TOTAL FREE ENERGY PREDICTED BY IDOCK:   60.49 KCAL/MOL
REMARK 923 INTER-LIGAND FREE ENERGY PREDICTED BY IDOCK:   55.45 KCAL/MOL
REMARK 924 INTRA-LIGAND FREE ENERGY PREDICTED BY IDOCK:    5.04 KCAL/MOL
REMARK 927      BINDING AFFINITY PREDICTED BY RF-SCORE:    0.00 PKD
ROOT
HETATM    1  C   UNL     1     -11.402  14.621  67.418  1.00  0.00    -0.368 C  
HETATM    2  C   UNL     1     -10.291  13.570  67.423  1.00  0.00    -0.237 C  
ENDROOT
BRANCH   2   3
HETATM    3  C   UNL     1     -10.061  12.793  68.712  1.00  0.00    -0.057 A  
HETATM    4  C   UNL     1     -10.474  11.450  68.763  1.00  0.00    -0.228 A  
HETATM    5  C   UNL     1     -10.209  10.625  69.860  1.00  0.00    -0.011 A  
HETATM    6  C   UNL     1      -9.541  11.129  70.984  1.00  0.00     5.441 A  
HETATM    7  C   UNL     1      -9.167  12.484  70.945  1.00  0.00     9.913 A  
HETATM    8  C   UNL     1      -9.185  10.257  72.206  1.00  0.00     6.859 C  
HETATM    9  C   UNL     1      -9.380  13.333  69.832  1.00  0.00     2.589 A  
HETATM   10  C   UNL     1      -7.649  10.197  72.363  1.00  0.00     4.090 C  
HETATM   11  C   UNL     1      -9.708   8.854  72.006  1.00  0.00    -0.234 A  
HETATM   12  C   UNL     1      -9.820  10.861  73.477  1.00  0.00    17.764 C  
HETATM   13  N   UNL     1     -11.221   2.030  73.076  1.00  0.00    -0.099 NA 
HETATM   14  C   UNL     1     -10.367   8.376  70.892  1.00  0.00    -0.234 A  
HETATM   15  C   UNL     1     -11.302   6.016  70.338  1.00  0.00    -0.322 A  
HETATM   16  C   UNL     1     -10.655   9.208  69.751  1.00  0.00    -0.229 C  
HETATM   17  C   UNL     1     -10.663   7.009  71.107  1.00  0.00    -0.253 A  
HETATM   18  O   UNL     1     -11.224   8.791  68.747  1.00  0.00     0.167 OA 
HETATM   19  C   UNL     1     -11.439   4.729  70.858  1.00  0.00     2.119 A  
HETATM   20  C   UNL     1     -10.176   6.682  72.373  1.00  0.00    -0.180 A  
HETATM   21  C   UNL     1     -10.305   5.397  72.912  1.00  0.00    -0.231 A  
HETATM   22  N   UNL     1      -9.601   7.818  72.900  1.00  0.00    -0.215 NA 
HETATM   23  C   UNL     1     -11.099   3.099  72.646  1.00  0.00     0.341 C  
HETATM   24  C   UNL     1     -10.949   4.423  72.131  1.00  0.00     0.184 A  
HETATM   25  H   UNL     1      -9.160   7.881  73.817  1.00  0.00     0.000 HD 
BRANCH   9  26
HETATM   26  N   UNL     1      -8.834  14.608  69.850  1.00  0.00     0.462 NA 
HETATM   27  C   UNL     1      -6.927  15.902  69.175  1.00  0.00    -0.176 C  
HETATM   28  C   UNL     1      -8.185  15.192  68.675  1.00  0.00    -0.154 C  
HETATM   29  C   UNL     1      -7.306  17.039  70.156  1.00  0.00     1.494 C  
HETATM   30  C   UNL     1      -9.313  15.620  70.804  1.00  0.00     1.802 C  
HETATM   31  C   UNL     1      -8.101  16.395  71.315  1.00  0.00     6.212 C  
BRANCH  29  32
HETATM   32  N   UNL     1      -8.055  18.139  69.482  1.00  0.00     0.435 NA 
HETATM   33  C   UNL     1      -7.181  19.059  68.713  1.00  0.00    -0.323 C  
HETATM   34  C   UNL     1      -6.544  18.394  67.482  1.00  0.00    -0.196 C  
HETATM   35  O   UNL     1      -7.541  17.861  66.599  1.00  0.00    -0.205 OA 
HETATM   36  C   UNL     1      -8.433  16.970  67.282  1.00  0.00    -0.194 C  
HETATM   37  C   UNL     1      -9.064  17.642  68.512  1.00  0.00    -0.279 C  
ENDBRANCH  29  32
ENDBRANCH   9  26
ENDBRANCH   2   3
TORSDOF 3
ENDMDL
MODEL       90
REMARK 921   NORMALIZED FREE ENERGY PREDICTED BY IDOCK:   54.49 KCAL/MOL
REMARK 922        TOTAL FREE ENERGY PREDICTED BY IDOCK:   63.12 KCAL/MOL
REMARK 923 INTER-LIGAND FREE ENERGY PREDICTED BY IDOCK:   55.88 KCAL/MOL
REMARK 924 INTRA-LIGAND FREE ENERGY PREDICTED BY IDOCK:    7.25 KCAL/MOL
REMARK 927      BINDING AFFINITY PREDICTED BY RF-SCORE:    0.00 PKD
ROOT
HETATM    1  C   UNL     1      -5.498  13.473  67.538  1.00  0.00     0.073 C  
HETATM    2  C   UNL     1      -6.828  13.466  68.293  1.00  0.00    -0.106 C  
ENDROOT
BRANCH   2   3
HETATM    3  C   UNL     1      -8.038  12.870  67.585  1.00  0.00    -0.167 A  
HETATM    4  C   UNL     1      -8.069  11.481  67.375  1.00  0.00    -0.146 A  
HETATM    5  C   UNL     1      -9.180  10.829  66.834  1.00  0.00    -0.172 A  
HETATM    6  C   UNL     1     -10.311  11.558  66.441  1.00  0.00    -0.277 A  
HETATM    7  C   UNL     1     -10.259  12.952  66.614  1.00  0.00    -0.251 A  
HETATM    8  C   UNL     1     -11.582  10.890  65.876  1.00  0.00     0.836 C  
HETATM    9  C   UNL     1      -9.167  13.638  67.201  1.00  0.00    -0.244 A  
HETATM   10  C   UNL     1     -12.770  11.166  66.824  1.00  0.00     4.818 C  
HETATM   11  C   UNL     1     -11.377   9.396  65.776  1.00  0.00     3.338 A  
HETATM   12  C   UNL     1     -11.886  11.457  64.472  1.00  0.00     0.131 C  
HETATM   13  N   UNL     1     -12.500   2.529  64.526  1.00  0.00     6.500 NA 
HETATM   14  C   UNL     1     -10.254   8.695  66.166  1.00  0.00     0.028 A  
HETATM   15  C   UNL     1      -9.722   6.154  66.117  1.00  0.00    -0.040 A  
HETATM   16  C   UNL     1      -9.095   9.346  66.723  1.00  0.00    -0.140 C  
HETATM   17  C   UNL     1     -10.485   7.321  65.920  1.00  0.00     1.476 A  
HETATM   18  O   UNL     1      -8.097   8.733  67.090  1.00  0.00    -0.099 OA 
HETATM   19  C   UNL     1     -10.255   4.916  65.755  1.00  0.00    -0.207 A  
HETATM   20  C   UNL     1     -11.762   7.216  65.368  1.00  0.00     8.383 A  
HETATM   21  C   UNL     1     -12.313   5.984  64.997  1.00  0.00     6.836 A  
HETATM   22  N   UNL     1     -12.284   8.489  65.290  1.00  0.00    11.690 NA 
HETATM   23  C   UNL     1     -12.063   3.556  64.832  1.00  0.00     5.204 C  
HETATM   24  C   UNL     1     -11.534   4.833  65.198  1.00  0.00     0.759 A  
HETATM   25  H   UNL     1     -13.208   8.722  64.926  1.00  0.00     0.000 HD 
BRANCH   9  26
HETATM   26  N   UNL     1      -9.289  14.995  67.458  1.00  0.00    -0.193 NA 
HETATM   27  C   UNL     1     -10.788  16.864  67.293  1.00  0.00    -0.131 C  
HETATM   28  C   UNL     1     -10.499  15.568  68.050  1.00  0.00    -0.259 C  
HETATM   29  C   UNL     1      -9.619  17.863  67.474  1.00  0.00    -0.269 C  
HETATM   30  C   UNL     1      -8.099  15.835  67.657  1.00  0.00    -0.147 C  
HETATM   31  C   UNL     1      -8.341  17.167  66.953  1.00  0.00    -0.252 C  
BRANCH  29  32
HETATM   32  N   UNL     1      -9.490  18.331  68.884  1.00  0.00    -0.265 NA 
HETATM   33  C   UNL     1     -10.699  19.033  69.383  1.00  0.00     1.137 C  
HETATM   34  C   UNL     1     -11.914  18.103  69.534  1.00  0.00     6.292 C  
HETATM   35  O   UNL     1     -11.626  17.003  70.409  1.00  0.00     0.561 OA 
HETATM   36  C   UNL     1     -10.457  16.285  69.993  1.00  0.00    -0.164 C  
HETATM   37  C   UNL     1      -9.247  17.222  69.842  1.00  0.00     1.340 C  
ENDBRANCH  29  32
ENDBRANCH   9  26
ENDBRANCH   2   3
TORSDOF 3
ENDMDL
MODEL       91
REMARK 921   NORMALIZED FREE ENERGY PREDICTED BY IDOCK:   56.30 KCAL/MOL
REMARK 922        TOTAL FREE ENERGY PREDICTED BY IDOCK:   65.25 KCAL/MOL
REMARK 923 INTER-LIGAND FREE ENERGY PREDICTED BY IDOCK:   56.28 KCAL/MOL
REMARK 924 INTRA-LIGAND FREE ENERGY PREDICTED BY IDOCK:    8.98 KCAL/MOL
REMARK 927      BINDING AFFINITY PREDICTED BY RF-SCORE:    0.00 PKD
ROOT
HETATM    1  C   UNL     1     -11.929  15.736  67.374  1.00  0.00     0.567 C  
HETATM    2  C   UNL     1     -11.058  15.618  68.626  1.00  0.00    -0.317 C  
ENDROOT
BRANCH   2   3
HETATM    3  C   UNL     1     -10.857  14.228  69.216  1.00  0.00    -0.241 A  
HETATM    4  C   UNL     1     -10.396  13.206  68.369  1.00  0.00    -0.257 A  
HETATM    5  C   UNL     1     -10.078  11.929  68.839  1.00  0.00    -0.060 A  
HETATM    6  C   UNL     1     -10.244  11.607  70.193  1.00  0.00     1.705 A  
HETATM    7  C   UNL     1     -10.744  12.621  71.028  1.00  0.00     4.538 A  
HETATM    8  C   UNL     1      -9.872  10.229  70.776  1.00  0.00     0.805 C  
HETATM    9  C   UNL     1     -11.033  13.937  70.593  1.00  0.00     0.993 A  
HETATM   10  C   UNL     1      -8.747  10.402  71.822  1.00  0.00     5.631 C  
HETATM   11  C   UNL     1      -9.376   9.320  69.676  1.00  0.00    -0.179 A  
HETATM   12  C   UNL     1     -11.112   9.593  71.440  1.00  0.00    -0.397 C  
HETATM   13  N   UNL     1      -6.868   3.670  66.245  1.00  0.00    -0.056 NA 
HETATM   14  C   UNL     1      -9.221   9.654  68.346  1.00  0.00    -0.133 A  
HETATM   15  C   UNL     1      -8.358   8.270  66.324  1.00  0.00    -0.124 A  
HETATM   16  C   UNL     1      -9.547  10.963  67.837  1.00  0.00    -0.166 C  
HETATM   17  C   UNL     1      -8.713   8.523  67.664  1.00  0.00    -0.136 A  
HETATM   18  O   UNL     1      -9.398  11.278  66.661  1.00  0.00    -0.173 OA 
HETATM   19  C   UNL     1      -7.878   7.009  65.968  1.00  0.00    -0.104 A  
HETATM   20  C   UNL     1      -8.577   7.506  68.609  1.00  0.00    -0.129 A  
HETATM   21  C   UNL     1      -8.099   6.235  68.271  1.00  0.00    -0.112 A  
HETATM   22  N   UNL     1      -8.985   8.014  69.823  1.00  0.00    -0.144 NA 
HETATM   23  C   UNL     1      -7.261   4.717  66.545  1.00  0.00    -0.080 C  
HETATM   24  C   UNL     1      -7.753   6.003  66.929  1.00  0.00    -0.100 A  
HETATM   25  H   UNL     1      -8.994   7.495  70.701  1.00  0.00     0.000 HD 
BRANCH   9  26
HETATM   26  N   UNL     1     -11.378  14.894  71.536  1.00  0.00    -0.261 NA 
HETATM   27  C   UNL     1     -10.563  16.110  73.439  1.00  0.00     4.598 C  
HETATM   28  C   UNL     1     -10.464  15.970  71.921  1.00  0.00     2.039 C  
HETATM   29  C   UNL     1     -12.004  16.503  73.850  1.00  0.00    -0.205 C  
HETATM   30  C   UNL     1     -12.788  15.213  71.806  1.00  0.00    -0.355 C  
HETATM   31  C   UNL     1     -12.947  15.404  73.311  1.00  0.00    -0.648 C  
BRANCH  29  32
HETATM   32  N   UNL     1     -12.372  17.867  73.372  1.00  0.00     2.355 NA 
HETATM   33  C   UNL     1     -11.592  18.307  72.189  1.00  0.00     4.391 C  
HETATM   34  C   UNL     1     -11.916  17.499  70.922  1.00  0.00     4.534 C  
HETATM   35  O   UNL     1     -13.313  17.563  70.602  1.00  0.00     9.885 OA 
HETATM   36  C   UNL     1     -14.131  17.164  71.710  1.00  0.00     8.591 C  
HETATM   37  C   UNL     1     -13.799  17.975  72.973  1.00  0.00    10.020 C  
ENDBRANCH  29  32
ENDBRANCH   9  26
ENDBRANCH   2   3
TORSDOF 3
ENDMDL
MODEL       92
REMARK 921   NORMALIZED FREE ENERGY PREDICTED BY IDOCK:   57.83 KCAL/MOL
REMARK 922        TOTAL FREE ENERGY PREDICTED BY IDOCK:   67.05 KCAL/MOL
REMARK 923 INTER-LIGAND FREE ENERGY PREDICTED BY IDOCK:   58.52 KCAL/MOL
REMARK 924 INTRA-LIGAND FREE ENERGY PREDICTED BY IDOCK:    8.53 KCAL/MOL
REMARK 927      BINDING AFFINITY PREDICTED BY RF-SCORE:    0.00 PKD
ROOT
HETATM    1  C   UNL     1     -11.028   9.444  72.722  1.00  0.00     1.968 C  
HETATM    2  C   UNL     1      -9.503   9.466  72.607  1.00  0.00     2.112 C  
ENDROOT
BRANCH   2   3
HETATM    3  C   UNL     1      -8.899   9.314  71.218  1.00  0.00    -0.057 A  
HETATM    4  C   UNL     1      -8.999   8.066  70.581  1.00  0.00    -0.148 A  
HETATM    5  C   UNL     1      -8.573   7.858  69.266  1.00  0.00    -0.138 A  
HETATM    6  C   UNL     1      -7.986   8.900  68.536  1.00  0.00    -0.104 A  
HETATM    7  C   UNL     1      -7.850  10.136  69.192  1.00  0.00    -0.120 A  
HETATM    8  C   UNL     1      -7.534   8.741  67.069  1.00  0.00    -0.091 C  
HETATM    9  C   UNL     1      -8.312  10.391  70.506  1.00  0.00     1.184 A  
HETATM   10  C   UNL     1      -8.352   9.701  66.175  1.00  0.00    -0.122 C  
HETATM   11  C   UNL     1      -7.774   7.323  66.607  1.00  0.00    -0.101 A  
HETATM   12  C   UNL     1      -6.030   9.068  66.951  1.00  0.00    -0.056 C  
HETATM   13  N   UNL     1      -8.028   1.523  62.572  1.00  0.00    -0.050 NA 
HETATM   14  C   UNL     1      -8.351   6.308  67.342  1.00  0.00    -0.109 A  
HETATM   15  C   UNL     1      -8.885   3.841  66.729  1.00  0.00    -0.132 A  
HETATM   16  C   UNL     1      -8.795   6.498  68.700  1.00  0.00    -0.121 C  
HETATM   17  C   UNL     1      -8.406   5.151  66.530  1.00  0.00    -0.108 A  
HETATM   18  O   UNL     1      -9.326   5.609  69.360  1.00  0.00    -0.122 OA 
HETATM   19  C   UNL     1      -8.784   2.910  65.695  1.00  0.00    -0.127 A  
HETATM   20  C   UNL     1      -7.843   5.491  65.300  1.00  0.00    -0.095 A  
HETATM   21  C   UNL     1      -7.732   4.571  64.252  1.00  0.00    -0.077 A  
HETATM   22  N   UNL     1      -7.466   6.815  65.370  1.00  0.00    -0.080 NA 
HETATM   23  C   UNL     1      -8.116   2.301  63.425  1.00  0.00    -0.073 C  
HETATM   24  C   UNL     1      -8.211   3.269  64.473  1.00  0.00    -0.090 A  
HETATM   25  H   UNL     1      -7.025   7.340  64.615  1.00  0.00     0.000 HD 
BRANCH   9  26
HETATM   26  N   UNL     1      -8.258  11.688  70.994  1.00  0.00     6.115 NA 
HETATM   27  C   UNL     1      -8.063  12.989  73.003  1.00  0.00    15.461 C  
HETATM   28  C   UNL     1      -7.303  12.092  72.026  1.00  0.00     9.965 C  
HETATM   29  C   UNL     1      -8.581  14.255  72.276  1.00  0.00     8.462 C  
HETATM   30  C   UNL     1      -8.743  12.818  70.186  1.00  0.00     4.204 C  
HETATM   31  C   UNL     1      -9.482  13.776  71.115  1.00  0.00     6.924 C  
BRANCH  29  32
HETATM   32  N   UNL     1      -7.469  15.138  71.820  1.00  0.00     3.034 NA 
HETATM   33  C   UNL     1      -6.151  14.456  71.793  1.00  0.00     0.224 C  
HETATM   34  C   UNL     1      -6.062  13.361  70.718  1.00  0.00     0.029 C  
HETATM   35  O   UNL     1      -6.336  13.887  69.411  1.00  0.00    -0.099 OA 
HETATM   36  C   UNL     1      -7.593  14.574  69.367  1.00  0.00    -0.033 C  
HETATM   37  C   UNL     1      -7.674  15.665  70.447  1.00  0.00     1.086 C  
ENDBRANCH  29  32
ENDBRANCH   9  26
ENDBRANCH   2   3
TORSDOF 3
ENDMDL
MODEL       93
REMARK 921   NORMALIZED FREE ENERGY PREDICTED BY IDOCK:   75.34 KCAL/MOL
REMARK 922        TOTAL FREE ENERGY PREDICTED BY IDOCK:   87.64 KCAL/MOL
REMARK 923 INTER-LIGAND FREE ENERGY PREDICTED BY IDOCK:   78.75 KCAL/MOL
REMARK 924 INTRA-LIGAND FREE ENERGY PREDICTED BY IDOCK:    8.89 KCAL/MOL
REMARK 927      BINDING AFFINITY PREDICTED BY RF-SCORE:    0.00 PKD
ROOT
HETATM    1  C   UNL     1     -12.702  17.244  68.117  1.00  0.00     4.408 C  
HETATM    2  C   UNL     1     -12.995  16.109  69.100  1.00  0.00     1.927 C  
ENDROOT
BRANCH   2   3
HETATM    3  C   UNL     1     -11.922  15.045  69.289  1.00  0.00    -0.322 A  
HETATM    4  C   UNL     1     -12.116  13.789  68.690  1.00  0.00    -0.333 A  
HETATM    5  C   UNL     1     -11.141  12.787  68.714  1.00  0.00    -0.303 A  
HETATM    6  C   UNL     1      -9.927  12.993  69.382  1.00  0.00     0.755 A  
HETATM    7  C   UNL     1      -9.754  14.236  70.015  1.00  0.00     1.084 A  
HETATM    8  C   UNL     1      -8.799  11.941  69.409  1.00  0.00     0.937 C  
HETATM    9  C   UNL     1     -10.702  15.287  69.971  1.00  0.00    -0.279 A  
HETATM   10  C   UNL     1      -7.546  12.515  68.709  1.00  0.00    -0.024 C  
HETATM   11  C   UNL     1      -9.238  10.696  68.674  1.00  0.00    -0.181 A  
HETATM   12  C   UNL     1      -8.463  11.577  70.871  1.00  0.00     6.770 C  
HETATM   13  N   UNL     1      -9.251   4.222  65.834  1.00  0.00    -0.136 NA 
HETATM   14  C   UNL     1     -10.441  10.510  68.024  1.00  0.00    -0.232 A  
HETATM   15  C   UNL     1     -11.366   8.487  66.683  1.00  0.00     2.066 A  
HETATM   16  C   UNL     1     -11.462  11.527  67.988  1.00  0.00    -0.311 C  
HETATM   17  C   UNL     1     -10.437   9.216  67.452  1.00  0.00    -0.339 A  
HETATM   18  O   UNL     1     -12.528  11.381  67.399  1.00  0.00     0.375 OA 
HETATM   19  C   UNL     1     -11.046   7.194  66.267  1.00  0.00     1.467 A  
HETATM   20  C   UNL     1      -9.215   8.630  67.780  1.00  0.00    -0.134 A  
HETATM   21  C   UNL     1      -8.877   7.335  67.373  1.00  0.00    -0.119 A  
HETATM   22  N   UNL     1      -8.503   9.548  68.522  1.00  0.00    -0.118 NA 
HETATM   23  C   UNL     1      -9.509   5.297  66.176  1.00  0.00    -0.158 C  
HETATM   24  C   UNL     1      -9.818   6.624  66.611  1.00  0.00    -0.208 A  
HETATM   25  H   UNL     1      -7.569   9.396  68.902  1.00  0.00     0.000 HD 
BRANCH   9  26
HETATM   26  N   UNL     1     -10.359  16.521  70.504  1.00  0.00     0.483 NA 
HETATM   27  C   UNL     1      -9.334  18.630  69.988  1.00  0.00     1.351 C  
HETATM   28  C   UNL     1     -10.580  17.771  69.776  1.00  0.00     0.705 C  
HETATM   29  C   UNL     1      -9.152  18.951  71.492  1.00  0.00     6.385 C  
HETATM   30  C   UNL     1     -10.262  16.713  71.959  1.00  0.00     4.694 C  
HETATM   31  C   UNL     1      -9.052  17.600  72.236  1.00  0.00    13.898 C  
BRANCH  29  32
HETATM   32  N   UNL     1     -10.242  19.822  72.018  1.00  0.00     2.812 NA 
HETATM   33  C   UNL     1     -10.388  21.096  71.271  1.00  0.00     4.514 C  
HETATM   34  C   UNL     1     -10.895  20.895  69.834  1.00  0.00     1.676 C  
HETATM   35  O   UNL     1     -12.152  20.203  69.814  1.00  0.00     5.362 OA 
HETATM   36  C   UNL     1     -12.087  18.964  70.532  1.00  0.00    12.179 C  
HETATM   37  C   UNL     1     -11.577  19.174  71.967  1.00  0.00     8.104 C  
ENDBRANCH  29  32
ENDBRANCH   9  26
ENDBRANCH   2   3
TORSDOF 3
ENDMDL
MODEL       94
REMARK 921   NORMALIZED FREE ENERGY PREDICTED BY IDOCK:   77.08 KCAL/MOL
REMARK 922        TOTAL FREE ENERGY PREDICTED BY IDOCK:   89.68 KCAL/MOL
REMARK 923 INTER-LIGAND FREE ENERGY PREDICTED BY IDOCK:   80.67 KCAL/MOL
REMARK 924 INTRA-LIGAND FREE ENERGY PREDICTED BY IDOCK:    9.02 KCAL/MOL
REMARK 927      BINDING AFFINITY PREDICTED BY RF-SCORE:    0.00 PKD
ROOT
HETATM    1  C   UNL     1     -11.914  15.749  67.381  1.00  0.00     0.567 C  
HETATM    2  C   UNL     1     -10.865  15.326  68.412  1.00  0.00    -0.257 C  
ENDROOT
BRANCH   2   3
HETATM    3  C   UNL     1     -10.796  13.851  68.783  1.00  0.00    -0.282 A  
HETATM    4  C   UNL     1     -10.937  12.899  67.759  1.00  0.00    -0.269 A  
HETATM    5  C   UNL     1     -10.780  11.529  67.982  1.00  0.00    -0.241 A  
HETATM    6  C   UNL     1     -10.507  11.044  69.268  1.00  0.00    -0.210 A  
HETATM    7  C   UNL     1     -10.409  11.997  70.297  1.00  0.00     2.367 A  
HETATM    8  C   UNL     1     -10.284   9.547  69.568  1.00  0.00    -0.225 C  
HETATM    9  C   UNL     1     -10.517  13.394  70.096  1.00  0.00     1.593 A  
HETATM   10  C   UNL     1      -8.846   9.340  70.096  1.00  0.00    -0.235 C  
HETATM   11  C   UNL     1     -10.459   8.738  68.304  1.00  0.00    -0.187 A  
HETATM   12  C   UNL     1     -11.305   9.071  70.623  1.00  0.00    -0.311 C  
HETATM   13  N   UNL     1     -10.807   3.294  63.806  1.00  0.00    -0.240 NA 
HETATM   14  C   UNL     1     -10.731   9.232  67.045  1.00  0.00    -0.199 A  
HETATM   15  C   UNL     1     -11.026   8.030  64.762  1.00  0.00     9.406 A  
HETATM   16  C   UNL     1     -10.900  10.641  66.792  1.00  0.00    -0.169 C  
HETATM   17  C   UNL     1     -10.793   8.141  66.147  1.00  0.00     1.698 A  
HETATM   18  O   UNL     1     -11.125  11.096  65.674  1.00  0.00    -0.150 OA 
HETATM   19  C   UNL     1     -11.025   6.769  64.165  1.00  0.00    11.363 A  
HETATM   20  C   UNL     1     -10.563   6.986  66.894  1.00  0.00    -0.301 A  
HETATM   21  C   UNL     1     -10.559   5.712  66.314  1.00  0.00    -0.173 A  
HETATM   22  N   UNL     1     -10.362   7.373  68.201  1.00  0.00    -0.187 NA 
HETATM   23  C   UNL     1     -10.801   4.340  64.303  1.00  0.00     0.028 C  
HETATM   24  C   UNL     1     -10.798   5.624  64.932  1.00  0.00     2.439 A  
HETATM   25  H   UNL     1     -10.171   6.739  68.977  1.00  0.00     0.000 HD 
BRANCH   9  26
HETATM   26  N   UNL     1     -10.253  14.246  71.159  1.00  0.00     2.386 NA 
HETATM   27  C   UNL     1      -8.540  14.954  72.686  1.00  0.00     7.966 C  
HETATM   28  C   UNL     1      -9.021  15.032  71.237  1.00  0.00     3.434 C  
HETATM   29  C   UNL     1      -9.594  15.576  73.636  1.00  0.00    10.138 C  
HETATM   30  C   UNL     1     -11.348  14.811  71.962  1.00  0.00     0.197 C  
HETATM   31  C   UNL     1     -10.912  14.797  73.425  1.00  0.00     1.888 C  
BRANCH  29  32
HETATM   32  N   UNL     1      -9.748  17.044  73.422  1.00  0.00    10.838 NA 
HETATM   33  C   UNL     1      -9.331  17.487  72.068  1.00  0.00    11.255 C  
HETATM   34  C   UNL     1     -10.258  16.971  70.955  1.00  0.00     2.535 C  
HETATM   35  O   UNL     1     -11.617  17.376  71.175  1.00  0.00     1.225 OA 
HETATM   36  C   UNL     1     -12.082  16.990  72.475  1.00  0.00     0.790 C  
HETATM   37  C   UNL     1     -11.149  17.509  73.581  1.00  0.00     2.191 C  
ENDBRANCH  29  32
ENDBRANCH   9  26
ENDBRANCH   2   3
TORSDOF 3
ENDMDL
MODEL       95
REMARK 921   NORMALIZED FREE ENERGY PREDICTED BY IDOCK:  112.64 KCAL/MOL
REMARK 922        TOTAL FREE ENERGY PREDICTED BY IDOCK:  131.47 KCAL/MOL
REMARK 923 INTER-LIGAND FREE ENERGY PREDICTED BY IDOCK:  124.03 KCAL/MOL
REMARK 924 INTRA-LIGAND FREE ENERGY PREDICTED BY IDOCK:    7.44 KCAL/MOL
REMARK 927      BINDING AFFINITY PREDICTED BY RF-SCORE:    0.00 PKD
ROOT
HETATM    1  C   UNL     1     -12.361   6.218  69.781  1.00  0.00     1.455 C  
HETATM    2  C   UNL     1     -12.461   7.258  70.898  1.00  0.00    -0.266 C  
ENDROOT
BRANCH   2   3
HETATM    3  C   UNL     1     -11.208   8.054  71.235  1.00  0.00    -0.287 A  
HETATM    4  C   UNL     1     -11.250   9.452  71.101  1.00  0.00    -0.427 A  
HETATM    5  C   UNL     1     -10.190  10.276  71.489  1.00  0.00     2.224 A  
HETATM    6  C   UNL     1      -9.009   9.721  72.001  1.00  0.00     2.692 A  
HETATM    7  C   UNL     1      -8.956   8.320  72.095  1.00  0.00    -0.274 A  
HETATM    8  C   UNL     1      -7.822  10.581  72.483  1.00  0.00     7.642 C  
HETATM    9  C   UNL     1     -10.028   7.460  71.753  1.00  0.00    -0.171 A  
HETATM   10  C   UNL     1      -7.597  10.342  73.993  1.00  0.00     5.269 C  
HETATM   11  C   UNL     1      -8.123  12.045  72.262  1.00  0.00    17.399 A  
HETATM   12  C   UNL     1      -6.551  10.198  71.696  1.00  0.00     0.874 C  
HETATM   13  N   UNL     1      -7.504  19.086  72.125  1.00  0.00     4.641 NA 
HETATM   14  C   UNL     1      -9.292  12.573  71.753  1.00  0.00    18.264 A  
HETATM   15  C   UNL     1     -10.018  15.031  71.334  1.00  0.00     1.923 A  
HETATM   16  C   UNL     1     -10.397  11.744  71.343  1.00  0.00     7.606 C  
HETATM   17  C   UNL     1      -9.167  13.982  71.733  1.00  0.00     8.572 A  
HETATM   18  O   UNL     1     -11.448  12.201  70.905  1.00  0.00     0.611 OA 
HETATM   19  C   UNL     1      -9.578  16.351  71.443  1.00  0.00     4.654 A  
HETATM   20  C   UNL     1      -7.899  14.285  72.231  1.00  0.00     6.398 A  
HETATM   21  C   UNL     1      -7.439  15.601  72.346  1.00  0.00     7.139 A  
HETATM   22  N   UNL     1      -7.284  13.092  72.546  1.00  0.00     5.899 NA 
HETATM   23  C   UNL     1      -7.868  17.990  72.043  1.00  0.00    11.202 C  
HETATM   24  C   UNL     1      -8.302  16.632  71.939  1.00  0.00    11.204 A  
HETATM   25  H   UNL     1      -6.345  13.002  72.932  1.00  0.00     0.000 HD 
BRANCH   9  26
HETATM   26  N   UNL     1      -9.915   6.106  72.028  1.00  0.00    -0.172 NA 
HETATM   27  C   UNL     1     -10.916   3.962  71.619  1.00  0.00     1.016 C  
HETATM   28  C   UNL     1     -10.090   5.085  70.994  1.00  0.00    -0.227 C  
HETATM   29  C   UNL     1     -10.156   3.339  72.817  1.00  0.00    -0.158 C  
HETATM   30  C   UNL     1      -9.123   5.633  73.174  1.00  0.00    -0.126 C  
HETATM   31  C   UNL     1      -9.880   4.478  73.824  1.00  0.00    -0.172 C  
BRANCH  29  32
HETATM   32  N   UNL     1      -8.915   2.631  72.389  1.00  0.00    -0.080 NA 
HETATM   33  C   UNL     1      -7.952   3.510  71.679  1.00  0.00    -0.061 C  
HETATM   34  C   UNL     1      -7.331   4.580  72.592  1.00  0.00    -0.082 C  
HETATM   35  O   UNL     1      -6.671   3.988  73.719  1.00  0.00    -0.048 OA 
HETATM   36  C   UNL     1      -7.542   3.112  74.446  1.00  0.00    -0.056 C  
HETATM   37  C   UNL     1      -8.160   2.046  73.526  1.00  0.00    -0.047 C  
ENDBRANCH  29  32
ENDBRANCH   9  26
ENDBRANCH   2   3
TORSDOF 3
ENDMDL
