MODEL        1
REMARK 921   NORMALIZED FREE ENERGY PREDICTED BY IDOCK:   -5.49 KCAL/MOL
REMARK 922        TOTAL FREE ENERGY PREDICTED BY IDOCK:   -6.79 KCAL/MOL
REMARK 923 INTER-LIGAND FREE ENERGY PREDICTED BY IDOCK:   -6.45 KCAL/MOL
REMARK 924 INTRA-LIGAND FREE ENERGY PREDICTED BY IDOCK:   -0.34 KCAL/MOL
REMARK 927      BINDING AFFINITY PREDICTED BY RF-SCORE:    0.00 PKD
ROOT
HETATM    1  N   UNL     1     -11.525  16.497  63.923  1.00  0.00    -1.599 NA 
HETATM    2  H2  UNL     1     -12.414  16.092  64.214  1.00  0.00     0.000 HD 
HETATM    3  H1  UNL     1     -11.669  17.296  63.305  1.00  0.00     0.000 HD 
HETATM    4  C   UNL     1     -10.698  16.828  65.074  1.00  0.00    -0.100 C  
ENDROOT
BRANCH   4   5
HETATM    5  C   UNL     1     -10.482  15.631  66.001  1.00  0.00    -0.343 C  
BRANCH   5   6
HETATM    6  C   UNL     1     -11.526  14.519  65.830  1.00  0.00    -0.345 C  
BRANCH   6   7
HETATM    7  C   UNL     1     -11.077  13.248  65.040  1.00  0.00    -0.309 C  
HETATM    8  O   UNL     1      -9.913  13.641  64.225  1.00  0.00    -0.749 OA 
HETATM    9  P   UNL     1     -10.464  12.030  66.262  1.00  0.00    -0.259 P  
HETATM   10  P   UNL     1     -12.268  12.435  63.913  1.00  0.00    -0.520 P  
HETATM   11  H   UNL     1      -9.640  12.868  63.745  1.00  0.00     0.000 HD 
HETATM   12  O   UNL     1     -13.275  11.746  62.959  1.00  0.00    -0.474 OA 
HETATM   13  O   UNL     1     -12.379  13.801  63.008  1.00  0.00    -0.661 OA 
HETATM   14  O   UNL     1     -13.481  12.783  64.967  1.00  0.00    -0.532 OA 
HETATM   15  O   UNL     1      -9.946  11.000  67.294  1.00  0.00    -0.176 OA 
HETATM   16  O   UNL     1      -9.969  11.120  64.974  1.00  0.00    -0.239 OA 
HETATM   17  O   UNL     1      -9.031  12.860  66.366  1.00  0.00    -0.142 OA 
ENDBRANCH   6   7
ENDBRANCH   5   6
ENDBRANCH   4   5
TORSDOF 3
ENDMDL
MODEL        2
REMARK 921   NORMALIZED FREE ENERGY PREDICTED BY IDOCK:   -5.22 KCAL/MOL
REMARK 922        TOTAL FREE ENERGY PREDICTED BY IDOCK:   -6.48 KCAL/MOL
REMARK 923 INTER-LIGAND FREE ENERGY PREDICTED BY IDOCK:   -6.00 KCAL/MOL
REMARK 924 INTRA-LIGAND FREE ENERGY PREDICTED BY IDOCK:   -0.48 KCAL/MOL
REMARK 927      BINDING AFFINITY PREDICTED BY RF-SCORE:    0.00 PKD
ROOT
HETATM    1  N   UNL     1     -11.130  17.444  64.837  1.00  0.00    -0.810 NA 
HETATM    2  H2  UNL     1     -12.107  17.419  65.127  1.00  0.00     0.000 HD 
HETATM    3  H1  UNL     1     -10.941  18.256  64.249  1.00  0.00     0.000 HD 
HETATM    4  C   UNL     1     -10.239  17.372  65.987  1.00  0.00    -0.300 C  
ENDROOT
BRANCH   4   5
HETATM    5  C   UNL     1     -10.521  16.155  66.867  1.00  0.00    -0.300 C  
BRANCH   5   6
HETATM    6  C   UNL     1     -10.335  14.812  66.147  1.00  0.00    -0.314 C  
BRANCH   6   7
HETATM    7  C   UNL     1     -11.579  13.868  66.085  1.00  0.00    -0.359 C  
HETATM    8  O   UNL     1     -12.762  14.702  66.374  1.00  0.00    -0.327 OA 
HETATM    9  P   UNL     1     -11.756  13.306  64.352  1.00  0.00    -0.434 P  
HETATM   10  P   UNL     1     -11.657  12.424  67.205  1.00  0.00    -0.308 P  
HETATM   11  H   UNL     1     -13.518  14.128  66.336  1.00  0.00     0.000 HD 
HETATM   12  O   UNL     1     -11.723  11.201  68.154  1.00  0.00    -0.480 OA 
HETATM   13  O   UNL     1     -11.609  13.411  68.517  1.00  0.00    -0.287 OA 
HETATM   14  O   UNL     1     -10.033  12.223  67.036  1.00  0.00    -0.208 OA 
HETATM   15  O   UNL     1     -11.906  12.831  62.886  1.00  0.00    -0.222 OA 
HETATM   16  O   UNL     1     -13.193  12.631  64.810  1.00  0.00    -0.846 OA 
HETATM   17  O   UNL     1     -12.443  14.763  63.952  1.00  0.00    -0.811 OA 
ENDBRANCH   6   7
ENDBRANCH   5   6
ENDBRANCH   4   5
TORSDOF 3
ENDMDL
MODEL        3
REMARK 921   NORMALIZED FREE ENERGY PREDICTED BY IDOCK:   -5.13 KCAL/MOL
REMARK 922        TOTAL FREE ENERGY PREDICTED BY IDOCK:   -6.37 KCAL/MOL
REMARK 923 INTER-LIGAND FREE ENERGY PREDICTED BY IDOCK:   -5.71 KCAL/MOL
REMARK 924 INTRA-LIGAND FREE ENERGY PREDICTED BY IDOCK:   -0.65 KCAL/MOL
REMARK 927      BINDING AFFINITY PREDICTED BY RF-SCORE:    0.00 PKD
ROOT
HETATM    1  N   UNL     1     -12.442  13.717  63.258  1.00  0.00    -1.092 NA 
HETATM    2  H2  UNL     1     -12.260  14.592  63.750  1.00  0.00     0.000 HD 
HETATM    3  H1  UNL     1     -12.429  13.853  62.248  1.00  0.00     0.000 HD 
HETATM    4  C   UNL     1     -11.525  12.672  63.690  1.00  0.00    -0.495 C  
ENDROOT
BRANCH   4   5
HETATM    5  C   UNL     1     -11.545  12.468  65.205  1.00  0.00    -0.406 C  
BRANCH   5   6
HETATM    6  C   UNL     1     -10.574  13.381  65.966  1.00  0.00    -0.290 C  
BRANCH   6   7
HETATM    7  C   UNL     1     -11.175  14.678  66.597  1.00  0.00    -0.349 C  
HETATM    8  O   UNL     1     -12.627  14.644  66.340  1.00  0.00    -0.341 OA 
HETATM    9  P   UNL     1     -10.969  14.553  68.412  1.00  0.00    -0.268 P  
HETATM   10  P   UNL     1     -10.570  16.308  66.026  1.00  0.00    -0.180 P  
HETATM   11  H   UNL     1     -12.992  15.433  66.724  1.00  0.00     0.000 HD 
HETATM   12  O   UNL     1     -10.059  17.688  65.542  1.00  0.00    -0.566 OA 
HETATM   13  O   UNL     1     -11.082  15.987  64.498  1.00  0.00    -0.572 OA 
HETATM   14  O   UNL     1      -9.058  15.678  65.876  1.00  0.00    -0.335 OA 
HETATM   15  O   UNL     1     -10.795  14.447  69.946  1.00  0.00    -0.135 OA 
HETATM   16  O   UNL     1     -11.894  15.917  68.522  1.00  0.00    -0.366 OA 
HETATM   17  O   UNL     1     -12.274  13.530  68.487  1.00  0.00    -0.320 OA 
ENDBRANCH   6   7
ENDBRANCH   5   6
ENDBRANCH   4   5
TORSDOF 3
ENDMDL
MODEL        4
REMARK 921   NORMALIZED FREE ENERGY PREDICTED BY IDOCK:   -5.04 KCAL/MOL
REMARK 922        TOTAL FREE ENERGY PREDICTED BY IDOCK:   -6.26 KCAL/MOL
REMARK 923 INTER-LIGAND FREE ENERGY PREDICTED BY IDOCK:   -5.68 KCAL/MOL
REMARK 924 INTRA-LIGAND FREE ENERGY PREDICTED BY IDOCK:   -0.58 KCAL/MOL
REMARK 927      BINDING AFFINITY PREDICTED BY RF-SCORE:    0.00 PKD
ROOT
HETATM    1  N   UNL     1     -11.496  13.413  69.632  1.00  0.00    -0.434 NA 
HETATM    2  H2  UNL     1     -12.477  13.672  69.535  1.00  0.00     0.000 HD 
HETATM    3  H1  UNL     1     -11.155  13.603  70.574  1.00  0.00     0.000 HD 
HETATM    4  C   UNL     1     -11.277  12.030  69.231  1.00  0.00    -0.229 C  
ENDROOT
BRANCH   4   5
HETATM    5  C   UNL     1     -11.786  11.744  67.818  1.00  0.00    -0.337 C  
BRANCH   5   6
HETATM    6  C   UNL     1     -10.892  12.317  66.710  1.00  0.00    -0.291 C  
BRANCH   6   7
HETATM    7  C   UNL     1     -11.326  13.684  66.091  1.00  0.00    -0.312 C  
HETATM    8  O   UNL     1     -12.352  14.251  66.987  1.00  0.00    -0.579 OA 
HETATM    9  P   UNL     1      -9.885  14.810  66.179  1.00  0.00    -0.331 P  
HETATM   10  P   UNL     1     -12.020  13.714  64.398  1.00  0.00    -0.429 P  
HETATM   11  H   UNL     1     -12.616  15.083  66.610  1.00  0.00     0.000 HD 
HETATM   12  O   UNL     1     -12.608  13.740  62.965  1.00  0.00    -0.721 OA 
HETATM   13  O   UNL     1     -13.263  12.747  64.866  1.00  0.00    -0.808 OA 
HETATM   14  O   UNL     1     -10.977  12.519  63.965  1.00  0.00    -0.337 OA 
HETATM   15  O   UNL     1      -8.667  15.761  66.254  1.00  0.00    -0.310 OA 
HETATM   16  O   UNL     1     -10.902  16.009  65.672  1.00  0.00    -0.327 OA 
HETATM   17  O   UNL     1     -10.196  15.077  67.788  1.00  0.00    -0.234 OA 
ENDBRANCH   6   7
ENDBRANCH   5   6
ENDBRANCH   4   5
TORSDOF 3
ENDMDL
MODEL        5
REMARK 921   NORMALIZED FREE ENERGY PREDICTED BY IDOCK:   -5.01 KCAL/MOL
REMARK 922        TOTAL FREE ENERGY PREDICTED BY IDOCK:   -6.24 KCAL/MOL
REMARK 923 INTER-LIGAND FREE ENERGY PREDICTED BY IDOCK:   -5.61 KCAL/MOL
REMARK 924 INTRA-LIGAND FREE ENERGY PREDICTED BY IDOCK:   -0.62 KCAL/MOL
REMARK 927      BINDING AFFINITY PREDICTED BY RF-SCORE:    0.00 PKD
ROOT
HETATM    1  N   UNL     1      -9.028  14.996  69.570  1.00  0.00    -0.435 NA 
HETATM    2  H2  UNL     1      -8.330  15.513  69.035  1.00  0.00     0.000 HD 
HETATM    3  H1  UNL     1      -8.715  14.837  70.527  1.00  0.00     0.000 HD 
HETATM    4  C   UNL     1     -10.326  15.654  69.512  1.00  0.00    -0.277 C  
ENDROOT
BRANCH   4   5
HETATM    5  C   UNL     1     -10.796  15.892  68.077  1.00  0.00    -0.317 C  
BRANCH   5   6
HETATM    6  C   UNL     1     -11.790  14.839  67.568  1.00  0.00    -0.326 C  
BRANCH   6   7
HETATM    7  C   UNL     1     -11.240  13.781  66.559  1.00  0.00    -0.312 C  
HETATM    8  O   UNL     1      -9.783  13.996  66.466  1.00  0.00    -0.276 OA 
HETATM    9  P   UNL     1     -11.470  12.129  67.314  1.00  0.00    -0.315 P  
HETATM   10  P   UNL     1     -11.886  13.764  64.847  1.00  0.00    -0.425 P  
HETATM   11  H   UNL     1      -9.449  13.353  65.853  1.00  0.00     0.000 HD 
HETATM   12  O   UNL     1     -12.433  13.750  63.397  1.00  0.00    -0.817 OA 
HETATM   13  O   UNL     1     -11.341  15.295  64.603  1.00  0.00    -0.398 OA 
HETATM   14  O   UNL     1     -13.375  14.162  65.421  1.00  0.00    -0.705 OA 
HETATM   15  O   UNL     1     -11.664  10.733  67.952  1.00  0.00    -0.543 OA 
HETATM   16  O   UNL     1     -10.590  11.527  66.052  1.00  0.00    -0.247 OA 
HETATM   17  O   UNL     1     -10.135  12.382  68.267  1.00  0.00    -0.217 OA 
ENDBRANCH   6   7
ENDBRANCH   5   6
ENDBRANCH   4   5
TORSDOF 3
ENDMDL
MODEL        6
REMARK 921   NORMALIZED FREE ENERGY PREDICTED BY IDOCK:   -5.01 KCAL/MOL
REMARK 922        TOTAL FREE ENERGY PREDICTED BY IDOCK:   -6.23 KCAL/MOL
REMARK 923 INTER-LIGAND FREE ENERGY PREDICTED BY IDOCK:   -5.57 KCAL/MOL
REMARK 924 INTRA-LIGAND FREE ENERGY PREDICTED BY IDOCK:   -0.66 KCAL/MOL
REMARK 927      BINDING AFFINITY PREDICTED BY RF-SCORE:    0.00 PKD
ROOT
HETATM    1  N   UNL     1     -11.177  11.373  63.194  1.00  0.00    -0.854 NA 
HETATM    2  H2  UNL     1     -10.565  11.493  64.000  1.00  0.00     0.000 HD 
HETATM    3  H1  UNL     1     -11.241  10.392  62.923  1.00  0.00     0.000 HD 
HETATM    4  C   UNL     1     -12.484  11.969  63.434  1.00  0.00    -0.509 C  
ENDROOT
BRANCH   4   5
HETATM    5  C   UNL     1     -12.388  13.440  63.839  1.00  0.00    -0.410 C  
BRANCH   5   6
HETATM    6  C   UNL     1     -12.024  13.654  65.315  1.00  0.00    -0.395 C  
BRANCH   6   7
HETATM    7  C   UNL     1     -10.531  13.992  65.630  1.00  0.00    -0.318 C  
HETATM    8  O   UNL     1      -9.814  13.997  64.341  1.00  0.00    -0.656 OA 
HETATM    9  P   UNL     1     -10.477  15.711  66.257  1.00  0.00    -0.314 P  
HETATM   10  P   UNL     1      -9.591  12.901  66.759  1.00  0.00    -0.250 P  
HETATM   11  H   UNL     1      -8.906  14.202  64.532  1.00  0.00     0.000 HD 
HETATM   12  O   UNL     1      -8.795  11.978  67.715  1.00  0.00    -0.152 OA 
HETATM   13  O   UNL     1      -9.807  11.627  65.745  1.00  0.00    -0.224 OA 
HETATM   14  O   UNL     1     -10.951  12.685  67.659  1.00  0.00    -0.227 OA 
HETATM   15  O   UNL     1     -10.432  17.165  66.786  1.00  0.00    -0.315 OA 
HETATM   16  O   UNL     1      -8.831  15.591  66.188  1.00  0.00    -0.320 OA 
HETATM   17  O   UNL     1     -10.611  16.279  64.703  1.00  0.00    -0.621 OA 
ENDBRANCH   6   7
ENDBRANCH   5   6
ENDBRANCH   4   5
TORSDOF 3
ENDMDL
MODEL        7
REMARK 921   NORMALIZED FREE ENERGY PREDICTED BY IDOCK:   -4.98 KCAL/MOL
REMARK 922        TOTAL FREE ENERGY PREDICTED BY IDOCK:   -6.20 KCAL/MOL
REMARK 923 INTER-LIGAND FREE ENERGY PREDICTED BY IDOCK:   -5.56 KCAL/MOL
REMARK 924 INTRA-LIGAND FREE ENERGY PREDICTED BY IDOCK:   -0.64 KCAL/MOL
REMARK 927      BINDING AFFINITY PREDICTED BY RF-SCORE:    0.00 PKD
ROOT
HETATM    1  N   UNL     1     -11.037  11.413  63.189  1.00  0.00    -0.843 NA 
HETATM    2  H2  UNL     1     -10.574  11.316  64.092  1.00  0.00     0.000 HD 
HETATM    3  H1  UNL     1     -11.080  10.520  62.698  1.00  0.00     0.000 HD 
HETATM    4  C   UNL     1     -12.348  12.028  63.336  1.00  0.00    -0.523 C  
ENDROOT
BRANCH   4   5
HETATM    5  C   UNL     1     -12.285  13.368  64.070  1.00  0.00    -0.466 C  
BRANCH   5   6
HETATM    6  C   UNL     1     -12.399  13.244  65.596  1.00  0.00    -0.521 C  
BRANCH   6   7
HETATM    7  C   UNL     1     -11.067  13.311  66.410  1.00  0.00    -0.295 C  
HETATM    8  O   UNL     1      -9.989  13.585  65.441  1.00  0.00    -0.434 OA 
HETATM    9  P   UNL     1     -11.164  14.778  67.501  1.00  0.00    -0.349 P  
HETATM   10  P   UNL     1     -10.547  11.855  67.389  1.00  0.00    -0.244 P  
HETATM   11  H   UNL     1      -9.179  13.627  65.936  1.00  0.00     0.000 HD 
HETATM   12  O   UNL     1     -10.107  10.623  68.217  1.00  0.00    -0.150 OA 
HETATM   13  O   UNL     1     -10.474  10.938  66.028  1.00  0.00    -0.251 OA 
HETATM   14  O   UNL     1     -12.122  11.559  67.756  1.00  0.00    -0.626 OA 
HETATM   15  O   UNL     1     -11.245  16.017  68.424  1.00  0.00    -0.339 OA 
HETATM   16  O   UNL     1      -9.579  14.494  67.875  1.00  0.00    -0.209 OA 
HETATM   17  O   UNL     1     -10.799  15.758  66.213  1.00  0.00    -0.306 OA 
ENDBRANCH   6   7
ENDBRANCH   5   6
ENDBRANCH   4   5
TORSDOF 3
ENDMDL
MODEL        8
REMARK 921   NORMALIZED FREE ENERGY PREDICTED BY IDOCK:   -4.93 KCAL/MOL
REMARK 922        TOTAL FREE ENERGY PREDICTED BY IDOCK:   -6.14 KCAL/MOL
REMARK 923 INTER-LIGAND FREE ENERGY PREDICTED BY IDOCK:   -5.83 KCAL/MOL
REMARK 924 INTRA-LIGAND FREE ENERGY PREDICTED BY IDOCK:   -0.32 KCAL/MOL
REMARK 927      BINDING AFFINITY PREDICTED BY RF-SCORE:    0.00 PKD
ROOT
HETATM    1  N   UNL     1     -11.678  10.314  68.004  1.00  0.00    -0.680 NA 
HETATM    2  H2  UNL     1     -12.500  10.195  67.414  1.00  0.00     0.000 HD 
HETATM    3  H1  UNL     1     -11.751   9.756  68.855  1.00  0.00     0.000 HD 
HETATM    4  C   UNL     1     -10.456  10.036  67.263  1.00  0.00    -0.254 C  
ENDROOT
BRANCH   4   5
HETATM    5  C   UNL     1     -10.345  10.872  65.988  1.00  0.00    -0.304 C  
BRANCH   5   6
HETATM    6  C   UNL     1      -9.808  12.291  66.222  1.00  0.00    -0.254 C  
BRANCH   6   7
HETATM    7  C   UNL     1     -10.765  13.473  65.863  1.00  0.00    -0.277 C  
HETATM    8  O   UNL     1     -10.042  14.330  64.903  1.00  0.00    -0.519 OA 
HETATM    9  P   UNL     1     -12.190  12.770  64.955  1.00  0.00    -0.471 P  
HETATM   10  P   UNL     1     -11.372  14.565  67.200  1.00  0.00    -0.371 P  
HETATM   11  H   UNL     1     -10.624  15.049  64.685  1.00  0.00     0.000 HD 
HETATM   12  O   UNL     1     -11.885  15.489  68.333  1.00  0.00    -0.351 OA 
HETATM   13  O   UNL     1      -9.833  15.012  67.563  1.00  0.00    -0.216 OA 
HETATM   14  O   UNL     1     -11.453  13.264  68.204  1.00  0.00    -0.273 OA 
HETATM   15  O   UNL     1     -13.396  12.176  64.187  1.00  0.00    -0.750 OA 
HETATM   16  O   UNL     1     -12.662  14.327  64.668  1.00  0.00    -0.655 OA 
HETATM   17  O   UNL     1     -11.267  12.680  63.579  1.00  0.00    -0.453 OA 
ENDBRANCH   6   7
ENDBRANCH   5   6
ENDBRANCH   4   5
TORSDOF 3
ENDMDL
MODEL        9
REMARK 921   NORMALIZED FREE ENERGY PREDICTED BY IDOCK:   -4.93 KCAL/MOL
REMARK 922        TOTAL FREE ENERGY PREDICTED BY IDOCK:   -6.13 KCAL/MOL
REMARK 923 INTER-LIGAND FREE ENERGY PREDICTED BY IDOCK:   -5.95 KCAL/MOL
REMARK 924 INTRA-LIGAND FREE ENERGY PREDICTED BY IDOCK:   -0.18 KCAL/MOL
REMARK 927      BINDING AFFINITY PREDICTED BY RF-SCORE:    0.00 PKD
ROOT
HETATM    1  N   UNL     1     -11.767  10.232  67.992  1.00  0.00    -0.680 NA 
HETATM    2  H2  UNL     1     -11.229  10.332  67.132  1.00  0.00     0.000 HD 
HETATM    3  H1  UNL     1     -11.614   9.318  68.419  1.00  0.00     0.000 HD 
HETATM    4  C   UNL     1     -11.494  11.326  68.913  1.00  0.00    -0.297 C  
ENDROOT
BRANCH   4   5
HETATM    5  C   UNL     1     -11.724  12.697  68.274  1.00  0.00    -0.389 C  
BRANCH   5   6
HETATM    6  C   UNL     1     -10.871  12.948  67.023  1.00  0.00    -0.282 C  
BRANCH   6   7
HETATM    7  C   UNL     1     -11.371  14.055  66.040  1.00  0.00    -0.328 C  
HETATM    8  O   UNL     1     -12.503  14.733  66.702  1.00  0.00    -0.323 OA 
HETATM    9  P   UNL     1     -10.039  15.301  65.891  1.00  0.00    -0.390 P  
HETATM   10  P   UNL     1     -11.943  13.570  64.371  1.00  0.00    -0.430 P  
HETATM   11  H   UNL     1     -12.807  15.406  66.104  1.00  0.00     0.000 HD 
HETATM   12  O   UNL     1     -12.426  13.160  62.957  1.00  0.00    -0.598 OA 
HETATM   13  O   UNL     1     -13.131  12.642  65.022  1.00  0.00    -0.808 OA 
HETATM   14  O   UNL     1     -10.775  12.412  64.324  1.00  0.00    -0.307 OA 
HETATM   15  O   UNL     1      -8.912  16.355  65.766  1.00  0.00    -0.455 OA 
HETATM   16  O   UNL     1     -11.113  16.218  65.034  1.00  0.00    -0.371 OA 
HETATM   17  O   UNL     1     -10.485  15.949  67.353  1.00  0.00    -0.293 OA 
ENDBRANCH   6   7
ENDBRANCH   5   6
ENDBRANCH   4   5
TORSDOF 3
ENDMDL
MODEL       10
REMARK 921   NORMALIZED FREE ENERGY PREDICTED BY IDOCK:   -4.87 KCAL/MOL
REMARK 922        TOTAL FREE ENERGY PREDICTED BY IDOCK:   -6.07 KCAL/MOL
REMARK 923 INTER-LIGAND FREE ENERGY PREDICTED BY IDOCK:   -6.21 KCAL/MOL
REMARK 924 INTRA-LIGAND FREE ENERGY PREDICTED BY IDOCK:    0.14 KCAL/MOL
REMARK 927      BINDING AFFINITY PREDICTED BY RF-SCORE:    0.00 PKD
ROOT
HETATM    1  N   UNL     1      -9.916  10.709  62.354  1.00  0.00    -0.738 NA 
HETATM    2  H2  UNL     1      -9.517  11.541  61.919  1.00  0.00     0.000 HD 
HETATM    3  H1  UNL     1      -9.287   9.911  62.269  1.00  0.00     0.000 HD 
HETATM    4  C   UNL     1     -10.296  10.971  63.735  1.00  0.00    -0.364 C  
ENDROOT
BRANCH   4   5
HETATM    5  C   UNL     1     -11.239  12.168  63.864  1.00  0.00    -0.485 C  
BRANCH   5   6
HETATM    6  C   UNL     1     -10.553  13.446  64.368  1.00  0.00    -0.423 C  
BRANCH   6   7
HETATM    7  C   UNL     1     -11.361  14.329  65.372  1.00  0.00    -0.329 C  
HETATM    8  O   UNL     1     -12.787  14.171  65.028  1.00  0.00    -0.687 OA 
HETATM    9  P   UNL     1     -11.148  13.601  67.038  1.00  0.00    -0.318 P  
HETATM   10  P   UNL     1     -11.027  16.127  65.445  1.00  0.00    -0.064 P  
HETATM   11  H   UNL     1     -13.278  14.707  65.639  1.00  0.00     0.000 HD 
HETATM   12  O   UNL     1     -10.743  17.649  65.506  1.00  0.00    -0.565 OA 
HETATM   13  O   UNL     1     -11.470  16.295  63.872  1.00  0.00    -0.940 OA 
HETATM   14  O   UNL     1      -9.431  15.826  65.181  1.00  0.00    -0.213 OA 
HETATM   15  O   UNL     1     -10.968  12.986  68.447  1.00  0.00    -0.240 OA 
HETATM   16  O   UNL     1     -12.284  14.682  67.559  1.00  0.00    -0.277 OA 
HETATM   17  O   UNL     1     -12.269  12.434  66.669  1.00  0.00    -0.562 OA 
ENDBRANCH   6   7
ENDBRANCH   5   6
ENDBRANCH   4   5
TORSDOF 3
ENDMDL
MODEL       11
REMARK 921   NORMALIZED FREE ENERGY PREDICTED BY IDOCK:   -4.83 KCAL/MOL
REMARK 922        TOTAL FREE ENERGY PREDICTED BY IDOCK:   -6.02 KCAL/MOL
REMARK 923 INTER-LIGAND FREE ENERGY PREDICTED BY IDOCK:   -5.72 KCAL/MOL
REMARK 924 INTRA-LIGAND FREE ENERGY PREDICTED BY IDOCK:   -0.29 KCAL/MOL
REMARK 927      BINDING AFFINITY PREDICTED BY RF-SCORE:    0.00 PKD
ROOT
HETATM    1  N   UNL     1     -10.160  10.634  62.579  1.00  0.00    -0.766 NA 
HETATM    2  H2  UNL     1     -10.370  11.632  62.603  1.00  0.00     0.000 HD 
HETATM    3  H1  UNL     1      -9.999  10.314  61.624  1.00  0.00     0.000 HD 
HETATM    4  C   UNL     1      -9.053  10.310  63.467  1.00  0.00    -0.264 C  
ENDROOT
BRANCH   4   5
HETATM    5  C   UNL     1      -9.295  10.788  64.899  1.00  0.00    -0.261 C  
BRANCH   5   6
HETATM    6  C   UNL     1     -10.778  10.975  65.248  1.00  0.00    -0.234 C  
BRANCH   6   7
HETATM    7  C   UNL     1     -11.181  12.333  65.906  1.00  0.00    -0.340 C  
HETATM    8  O   UNL     1     -12.102  12.014  67.014  1.00  0.00    -0.603 OA 
HETATM    9  P   UNL     1      -9.677  13.040  66.673  1.00  0.00    -0.258 P  
HETATM   10  P   UNL     1     -12.001  13.610  64.882  1.00  0.00    -0.435 P  
HETATM   11  H   UNL     1     -12.346  12.841  67.414  1.00  0.00     0.000 HD 
HETATM   12  O   UNL     1     -12.694  14.690  64.016  1.00  0.00    -0.772 OA 
HETATM   13  O   UNL     1     -13.256  12.594  64.581  1.00  0.00    -0.828 OA 
HETATM   14  O   UNL     1     -11.063  13.167  63.606  1.00  0.00    -0.324 OA 
HETATM   15  O   UNL     1      -8.405  13.637  67.322  1.00  0.00    -0.179 OA 
HETATM   16  O   UNL     1     -10.661  14.191  67.333  1.00  0.00    -0.274 OA 
HETATM   17  O   UNL     1      -9.847  12.002  67.958  1.00  0.00    -0.187 OA 
ENDBRANCH   6   7
ENDBRANCH   5   6
ENDBRANCH   4   5
TORSDOF 3
ENDMDL
MODEL       12
REMARK 921   NORMALIZED FREE ENERGY PREDICTED BY IDOCK:   -4.81 KCAL/MOL
REMARK 922        TOTAL FREE ENERGY PREDICTED BY IDOCK:   -5.99 KCAL/MOL
REMARK 923 INTER-LIGAND FREE ENERGY PREDICTED BY IDOCK:   -5.69 KCAL/MOL
REMARK 924 INTRA-LIGAND FREE ENERGY PREDICTED BY IDOCK:   -0.30 KCAL/MOL
REMARK 927      BINDING AFFINITY PREDICTED BY RF-SCORE:    0.00 PKD
ROOT
HETATM    1  N   UNL     1     -12.414  14.996  69.474  1.00  0.00    -0.581 NA 
HETATM    2  H2  UNL     1     -13.176  15.056  68.799  1.00  0.00     0.000 HD 
HETATM    3  H1  UNL     1     -12.647  15.488  70.336  1.00  0.00     0.000 HD 
HETATM    4  C   UNL     1     -12.030  13.612  69.710  1.00  0.00    -0.341 C  
ENDROOT
BRANCH   4   5
HETATM    5  C   UNL     1     -11.680  12.874  68.418  1.00  0.00    -0.382 C  
BRANCH   5   6
HETATM    6  C   UNL     1     -10.311  13.256  67.838  1.00  0.00    -0.239 C  
BRANCH   6   7
HETATM    7  C   UNL     1     -10.272  13.650  66.326  1.00  0.00    -0.296 C  
HETATM    8  O   UNL     1      -9.171  12.883  65.714  1.00  0.00    -0.450 OA 
HETATM    9  P   UNL     1     -11.817  13.038  65.559  1.00  0.00    -0.446 P  
HETATM   10  P   UNL     1     -10.018  15.404  65.871  1.00  0.00    -0.385 P  
HETATM   11  H   UNL     1      -9.148  13.122  64.795  1.00  0.00     0.000 HD 
HETATM   12  O   UNL     1      -9.803  16.889  65.485  1.00  0.00    -0.559 OA 
HETATM   13  O   UNL     1      -8.556  15.410  66.620  1.00  0.00    -0.255 OA 
HETATM   14  O   UNL     1     -10.920  15.857  67.170  1.00  0.00    -0.304 OA 
HETATM   15  O   UNL     1     -13.123  12.520  64.910  1.00  0.00    -0.833 OA 
HETATM   16  O   UNL     1     -11.166  13.479  64.106  1.00  0.00    -0.379 OA 
HETATM   17  O   UNL     1     -11.180  11.506  65.504  1.00  0.00    -0.244 OA 
ENDBRANCH   6   7
ENDBRANCH   5   6
ENDBRANCH   4   5
TORSDOF 3
ENDMDL
MODEL       13
REMARK 921   NORMALIZED FREE ENERGY PREDICTED BY IDOCK:   -4.79 KCAL/MOL
REMARK 922        TOTAL FREE ENERGY PREDICTED BY IDOCK:   -5.97 KCAL/MOL
REMARK 923 INTER-LIGAND FREE ENERGY PREDICTED BY IDOCK:   -5.81 KCAL/MOL
REMARK 924 INTRA-LIGAND FREE ENERGY PREDICTED BY IDOCK:   -0.16 KCAL/MOL
REMARK 927      BINDING AFFINITY PREDICTED BY RF-SCORE:    0.00 PKD
ROOT
HETATM    1  N   UNL     1     -11.722  16.334  63.734  1.00  0.00    -1.488 NA 
HETATM    2  H2  UNL     1     -12.642  15.911  63.854  1.00  0.00     0.000 HD 
HETATM    3  H1  UNL     1     -11.797  17.334  63.547  1.00  0.00     0.000 HD 
HETATM    4  C   UNL     1     -10.860  16.047  64.872  1.00  0.00    -0.372 C  
ENDROOT
BRANCH   4   5
HETATM    5  C   UNL     1     -10.746  14.549  65.154  1.00  0.00    -0.422 C  
BRANCH   5   6
HETATM    6  C   UNL     1     -10.127  14.220  66.520  1.00  0.00    -0.283 C  
BRANCH   6   7
HETATM    7  C   UNL     1     -11.119  13.889  67.681  1.00  0.00    -0.277 C  
HETATM    8  O   UNL     1     -12.480  14.097  67.151  1.00  0.00    -0.566 OA 
HETATM    9  P   UNL     1     -10.971  12.100  68.036  1.00  0.00    -0.268 P  
HETATM   10  P   UNL     1     -11.005  14.833  69.245  1.00  0.00    -0.268 P  
HETATM   11  H   UNL     1     -13.083  13.895  67.858  1.00  0.00     0.000 HD 
HETATM   12  O   UNL     1     -10.909  15.631  70.569  1.00  0.00    -0.318 OA 
HETATM   13  O   UNL     1     -11.323  16.234  68.449  1.00  0.00    -0.367 OA 
HETATM   14  O   UNL     1      -9.368  14.870  69.086  1.00  0.00    -0.195 OA 
HETATM   15  O   UNL     1     -10.846  10.586  68.336  1.00  0.00    -0.206 OA 
HETATM   16  O   UNL     1     -12.267  12.283  69.044  1.00  0.00    -0.198 OA 
HETATM   17  O   UNL     1     -11.910  11.761  66.710  1.00  0.00    -0.586 OA 
ENDBRANCH   6   7
ENDBRANCH   5   6
ENDBRANCH   4   5
TORSDOF 3
ENDMDL
MODEL       14
REMARK 921   NORMALIZED FREE ENERGY PREDICTED BY IDOCK:   -4.77 KCAL/MOL
REMARK 922        TOTAL FREE ENERGY PREDICTED BY IDOCK:   -5.95 KCAL/MOL
REMARK 923 INTER-LIGAND FREE ENERGY PREDICTED BY IDOCK:   -5.69 KCAL/MOL
REMARK 924 INTRA-LIGAND FREE ENERGY PREDICTED BY IDOCK:   -0.26 KCAL/MOL
REMARK 927      BINDING AFFINITY PREDICTED BY RF-SCORE:    0.00 PKD
ROOT
HETATM    1  N   UNL     1      -8.181  15.921  66.454  1.00  0.00    -0.284 NA 
HETATM    2  H2  UNL     1      -8.024  15.451  65.563  1.00  0.00     0.000 HD 
HETATM    3  H1  UNL     1      -7.345  16.420  66.760  1.00  0.00     0.000 HD 
HETATM    4  C   UNL     1      -9.352  16.784  66.393  1.00  0.00    -0.278 C  
ENDROOT
BRANCH   4   5
HETATM    5  C   UNL     1     -10.605  16.037  65.936  1.00  0.00    -0.338 C  
BRANCH   5   6
HETATM    6  C   UNL     1     -10.314  14.845  65.014  1.00  0.00    -0.401 C  
BRANCH   6   7
HETATM    7  C   UNL     1     -10.904  13.463  65.442  1.00  0.00    -0.294 C  
HETATM    8  O   UNL     1      -9.767  12.529  65.552  1.00  0.00    -0.378 OA 
HETATM    9  P   UNL     1     -11.579  13.654  67.133  1.00  0.00    -0.405 P  
HETATM   10  P   UNL     1     -12.153  12.659  64.374  1.00  0.00    -0.458 P  
HETATM   11  H   UNL     1     -10.126  11.689  65.812  1.00  0.00     0.000 HD 
HETATM   12  O   UNL     1     -13.211  11.979  63.470  1.00  0.00    -0.724 OA 
HETATM   13  O   UNL     1     -11.081  12.593  63.132  1.00  0.00    -0.325 OA 
HETATM   14  O   UNL     1     -12.784  14.138  64.025  1.00  0.00    -0.646 OA 
HETATM   15  O   UNL     1     -12.149  13.816  68.563  1.00  0.00    -0.363 OA 
HETATM   16  O   UNL     1     -11.807  12.018  67.132  1.00  0.00    -0.565 OA 
HETATM   17  O   UNL     1     -10.044  13.550  67.755  1.00  0.00    -0.226 OA 
ENDBRANCH   6   7
ENDBRANCH   5   6
ENDBRANCH   4   5
TORSDOF 3
ENDMDL
MODEL       15
REMARK 921   NORMALIZED FREE ENERGY PREDICTED BY IDOCK:   -4.77 KCAL/MOL
REMARK 922        TOTAL FREE ENERGY PREDICTED BY IDOCK:   -5.95 KCAL/MOL
REMARK 923 INTER-LIGAND FREE ENERGY PREDICTED BY IDOCK:   -5.69 KCAL/MOL
REMARK 924 INTRA-LIGAND FREE ENERGY PREDICTED BY IDOCK:   -0.26 KCAL/MOL
REMARK 927      BINDING AFFINITY PREDICTED BY RF-SCORE:    0.00 PKD
ROOT
HETATM    1  N   UNL     1     -10.871  13.896  69.034  1.00  0.00    -0.296 NA 
HETATM    2  H2  UNL     1     -11.292  14.650  68.493  1.00  0.00     0.000 HD 
HETATM    3  H1  UNL     1     -10.902  14.097  70.033  1.00  0.00     0.000 HD 
HETATM    4  C   UNL     1     -11.478  12.614  68.706  1.00  0.00    -0.306 C  
ENDROOT
BRANCH   4   5
HETATM    5  C   UNL     1     -11.430  12.311  67.208  1.00  0.00    -0.426 C  
BRANCH   5   6
HETATM    6  C   UNL     1     -10.377  13.126  66.445  1.00  0.00    -0.289 C  
BRANCH   6   7
HETATM    7  C   UNL     1     -10.798  13.689  65.050  1.00  0.00    -0.352 C  
HETATM    8  O   UNL     1      -9.762  13.266  64.088  1.00  0.00    -0.650 OA 
HETATM    9  P   UNL     1     -12.340  12.836  64.555  1.00  0.00    -0.412 P  
HETATM   10  P   UNL     1     -11.008  15.496  64.846  1.00  0.00    -0.272 P  
HETATM   11  H   UNL     1     -10.019  13.608  63.240  1.00  0.00     0.000 HD 
HETATM   12  O   UNL     1     -11.186  17.025  64.673  1.00  0.00    -0.968 OA 
HETATM   13  O   UNL     1      -9.433  15.746  65.240  1.00  0.00    -0.288 OA 
HETATM   14  O   UNL     1     -11.621  15.581  66.370  1.00  0.00    -0.025 OA 
HETATM   15  O   UNL     1     -13.644  12.114  64.138  1.00  0.00    -0.480 OA 
HETATM   16  O   UNL     1     -12.175  13.576  63.088  1.00  0.00    -0.608 OA 
HETATM   17  O   UNL     1     -11.457  11.504  64.107  1.00  0.00    -0.320 OA 
ENDBRANCH   6   7
ENDBRANCH   5   6
ENDBRANCH   4   5
TORSDOF 3
ENDMDL
MODEL       16
REMARK 921   NORMALIZED FREE ENERGY PREDICTED BY IDOCK:   -4.76 KCAL/MOL
REMARK 922        TOTAL FREE ENERGY PREDICTED BY IDOCK:   -5.94 KCAL/MOL
REMARK 923 INTER-LIGAND FREE ENERGY PREDICTED BY IDOCK:   -5.32 KCAL/MOL
REMARK 924 INTRA-LIGAND FREE ENERGY PREDICTED BY IDOCK:   -0.62 KCAL/MOL
REMARK 927      BINDING AFFINITY PREDICTED BY RF-SCORE:    0.00 PKD
ROOT
HETATM    1  N   UNL     1     -11.092  11.333  63.165  1.00  0.00    -0.846 NA 
HETATM    2  H2  UNL     1     -11.241  12.247  63.591  1.00  0.00     0.000 HD 
HETATM    3  H1  UNL     1     -10.932  11.416  62.161  1.00  0.00     0.000 HD 
HETATM    4  C   UNL     1     -10.024  10.609  63.840  1.00  0.00    -0.326 C  
ENDROOT
BRANCH   4   5
HETATM    5  C   UNL     1     -10.264  10.483  65.344  1.00  0.00    -0.340 C  
BRANCH   5   6
HETATM    6  C   UNL     1      -9.781  11.696  66.152  1.00  0.00    -0.253 C  
BRANCH   6   7
HETATM    7  C   UNL     1     -10.853  12.775  66.510  1.00  0.00    -0.256 C  
HETATM    8  O   UNL     1     -12.104  12.373  65.839  1.00  0.00    -0.580 OA 
HETATM    9  P   UNL     1     -11.172  12.657  68.309  1.00  0.00    -0.322 P  
HETATM   10  P   UNL     1     -10.542  14.521  66.059  1.00  0.00    -0.338 P  
HETATM   11  H   UNL     1     -12.755  13.030  66.057  1.00  0.00     0.000 HD 
HETATM   12  O   UNL     1     -10.280  15.999  65.677  1.00  0.00    -0.351 OA 
HETATM   13  O   UNL     1     -10.476  14.121  64.467  1.00  0.00    -0.408 OA 
HETATM   14  O   UNL     1      -8.946  14.308  66.394  1.00  0.00    -0.188 OA 
HETATM   15  O   UNL     1     -11.442  12.557  69.830  1.00  0.00    -0.233 OA 
HETATM   16  O   UNL     1     -12.404  13.732  68.071  1.00  0.00    -0.241 OA 
HETATM   17  O   UNL     1     -12.134  11.330  68.049  1.00  0.00    -0.638 OA 
ENDBRANCH   6   7
ENDBRANCH   5   6
ENDBRANCH   4   5
TORSDOF 3
ENDMDL
MODEL       17
REMARK 921   NORMALIZED FREE ENERGY PREDICTED BY IDOCK:   -4.74 KCAL/MOL
REMARK 922        TOTAL FREE ENERGY PREDICTED BY IDOCK:   -5.91 KCAL/MOL
REMARK 923 INTER-LIGAND FREE ENERGY PREDICTED BY IDOCK:   -5.63 KCAL/MOL
REMARK 924 INTRA-LIGAND FREE ENERGY PREDICTED BY IDOCK:   -0.28 KCAL/MOL
REMARK 927      BINDING AFFINITY PREDICTED BY RF-SCORE:    0.00 PKD
ROOT
HETATM    1  N   UNL     1     -12.432  14.244  63.225  1.00  0.00    -1.068 NA 
HETATM    2  H2  UNL     1     -11.712  14.687  63.796  1.00  0.00     0.000 HD 
HETATM    3  H1  UNL     1     -12.369  14.545  62.253  1.00  0.00     0.000 HD 
HETATM    4  C   UNL     1     -12.389  12.795  63.361  1.00  0.00    -0.437 C  
ENDROOT
BRANCH   4   5
HETATM    5  C   UNL     1     -12.484  12.342  64.818  1.00  0.00    -0.480 C  
BRANCH   5   6
HETATM    6  C   UNL     1     -12.546  13.500  65.824  1.00  0.00    -0.490 C  
BRANCH   6   7
HETATM    7  C   UNL     1     -11.489  13.490  66.975  1.00  0.00    -0.340 C  
HETATM    8  O   UNL     1     -12.212  13.811  68.220  1.00  0.00    -0.431 OA 
HETATM    9  P   UNL     1     -10.890  11.769  67.155  1.00  0.00    -0.289 P  
HETATM   10  P   UNL     1     -10.058  14.627  66.880  1.00  0.00    -0.266 P  
HETATM   11  H   UNL     1     -11.569  13.804  68.920  1.00  0.00     0.000 HD 
HETATM   12  O   UNL     1      -8.847  15.589  66.800  1.00  0.00    -0.221 OA 
HETATM   13  O   UNL     1     -11.063  15.926  66.882  1.00  0.00    -0.228 OA 
HETATM   14  O   UNL     1     -10.008  14.404  65.251  1.00  0.00    -0.356 OA 
HETATM   15  O   UNL     1     -10.384  10.315  67.308  1.00  0.00    -0.205 OA 
HETATM   16  O   UNL     1     -10.090  12.283  68.506  1.00  0.00    -0.216 OA 
HETATM   17  O   UNL     1     -12.271  11.378  67.989  1.00  0.00    -0.607 OA 
ENDBRANCH   6   7
ENDBRANCH   5   6
ENDBRANCH   4   5
TORSDOF 3
ENDMDL
MODEL       18
REMARK 921   NORMALIZED FREE ENERGY PREDICTED BY IDOCK:   -4.72 KCAL/MOL
REMARK 922        TOTAL FREE ENERGY PREDICTED BY IDOCK:   -5.90 KCAL/MOL
REMARK 923 INTER-LIGAND FREE ENERGY PREDICTED BY IDOCK:   -5.32 KCAL/MOL
REMARK 924 INTRA-LIGAND FREE ENERGY PREDICTED BY IDOCK:   -0.58 KCAL/MOL
REMARK 927      BINDING AFFINITY PREDICTED BY RF-SCORE:    0.00 PKD
ROOT
HETATM    1  N   UNL     1      -9.309  14.705  69.152  1.00  0.00    -0.378 NA 
HETATM    2  H2  UNL     1      -8.857  14.209  68.384  1.00  0.00     0.000 HD 
HETATM    3  H1  UNL     1      -8.701  14.748  69.971  1.00  0.00     0.000 HD 
HETATM    4  C   UNL     1      -9.766  16.021  68.730  1.00  0.00    -0.226 C  
ENDROOT
BRANCH   4   5
HETATM    5  C   UNL     1     -10.677  15.956  67.504  1.00  0.00    -0.318 C  
BRANCH   5   6
HETATM    6  C   UNL     1     -10.401  14.755  66.589  1.00  0.00    -0.273 C  
BRANCH   6   7
HETATM    7  C   UNL     1     -11.565  13.729  66.405  1.00  0.00    -0.360 C  
HETATM    8  O   UNL     1     -12.808  14.418  66.800  1.00  0.00    -0.367 OA 
HETATM    9  P   UNL     1     -11.714  13.383  64.613  1.00  0.00    -0.416 P  
HETATM   10  P   UNL     1     -11.514  12.149  67.328  1.00  0.00    -0.315 P  
HETATM   11  H   UNL     1     -13.516  13.794  66.687  1.00  0.00     0.000 HD 
HETATM   12  O   UNL     1     -11.471  10.813  68.110  1.00  0.00    -0.349 OA 
HETATM   13  O   UNL     1     -11.533  12.959  68.757  1.00  0.00    -0.260 OA 
HETATM   14  O   UNL     1      -9.881  12.106  67.135  1.00  0.00    -0.195 OA 
HETATM   15  O   UNL     1     -11.840  13.091  63.099  1.00  0.00    -0.494 OA 
HETATM   16  O   UNL     1     -13.086  12.539  64.980  1.00  0.00    -0.765 OA 
HETATM   17  O   UNL     1     -12.521  14.819  64.406  1.00  0.00    -0.599 OA 
ENDBRANCH   6   7
ENDBRANCH   5   6
ENDBRANCH   4   5
TORSDOF 3
ENDMDL
MODEL       19
REMARK 921   NORMALIZED FREE ENERGY PREDICTED BY IDOCK:   -4.69 KCAL/MOL
REMARK 922        TOTAL FREE ENERGY PREDICTED BY IDOCK:   -5.86 KCAL/MOL
REMARK 923 INTER-LIGAND FREE ENERGY PREDICTED BY IDOCK:   -5.20 KCAL/MOL
REMARK 924 INTRA-LIGAND FREE ENERGY PREDICTED BY IDOCK:   -0.66 KCAL/MOL
REMARK 927      BINDING AFFINITY PREDICTED BY RF-SCORE:    0.00 PKD
ROOT
HETATM    1  N   UNL     1      -8.134  10.875  63.638  1.00  0.00    -0.358 NA 
HETATM    2  H2  UNL     1      -7.541  11.678  63.844  1.00  0.00     0.000 HD 
HETATM    3  H1  UNL     1      -7.812  10.384  62.803  1.00  0.00     0.000 HD 
HETATM    4  C   UNL     1      -8.244   9.994  64.792  1.00  0.00    -0.155 C  
ENDROOT
BRANCH   4   5
HETATM    5  C   UNL     1      -8.726  10.729  66.043  1.00  0.00    -0.190 C  
BRANCH   5   6
HETATM    6  C   UNL     1     -10.251  10.883  66.122  1.00  0.00    -0.304 C  
BRANCH   6   7
HETATM    7  C   UNL     1     -10.826  12.320  65.905  1.00  0.00    -0.271 C  
HETATM    8  O   UNL     1      -9.705  13.163  65.447  1.00  0.00    -0.478 OA 
HETATM    9  P   UNL     1     -12.010  12.233  64.512  1.00  0.00    -0.342 P  
HETATM   10  P   UNL     1     -11.605  13.188  67.315  1.00  0.00    -0.376 P  
HETATM   11  H   UNL     1     -10.055  14.036  65.315  1.00  0.00     0.000 HD 
HETATM   12  O   UNL     1     -12.265  13.924  68.508  1.00  0.00    -0.342 OA 
HETATM   13  O   UNL     1     -10.196  13.132  68.157  1.00  0.00    -0.227 OA 
HETATM   14  O   UNL     1     -12.219  11.755  67.839  1.00  0.00    -0.538 OA 
HETATM   15  O   UNL     1     -13.011  12.160  63.333  1.00  0.00    -0.776 OA 
HETATM   16  O   UNL     1     -12.086  13.882  64.590  1.00  0.00    -0.393 OA 
HETATM   17  O   UNL     1     -10.744  12.233  63.438  1.00  0.00    -0.446 OA 
ENDBRANCH   6   7
ENDBRANCH   5   6
ENDBRANCH   4   5
TORSDOF 3
ENDMDL
MODEL       20
REMARK 921   NORMALIZED FREE ENERGY PREDICTED BY IDOCK:   -4.69 KCAL/MOL
REMARK 922        TOTAL FREE ENERGY PREDICTED BY IDOCK:   -5.85 KCAL/MOL
REMARK 923 INTER-LIGAND FREE ENERGY PREDICTED BY IDOCK:   -5.63 KCAL/MOL
REMARK 924 INTRA-LIGAND FREE ENERGY PREDICTED BY IDOCK:   -0.23 KCAL/MOL
REMARK 927      BINDING AFFINITY PREDICTED BY RF-SCORE:    0.00 PKD
ROOT
HETATM    1  N   UNL     1     -12.438  15.230  69.462  1.00  0.00    -0.597 NA 
HETATM    2  H2  UNL     1     -11.781  15.095  70.230  1.00  0.00     0.000 HD 
HETATM    3  H1  UNL     1     -12.960  16.099  69.572  1.00  0.00     0.000 HD 
HETATM    4  C   UNL     1     -11.763  15.147  68.175  1.00  0.00    -0.302 C  
ENDROOT
BRANCH   4   5
HETATM    5  C   UNL     1     -10.980  13.844  68.009  1.00  0.00    -0.267 C  
BRANCH   5   6
HETATM    6  C   UNL     1     -11.609  12.867  67.006  1.00  0.00    -0.419 C  
BRANCH   6   7
HETATM    7  C   UNL     1     -10.928  12.761  65.604  1.00  0.00    -0.273 C  
HETATM    8  O   UNL     1      -9.760  13.662  65.628  1.00  0.00    -0.460 OA 
HETATM    9  P   UNL     1     -10.266  11.062  65.441  1.00  0.00    -0.265 P  
HETATM   10  P   UNL     1     -11.897  13.184  64.110  1.00  0.00    -0.476 P  
HETATM   11  H   UNL     1      -9.346  13.597  64.776  1.00  0.00     0.000 HD 
HETATM   12  O   UNL     1     -12.716  13.543  62.846  1.00  0.00    -0.569 OA 
HETATM   13  O   UNL     1     -12.110  14.719  64.656  1.00  0.00    -0.443 OA 
HETATM   14  O   UNL     1     -13.233  12.527  64.809  1.00  0.00    -0.839 OA 
HETATM   15  O   UNL     1      -9.707   9.626  65.304  1.00  0.00    -0.300 OA 
HETATM   16  O   UNL     1      -9.544  11.572  64.046  1.00  0.00    -0.224 OA 
HETATM   17  O   UNL     1      -8.971  11.478  66.392  1.00  0.00    -0.190 OA 
ENDBRANCH   6   7
ENDBRANCH   5   6
ENDBRANCH   4   5
TORSDOF 3
ENDMDL
MODEL       21
REMARK 921   NORMALIZED FREE ENERGY PREDICTED BY IDOCK:   -4.67 KCAL/MOL
REMARK 922        TOTAL FREE ENERGY PREDICTED BY IDOCK:   -5.83 KCAL/MOL
REMARK 923 INTER-LIGAND FREE ENERGY PREDICTED BY IDOCK:   -5.16 KCAL/MOL
REMARK 924 INTRA-LIGAND FREE ENERGY PREDICTED BY IDOCK:   -0.67 KCAL/MOL
REMARK 927      BINDING AFFINITY PREDICTED BY RF-SCORE:    0.00 PKD
ROOT
HETATM    1  N   UNL     1     -12.943  12.532  64.753  1.00  0.00    -0.842 NA 
HETATM    2  H2  UNL     1     -13.631  13.273  64.880  1.00  0.00     0.000 HD 
HETATM    3  H1  UNL     1     -13.357  11.718  64.299  1.00  0.00     0.000 HD 
HETATM    4  C   UNL     1     -11.767  13.022  64.048  1.00  0.00    -0.436 C  
ENDROOT
BRANCH   4   5
HETATM    5  C   UNL     1     -11.145  14.242  64.728  1.00  0.00    -0.398 C  
BRANCH   5   6
HETATM    6  C   UNL     1     -10.283  13.897  65.950  1.00  0.00    -0.326 C  
BRANCH   6   7
HETATM    7  C   UNL     1     -10.931  14.117  67.355  1.00  0.00    -0.299 C  
HETATM    8  O   UNL     1     -12.378  14.300  67.132  1.00  0.00    -0.590 OA 
HETATM    9  P   UNL     1     -10.746  12.558  68.295  1.00  0.00    -0.244 P  
HETATM   10  P   UNL     1     -10.368  15.521  68.385  1.00  0.00    -0.242 P  
HETATM   11  H   UNL     1     -12.772  14.434  67.987  1.00  0.00     0.000 HD 
HETATM   12  O   UNL     1      -9.891  16.710  69.256  1.00  0.00    -0.251 OA 
HETATM   13  O   UNL     1     -10.848  16.588  67.232  1.00  0.00    -0.280 OA 
HETATM   14  O   UNL     1      -8.836  15.293  67.832  1.00  0.00    -0.163 OA 
HETATM   15  O   UNL     1     -10.590  11.239  69.091  1.00  0.00    -0.218 OA 
HETATM   16  O   UNL     1     -11.714  13.242  69.447  1.00  0.00    -0.290 OA 
HETATM   17  O   UNL     1     -12.021  11.904  67.457  1.00  0.00    -0.586 OA 
ENDBRANCH   6   7
ENDBRANCH   5   6
ENDBRANCH   4   5
TORSDOF 3
ENDMDL
MODEL       22
REMARK 921   NORMALIZED FREE ENERGY PREDICTED BY IDOCK:   -4.66 KCAL/MOL
REMARK 922        TOTAL FREE ENERGY PREDICTED BY IDOCK:   -5.82 KCAL/MOL
REMARK 923 INTER-LIGAND FREE ENERGY PREDICTED BY IDOCK:   -5.35 KCAL/MOL
REMARK 924 INTRA-LIGAND FREE ENERGY PREDICTED BY IDOCK:   -0.47 KCAL/MOL
REMARK 927      BINDING AFFINITY PREDICTED BY RF-SCORE:    0.00 PKD
ROOT
HETATM    1  N   UNL     1     -12.381  14.754  68.436  1.00  0.00    -0.593 NA 
HETATM    2  H2  UNL     1     -13.267  14.610  67.953  1.00  0.00     0.000 HD 
HETATM    3  H1  UNL     1     -12.483  15.420  69.202  1.00  0.00     0.000 HD 
HETATM    4  C   UNL     1     -11.813  13.487  68.874  1.00  0.00    -0.345 C  
ENDROOT
BRANCH   4   5
HETATM    5  C   UNL     1     -11.659  12.488  67.727  1.00  0.00    -0.401 C  
BRANCH   5   6
HETATM    6  C   UNL     1     -10.869  13.036  66.530  1.00  0.00    -0.294 C  
BRANCH   6   7
HETATM    7  C   UNL     1     -11.503  12.834  65.117  1.00  0.00    -0.321 C  
HETATM    8  O   UNL     1     -12.773  12.111  65.318  1.00  0.00    -0.430 OA 
HETATM    9  P   UNL     1     -11.948  14.489  64.473  1.00  0.00    -0.381 P  
HETATM   10  P   UNL     1     -10.563  11.916  63.842  1.00  0.00    -0.490 P  
HETATM   11  H   UNL     1     -13.159  11.989  64.458  1.00  0.00     0.000 HD 
HETATM   12  O   UNL     1      -9.768  11.140  62.764  1.00  0.00    -0.308 OA 
HETATM   13  O   UNL     1     -10.551  10.573  64.787  1.00  0.00    -0.253 OA 
HETATM   14  O   UNL     1      -9.171  12.583  64.410  1.00  0.00     0.461 OA 
HETATM   15  O   UNL     1     -12.324  15.888  63.929  1.00  0.00    -0.776 OA 
HETATM   16  O   UNL     1     -12.698  13.705  63.227  1.00  0.00    -0.765 OA 
HETATM   17  O   UNL     1     -13.304  14.495  65.431  1.00  0.00    -0.458 OA 
ENDBRANCH   6   7
ENDBRANCH   5   6
ENDBRANCH   4   5
TORSDOF 3
ENDMDL
MODEL       23
REMARK 921   NORMALIZED FREE ENERGY PREDICTED BY IDOCK:   -4.61 KCAL/MOL
REMARK 922        TOTAL FREE ENERGY PREDICTED BY IDOCK:   -5.76 KCAL/MOL
REMARK 923 INTER-LIGAND FREE ENERGY PREDICTED BY IDOCK:   -5.12 KCAL/MOL
REMARK 924 INTRA-LIGAND FREE ENERGY PREDICTED BY IDOCK:   -0.64 KCAL/MOL
REMARK 927      BINDING AFFINITY PREDICTED BY RF-SCORE:    0.00 PKD
ROOT
HETATM    1  N   UNL     1     -11.550  12.676  70.080  1.00  0.00    -0.531 NA 
HETATM    2  H2  UNL     1     -10.623  12.616  70.501  1.00  0.00     0.000 HD 
HETATM    3  H1  UNL     1     -12.150  11.917  70.402  1.00  0.00     0.000 HD 
HETATM    4  C   UNL     1     -12.144  13.986  70.303  1.00  0.00    -0.355 C  
ENDROOT
BRANCH   4   5
HETATM    5  C   UNL     1     -11.245  15.124  69.820  1.00  0.00    -0.298 C  
BRANCH   5   6
HETATM    6  C   UNL     1     -11.564  15.606  68.398  1.00  0.00    -0.358 C  
BRANCH   6   7
HETATM    7  C   UNL     1     -10.664  15.053  67.248  1.00  0.00    -0.298 C  
HETATM    8  O   UNL     1      -9.872  13.947  67.820  1.00  0.00    -0.226 OA 
HETATM    9  P   UNL     1     -11.770  14.301  65.998  1.00  0.00    -0.374 P  
HETATM   10  P   UNL     1      -9.484  16.180  66.419  1.00  0.00    -0.348 P  
HETATM   11  H   UNL     1      -9.325  13.611  67.120  1.00  0.00     0.000 HD 
HETATM   12  O   UNL     1      -8.486  17.135  65.718  1.00  0.00    -0.522 OA 
HETATM   13  O   UNL     1      -8.701  16.440  67.839  1.00  0.00    -0.177 OA 
HETATM   14  O   UNL     1     -10.578  17.401  66.557  1.00  0.00    -0.285 OA 
HETATM   15  O   UNL     1     -12.705  13.665  64.941  1.00  0.00    -0.629 OA 
HETATM   16  O   UNL     1     -10.404  13.745  65.252  1.00  0.00    -0.329 OA 
HETATM   17  O   UNL     1     -11.929  12.953  66.953  1.00  0.00    -0.385 OA 
ENDBRANCH   6   7
ENDBRANCH   5   6
ENDBRANCH   4   5
TORSDOF 3
ENDMDL
MODEL       24
REMARK 921   NORMALIZED FREE ENERGY PREDICTED BY IDOCK:   -4.59 KCAL/MOL
REMARK 922        TOTAL FREE ENERGY PREDICTED BY IDOCK:   -5.74 KCAL/MOL
REMARK 923 INTER-LIGAND FREE ENERGY PREDICTED BY IDOCK:   -5.27 KCAL/MOL
REMARK 924 INTRA-LIGAND FREE ENERGY PREDICTED BY IDOCK:   -0.47 KCAL/MOL
REMARK 927      BINDING AFFINITY PREDICTED BY RF-SCORE:    0.00 PKD
ROOT
HETATM    1  N   UNL     1     -11.027   9.162  67.731  1.00  0.00    -0.492 NA 
HETATM    2  H2  UNL     1     -11.699   8.636  67.174  1.00  0.00     0.000 HD 
HETATM    3  H1  UNL     1     -10.765   8.651  68.573  1.00  0.00     0.000 HD 
HETATM    4  C   UNL     1      -9.870   9.545  66.933  1.00  0.00    -0.204 C  
ENDROOT
BRANCH   4   5
HETATM    5  C   UNL     1     -10.261  10.312  65.669  1.00  0.00    -0.301 C  
BRANCH   5   6
HETATM    6  C   UNL     1      -9.963  11.816  65.741  1.00  0.00    -0.269 C  
BRANCH   6   7
HETATM    7  C   UNL     1     -11.106  12.736  66.280  1.00  0.00    -0.288 C  
HETATM    8  O   UNL     1     -12.149  11.845  66.823  1.00  0.00    -0.593 OA 
HETATM    9  P   UNL     1     -10.434  13.671  67.702  1.00  0.00    -0.242 P  
HETATM   10  P   UNL     1     -11.938  13.890  65.128  1.00  0.00    -0.436 P  
HETATM   11  H   UNL     1     -12.844  12.404  67.151  1.00  0.00     0.000 HD 
HETATM   12  O   UNL     1     -12.641  14.867  64.154  1.00  0.00    -0.785 OA 
HETATM   13  O   UNL     1     -12.447  12.633  64.201  1.00  0.00    -0.529 OA 
HETATM   14  O   UNL     1     -10.501  14.142  64.367  1.00  0.00    -0.329 OA 
HETATM   15  O   UNL     1      -9.865  14.462  68.905  1.00  0.00    -0.218 OA 
HETATM   16  O   UNL     1     -11.974  14.210  67.963  1.00  0.00    -0.355 OA 
HETATM   17  O   UNL     1     -10.621  12.334  68.667  1.00  0.00    -0.228 OA 
ENDBRANCH   6   7
ENDBRANCH   5   6
ENDBRANCH   4   5
TORSDOF 3
ENDMDL
MODEL       25
REMARK 921   NORMALIZED FREE ENERGY PREDICTED BY IDOCK:   -4.59 KCAL/MOL
REMARK 922        TOTAL FREE ENERGY PREDICTED BY IDOCK:   -5.74 KCAL/MOL
REMARK 923 INTER-LIGAND FREE ENERGY PREDICTED BY IDOCK:   -5.23 KCAL/MOL
REMARK 924 INTRA-LIGAND FREE ENERGY PREDICTED BY IDOCK:   -0.50 KCAL/MOL
REMARK 927      BINDING AFFINITY PREDICTED BY RF-SCORE:    0.00 PKD
ROOT
HETATM    1  N   UNL     1     -11.790  12.119  67.309  1.00  0.00    -0.579 NA 
HETATM    2  H2  UNL     1     -12.516  12.564  67.870  1.00  0.00     0.000 HD 
HETATM    3  H1  UNL     1     -11.711  11.126  67.529  1.00  0.00     0.000 HD 
HETATM    4  C   UNL     1     -12.004  12.357  65.889  1.00  0.00    -0.367 C  
ENDROOT
BRANCH   4   5
HETATM    5  C   UNL     1     -12.122  13.845  65.558  1.00  0.00    -0.425 C  
BRANCH   5   6
HETATM    6  C   UNL     1     -11.537  14.768  66.636  1.00  0.00    -0.319 C  
BRANCH   6   7
HETATM    7  C   UNL     1     -10.130  15.384  66.348  1.00  0.00    -0.279 C  
HETATM    8  O   UNL     1      -9.731  14.926  65.004  1.00  0.00    -0.384 OA 
HETATM    9  P   UNL     1     -10.339  17.199  66.233  1.00  0.00    -0.205 P  
HETATM   10  P   UNL     1      -8.742  15.001  67.477  1.00  0.00    -0.208 P  
HETATM   11  H   UNL     1      -8.875  15.301  64.829  1.00  0.00     0.000 HD 
HETATM   12  O   UNL     1      -7.567  14.676  68.433  1.00  0.00    -0.106 OA 
HETATM   13  O   UNL     1      -8.874  13.400  67.132  1.00  0.00    -0.209 OA 
HETATM   14  O   UNL     1      -9.788  15.027  68.747  1.00  0.00    -0.218 OA 
HETATM   15  O   UNL     1     -10.515  18.734  66.135  1.00  0.00    -0.437 OA 
HETATM   16  O   UNL     1      -8.764  17.260  65.736  1.00  0.00    -0.531 OA 
HETATM   17  O   UNL     1     -10.933  17.031  64.692  1.00  0.00    -0.968 OA 
ENDBRANCH   6   7
ENDBRANCH   5   6
ENDBRANCH   4   5
TORSDOF 3
ENDMDL
MODEL       26
REMARK 921   NORMALIZED FREE ENERGY PREDICTED BY IDOCK:   -4.55 KCAL/MOL
REMARK 922        TOTAL FREE ENERGY PREDICTED BY IDOCK:   -5.69 KCAL/MOL
REMARK 923 INTER-LIGAND FREE ENERGY PREDICTED BY IDOCK:   -5.10 KCAL/MOL
REMARK 924 INTRA-LIGAND FREE ENERGY PREDICTED BY IDOCK:   -0.59 KCAL/MOL
REMARK 927      BINDING AFFINITY PREDICTED BY RF-SCORE:    0.00 PKD
ROOT
HETATM    1  N   UNL     1     -10.883  11.581  69.523  1.00  0.00    -0.440 NA 
HETATM    2  H2  UNL     1     -11.787  11.883  69.160  1.00  0.00     0.000 HD 
HETATM    3  H1  UNL     1     -10.976  11.180  70.456  1.00  0.00     0.000 HD 
HETATM    4  C   UNL     1     -10.221  10.677  68.593  1.00  0.00    -0.182 C  
ENDROOT
BRANCH   4   5
HETATM    5  C   UNL     1     -10.081  11.278  67.194  1.00  0.00    -0.223 C  
BRANCH   5   6
HETATM    6  C   UNL     1     -11.232  12.216  66.805  1.00  0.00    -0.375 C  
BRANCH   6   7
HETATM    7  C   UNL     1     -10.848  13.685  66.434  1.00  0.00    -0.290 C  
HETATM    8  O   UNL     1      -9.433  13.664  66.018  1.00  0.00    -0.456 OA 
HETATM    9  P   UNL     1     -11.816  14.147  64.950  1.00  0.00    -0.449 P  
HETATM   10  P   UNL     1     -11.012  14.995  67.701  1.00  0.00    -0.320 P  
HETATM   11  H   UNL     1      -9.200  14.557  65.792  1.00  0.00     0.000 HD 
HETATM   12  O   UNL     1     -11.151  16.103  68.774  1.00  0.00    -0.313 OA 
HETATM   13  O   UNL     1      -9.929  14.226  68.668  1.00  0.00    -0.233 OA 
HETATM   14  O   UNL     1     -12.365  14.252  68.272  1.00  0.00    -0.224 OA 
HETATM   15  O   UNL     1     -12.634  14.538  63.696  1.00  0.00    -0.798 OA 
HETATM   16  O   UNL     1     -10.913  15.530  64.901  1.00  0.00    -0.419 OA 
HETATM   17  O   UNL     1     -10.758  13.293  63.998  1.00  0.00    -0.377 OA 
ENDBRANCH   6   7
ENDBRANCH   5   6
ENDBRANCH   4   5
TORSDOF 3
ENDMDL
MODEL       27
REMARK 921   NORMALIZED FREE ENERGY PREDICTED BY IDOCK:   -4.51 KCAL/MOL
REMARK 922        TOTAL FREE ENERGY PREDICTED BY IDOCK:   -5.65 KCAL/MOL
REMARK 923 INTER-LIGAND FREE ENERGY PREDICTED BY IDOCK:   -5.45 KCAL/MOL
REMARK 924 INTRA-LIGAND FREE ENERGY PREDICTED BY IDOCK:   -0.20 KCAL/MOL
REMARK 927      BINDING AFFINITY PREDICTED BY RF-SCORE:    0.00 PKD
ROOT
HETATM    1  N   UNL     1     -12.169  10.479  68.941  1.00  0.00    -0.773 NA 
HETATM    2  H2  UNL     1     -12.940  10.125  68.377  1.00  0.00     0.000 HD 
HETATM    3  H1  UNL     1     -11.776   9.745  69.531  1.00  0.00     0.000 HD 
HETATM    4  C   UNL     1     -11.162  11.121  68.108  1.00  0.00    -0.292 C  
ENDROOT
BRANCH   4   5
HETATM    5  C   UNL     1     -11.750  12.221  67.224  1.00  0.00    -0.394 C  
BRANCH   5   6
HETATM    6  C   UNL     1     -10.724  13.271  66.776  1.00  0.00    -0.279 C  
BRANCH   6   7
HETATM    7  C   UNL     1     -11.165  14.767  66.860  1.00  0.00    -0.347 C  
HETATM    8  O   UNL     1     -12.455  14.792  67.575  1.00  0.00    -0.487 OA 
HETATM    9  P   UNL     1      -9.963  15.635  67.934  1.00  0.00    -0.225 P  
HETATM   10  P   UNL     1     -11.395  15.715  65.312  1.00  0.00     0.013 P  
HETATM   11  H   UNL     1     -12.723  15.702  67.626  1.00  0.00     0.000 HD 
HETATM   12  O   UNL     1     -11.590  16.518  64.001  1.00  0.00    -1.154 OA 
HETATM   13  O   UNL     1     -12.573  14.679  64.826  1.00  0.00    -0.514 OA 
HETATM   14  O   UNL     1     -10.123  14.912  64.648  1.00  0.00    -0.183 OA 
HETATM   15  O   UNL     1      -8.947  16.369  68.842  1.00  0.00    -0.240 OA 
HETATM   16  O   UNL     1     -10.968  16.944  67.850  1.00  0.00    -0.342 OA 
HETATM   17  O   UNL     1     -10.713  15.008  69.275  1.00  0.00    -0.231 OA 
ENDBRANCH   6   7
ENDBRANCH   5   6
ENDBRANCH   4   5
TORSDOF 3
ENDMDL
MODEL       28
REMARK 921   NORMALIZED FREE ENERGY PREDICTED BY IDOCK:   -4.50 KCAL/MOL
REMARK 922        TOTAL FREE ENERGY PREDICTED BY IDOCK:   -5.64 KCAL/MOL
REMARK 923 INTER-LIGAND FREE ENERGY PREDICTED BY IDOCK:   -5.35 KCAL/MOL
REMARK 924 INTRA-LIGAND FREE ENERGY PREDICTED BY IDOCK:   -0.29 KCAL/MOL
REMARK 927      BINDING AFFINITY PREDICTED BY RF-SCORE:    0.00 PKD
ROOT
HETATM    1  N   UNL     1      -8.252  13.641  69.050  1.00  0.00    -0.339 NA 
HETATM    2  H2  UNL     1      -9.114  14.181  69.114  1.00  0.00     0.000 HD 
HETATM    3  H1  UNL     1      -7.870  13.445  69.976  1.00  0.00     0.000 HD 
HETATM    4  C   UNL     1      -8.447  12.431  68.263  1.00  0.00    -0.170 C  
ENDROOT
BRANCH   4   5
HETATM    5  C   UNL     1      -9.018  12.724  66.875  1.00  0.00    -0.213 C  
BRANCH   5   6
HETATM    6  C   UNL     1     -10.546  12.861  66.850  1.00  0.00    -0.262 C  
BRANCH   6   7
HETATM    7  C   UNL     1     -11.130  14.097  66.094  1.00  0.00    -0.312 C  
HETATM    8  O   UNL     1     -12.187  14.663  66.954  1.00  0.00    -0.459 OA 
HETATM    9  P   UNL     1      -9.808  15.360  66.002  1.00  0.00    -0.370 P  
HETATM   10  P   UNL     1     -11.864  13.860  64.434  1.00  0.00    -0.396 P  
HETATM   11  H   UNL     1     -12.541  15.415  66.494  1.00  0.00     0.000 HD 
HETATM   12  O   UNL     1     -12.484  13.660  63.029  1.00  0.00    -0.719 OA 
HETATM   13  O   UNL     1     -12.991  12.839  65.054  1.00  0.00    -0.811 OA 
HETATM   14  O   UNL     1     -10.716  12.729  64.105  1.00  0.00    -0.362 OA 
HETATM   15  O   UNL     1      -8.690  16.427  65.924  1.00  0.00    -0.425 OA 
HETATM   16  O   UNL     1     -10.952  16.386  65.396  1.00  0.00    -0.271 OA 
HETATM   17  O   UNL     1     -10.106  15.783  67.579  1.00  0.00    -0.238 OA 
ENDBRANCH   6   7
ENDBRANCH   5   6
ENDBRANCH   4   5
TORSDOF 3
ENDMDL
MODEL       29
REMARK 921   NORMALIZED FREE ENERGY PREDICTED BY IDOCK:   -4.49 KCAL/MOL
REMARK 922        TOTAL FREE ENERGY PREDICTED BY IDOCK:   -5.62 KCAL/MOL
REMARK 923 INTER-LIGAND FREE ENERGY PREDICTED BY IDOCK:   -5.10 KCAL/MOL
REMARK 924 INTRA-LIGAND FREE ENERGY PREDICTED BY IDOCK:   -0.53 KCAL/MOL
REMARK 927      BINDING AFFINITY PREDICTED BY RF-SCORE:    0.00 PKD
ROOT
HETATM    1  N   UNL     1     -12.303  13.885  63.505  1.00  0.00    -1.087 NA 
HETATM    2  H2  UNL     1     -11.380  14.197  63.207  1.00  0.00     0.000 HD 
HETATM    3  H1  UNL     1     -13.040  14.390  63.013  1.00  0.00     0.000 HD 
HETATM    4  C   UNL     1     -12.437  12.441  63.372  1.00  0.00    -0.446 C  
ENDROOT
BRANCH   4   5
HETATM    5  C   UNL     1     -11.333  11.683  64.110  1.00  0.00    -0.397 C  
BRANCH   5   6
HETATM    6  C   UNL     1     -10.455  12.576  64.999  1.00  0.00    -0.323 C  
BRANCH   6   7
HETATM    7  C   UNL     1     -10.753  12.554  66.532  1.00  0.00    -0.240 C  
HETATM    8  O   UNL     1     -11.864  11.605  66.737  1.00  0.00    -0.557 OA 
HETATM    9  P   UNL     1      -9.294  11.829  67.365  1.00  0.00    -0.182 P  
HETATM   10  P   UNL     1     -11.222  14.112  67.370  1.00  0.00    -0.351 P  
HETATM   11  H   UNL     1     -12.045  11.592  67.670  1.00  0.00     0.000 HD 
HETATM   12  O   UNL     1     -11.619  15.431  68.079  1.00  0.00    -0.344 OA 
HETATM   13  O   UNL     1     -12.551  14.252  66.414  1.00  0.00    -0.396 OA 
HETATM   14  O   UNL     1     -10.179  14.931  66.397  1.00  0.00    -0.267 OA 
HETATM   15  O   UNL     1      -8.060  11.216  68.070  1.00  0.00    -0.114 OA 
HETATM   16  O   UNL     1     -10.190  11.841  68.753  1.00  0.00    -0.211 OA 
HETATM   17  O   UNL     1      -9.798  10.311  66.923  1.00  0.00    -0.182 OA 
ENDBRANCH   6   7
ENDBRANCH   5   6
ENDBRANCH   4   5
TORSDOF 3
ENDMDL
MODEL       30
REMARK 921   NORMALIZED FREE ENERGY PREDICTED BY IDOCK:   -4.48 KCAL/MOL
REMARK 922        TOTAL FREE ENERGY PREDICTED BY IDOCK:   -5.61 KCAL/MOL
REMARK 923 INTER-LIGAND FREE ENERGY PREDICTED BY IDOCK:   -5.61 KCAL/MOL
REMARK 924 INTRA-LIGAND FREE ENERGY PREDICTED BY IDOCK:   -0.01 KCAL/MOL
REMARK 927      BINDING AFFINITY PREDICTED BY RF-SCORE:    0.00 PKD
ROOT
HETATM    1  N   UNL     1     -12.391  14.661  63.626  1.00  0.00    -1.089 NA 
HETATM    2  H2  UNL     1     -11.926  15.067  62.814  1.00  0.00     0.000 HD 
HETATM    3  H1  UNL     1     -12.908  13.819  63.371  1.00  0.00     0.000 HD 
HETATM    4  C   UNL     1     -11.445  14.425  64.707  1.00  0.00    -0.402 C  
ENDROOT
BRANCH   4   5
HETATM    5  C   UNL     1     -10.671  15.687  65.090  1.00  0.00    -0.463 C  
BRANCH   5   6
HETATM    6  C   UNL     1      -9.686  15.482  66.250  1.00  0.00    -0.328 C  
BRANCH   6   7
HETATM    7  C   UNL     1      -9.659  16.588  67.353  1.00  0.00    -0.238 C  
HETATM    8  O   UNL     1      -8.247  16.772  67.738  1.00  0.00    -0.179 OA 
HETATM    9  P   UNL     1     -10.190  18.156  66.573  1.00  0.00    -0.372 P  
HETATM   10  P   UNL     1     -10.604  16.326  68.899  1.00  0.00    -0.330 P  
HETATM   11  H   UNL     1      -8.231  17.444  68.409  1.00  0.00     0.000 HD 
HETATM   12  O   UNL     1     -11.403  16.104  70.207  1.00  0.00    -0.352 OA 
HETATM   13  O   UNL     1      -9.712  14.990  69.243  1.00  0.00    -0.218 OA 
HETATM   14  O   UNL     1     -11.782  15.572  68.033  1.00  0.00    -0.322 OA 
HETATM   15  O   UNL     1     -10.638  19.483  65.913  1.00  0.00    -0.504 OA 
HETATM   16  O   UNL     1      -9.774  18.899  67.989  1.00  0.00    -0.309 OA 
HETATM   17  O   UNL     1      -8.679  18.334  65.909  1.00  0.00    -0.500 OA 
ENDBRANCH   6   7
ENDBRANCH   5   6
ENDBRANCH   4   5
TORSDOF 3
ENDMDL
MODEL       31
REMARK 921   NORMALIZED FREE ENERGY PREDICTED BY IDOCK:   -4.44 KCAL/MOL
REMARK 922        TOTAL FREE ENERGY PREDICTED BY IDOCK:   -5.56 KCAL/MOL
REMARK 923 INTER-LIGAND FREE ENERGY PREDICTED BY IDOCK:   -5.06 KCAL/MOL
REMARK 924 INTRA-LIGAND FREE ENERGY PREDICTED BY IDOCK:   -0.50 KCAL/MOL
REMARK 927      BINDING AFFINITY PREDICTED BY RF-SCORE:    0.00 PKD
ROOT
HETATM    1  N   UNL     1     -10.021  19.529  69.269  1.00  0.00    -0.547 NA 
HETATM    2  H2  UNL     1      -9.173  18.981  69.131  1.00  0.00     0.000 HD 
HETATM    3  H1  UNL     1      -9.906  20.201  70.028  1.00  0.00     0.000 HD 
HETATM    4  C   UNL     1     -10.446  20.161  68.028  1.00  0.00    -0.249 C  
ENDROOT
BRANCH   4   5
HETATM    5  C   UNL     1     -10.620  19.154  66.891  1.00  0.00    -0.540 C  
BRANCH   5   6
HETATM    6  C   UNL     1     -10.651  17.691  67.357  1.00  0.00    -0.320 C  
BRANCH   6   7
HETATM    7  C   UNL     1      -9.552  16.744  66.776  1.00  0.00    -0.249 C  
HETATM    8  O   UNL     1      -8.666  17.579  65.943  1.00  0.00    -0.525 OA 
HETATM    9  P   UNL     1      -8.537  16.155  68.181  1.00  0.00    -0.186 P  
HETATM   10  P   UNL     1     -10.060  15.316  65.750  1.00  0.00    -0.394 P  
HETATM   11  H   UNL     1      -7.998  17.003  65.591  1.00  0.00     0.000 HD 
HETATM   12  O   UNL     1     -10.489  14.108  64.881  1.00  0.00    -0.404 OA 
HETATM   13  O   UNL     1     -10.749  16.324  64.650  1.00  0.00    -0.670 OA 
HETATM   14  O   UNL     1     -11.382  15.117  66.707  1.00  0.00    -0.326 OA 
HETATM   15  O   UNL     1      -7.678  15.658  69.368  1.00  0.00    -0.211 OA 
HETATM   16  O   UNL     1      -7.529  15.484  67.056  1.00  0.00    -0.215 OA 
HETATM   17  O   UNL     1      -7.728  17.605  68.200  1.00  0.00    -0.226 OA 
ENDBRANCH   6   7
ENDBRANCH   5   6
ENDBRANCH   4   5
TORSDOF 3
ENDMDL
MODEL       32
REMARK 921   NORMALIZED FREE ENERGY PREDICTED BY IDOCK:   -4.44 KCAL/MOL
REMARK 922        TOTAL FREE ENERGY PREDICTED BY IDOCK:   -5.56 KCAL/MOL
REMARK 923 INTER-LIGAND FREE ENERGY PREDICTED BY IDOCK:   -5.39 KCAL/MOL
REMARK 924 INTRA-LIGAND FREE ENERGY PREDICTED BY IDOCK:   -0.17 KCAL/MOL
REMARK 927      BINDING AFFINITY PREDICTED BY RF-SCORE:    0.00 PKD
ROOT
HETATM    1  N   UNL     1     -14.149  15.243  70.940  1.00  0.00    -0.813 NA 
HETATM    2  H2  UNL     1     -14.352  15.096  69.952  1.00  0.00     0.000 HD 
HETATM    3  H1  UNL     1     -14.993  15.492  71.457  1.00  0.00     0.000 HD 
HETATM    4  C   UNL     1     -13.467  14.091  71.513  1.00  0.00    -0.328 C  
ENDROOT
BRANCH   4   5
HETATM    5  C   UNL     1     -12.202  13.718  70.739  1.00  0.00    -0.437 C  
BRANCH   5   6
HETATM    6  C   UNL     1     -12.133  14.329  69.332  1.00  0.00    -0.361 C  
BRANCH   6   7
HETATM    7  C   UNL     1     -10.981  13.829  68.404  1.00  0.00    -0.254 C  
HETATM    8  O   UNL     1     -10.262  12.775  69.145  1.00  0.00    -0.428 OA 
HETATM    9  P   UNL     1     -11.754  13.009  66.961  1.00  0.00    -0.360 P  
HETATM   10  P   UNL     1      -9.723  15.025  67.823  1.00  0.00    -0.217 P  
HETATM   11  H   UNL     1      -9.561  12.471  68.580  1.00  0.00     0.000 HD 
HETATM   12  O   UNL     1      -8.658  16.037  67.332  1.00  0.00    -0.169 OA 
HETATM   13  O   UNL     1      -9.271  15.335  69.372  1.00  0.00    -0.246 OA 
HETATM   14  O   UNL     1     -10.892  16.177  67.712  1.00  0.00    -0.321 OA 
HETATM   15  O   UNL     1     -12.408  12.315  65.742  1.00  0.00    -0.622 OA 
HETATM   16  O   UNL     1     -10.232  12.536  66.526  1.00  0.00    -0.234 OA 
HETATM   17  O   UNL     1     -12.030  11.655  67.882  1.00  0.00    -0.599 OA 
ENDBRANCH   6   7
ENDBRANCH   5   6
ENDBRANCH   4   5
TORSDOF 3
ENDMDL
MODEL       33
REMARK 921   NORMALIZED FREE ENERGY PREDICTED BY IDOCK:   -4.40 KCAL/MOL
REMARK 922        TOTAL FREE ENERGY PREDICTED BY IDOCK:   -5.51 KCAL/MOL
REMARK 923 INTER-LIGAND FREE ENERGY PREDICTED BY IDOCK:   -5.33 KCAL/MOL
REMARK 924 INTRA-LIGAND FREE ENERGY PREDICTED BY IDOCK:   -0.18 KCAL/MOL
REMARK 927      BINDING AFFINITY PREDICTED BY RF-SCORE:    0.00 PKD
ROOT
HETATM    1  N   UNL     1     -12.082  11.242  69.722  1.00  0.00    -0.323 NA 
HETATM    2  H2  UNL     1     -12.838  11.115  69.050  1.00  0.00     0.000 HD 
HETATM    3  H1  UNL     1     -12.139  10.554  70.473  1.00  0.00     0.000 HD 
HETATM    4  C   UNL     1     -10.785  11.235  69.060  1.00  0.00    -0.217 C  
ENDROOT
BRANCH   4   5
HETATM    5  C   UNL     1     -10.700  12.266  67.934  1.00  0.00    -0.243 C  
BRANCH   5   6
HETATM    6  C   UNL     1     -11.328  11.796  66.615  1.00  0.00    -0.381 C  
BRANCH   6   7
HETATM    7  C   UNL     1     -10.772  12.436  65.302  1.00  0.00    -0.287 C  
HETATM    8  O   UNL     1      -9.590  13.232  65.684  1.00  0.00    -0.473 OA 
HETATM    9  P   UNL     1     -10.157  11.074  64.245  1.00  0.00    -0.384 P  
HETATM   10  P   UNL     1     -11.857  13.531  64.317  1.00  0.00    -0.420 P  
HETATM   11  H   UNL     1      -9.252  13.621  64.886  1.00  0.00     0.000 HD 
HETATM   12  O   UNL     1     -12.776  14.458  63.482  1.00  0.00    -0.742 OA 
HETATM   13  O   UNL     1     -11.995  14.570  65.582  1.00  0.00    -0.359 OA 
HETATM   14  O   UNL     1     -13.140  12.573  64.692  1.00  0.00    -0.845 OA 
HETATM   15  O   UNL     1      -9.637   9.922  63.351  1.00  0.00    -0.203 OA 
HETATM   16  O   UNL     1      -9.548  12.242  63.248  1.00  0.00    -0.295 OA 
HETATM   17  O   UNL     1      -8.778  10.986  65.164  1.00  0.00    -0.161 OA 
ENDBRANCH   6   7
ENDBRANCH   5   6
ENDBRANCH   4   5
TORSDOF 3
ENDMDL
MODEL       34
REMARK 921   NORMALIZED FREE ENERGY PREDICTED BY IDOCK:   -4.35 KCAL/MOL
REMARK 922        TOTAL FREE ENERGY PREDICTED BY IDOCK:   -5.46 KCAL/MOL
REMARK 923 INTER-LIGAND FREE ENERGY PREDICTED BY IDOCK:   -4.85 KCAL/MOL
REMARK 924 INTRA-LIGAND FREE ENERGY PREDICTED BY IDOCK:   -0.61 KCAL/MOL
REMARK 927      BINDING AFFINITY PREDICTED BY RF-SCORE:    0.00 PKD
ROOT
HETATM    1  N   UNL     1      -9.666  10.722  69.470  1.00  0.00    -0.435 NA 
HETATM    2  H2  UNL     1      -9.299  11.602  69.110  1.00  0.00     0.000 HD 
HETATM    3  H1  UNL     1      -9.116  10.391  70.264  1.00  0.00     0.000 HD 
HETATM    4  C   UNL     1     -11.083  10.834  69.785  1.00  0.00    -0.281 C  
ENDROOT
BRANCH   4   5
HETATM    5  C   UNL     1     -11.907  11.329  68.596  1.00  0.00    -0.369 C  
BRANCH   5   6
HETATM    6  C   UNL     1     -11.637  12.793  68.221  1.00  0.00    -0.375 C  
BRANCH   6   7
HETATM    7  C   UNL     1     -10.746  13.045  66.963  1.00  0.00    -0.258 C  
HETATM    8  O   UNL     1     -10.321  11.721  66.469  1.00  0.00    -0.214 OA 
HETATM    9  P   UNL     1     -11.819  13.760  65.664  1.00  0.00    -0.414 P  
HETATM   10  P   UNL     1      -9.233  14.061  67.132  1.00  0.00    -0.251 P  
HETATM   11  H   UNL     1      -9.780  11.874  65.703  1.00  0.00     0.000 HD 
HETATM   12  O   UNL     1      -7.953  14.921  67.275  1.00  0.00    -0.185 OA 
HETATM   13  O   UNL     1      -8.610  12.992  68.212  1.00  0.00    -0.177 OA 
HETATM   14  O   UNL     1     -10.016  15.019  68.215  1.00  0.00    -0.218 OA 
HETATM   15  O   UNL     1     -12.727  14.365  64.566  1.00  0.00    -0.663 OA 
HETATM   16  O   UNL     1     -10.535  13.597  64.637  1.00  0.00    -0.411 OA 
HETATM   17  O   UNL     1     -12.419  12.249  65.330  1.00  0.00    -0.596 OA 
ENDBRANCH   6   7
ENDBRANCH   5   6
ENDBRANCH   4   5
TORSDOF 3
ENDMDL
MODEL       35
REMARK 921   NORMALIZED FREE ENERGY PREDICTED BY IDOCK:   -4.30 KCAL/MOL
REMARK 922        TOTAL FREE ENERGY PREDICTED BY IDOCK:   -5.40 KCAL/MOL
REMARK 923 INTER-LIGAND FREE ENERGY PREDICTED BY IDOCK:   -5.03 KCAL/MOL
REMARK 924 INTRA-LIGAND FREE ENERGY PREDICTED BY IDOCK:   -0.37 KCAL/MOL
REMARK 927      BINDING AFFINITY PREDICTED BY RF-SCORE:    0.00 PKD
ROOT
HETATM    1  N   UNL     1     -12.520  14.144  63.530  1.00  0.00    -1.106 NA 
HETATM    2  H2  UNL     1     -12.485  13.368  64.190  1.00  0.00     0.000 HD 
HETATM    3  H1  UNL     1     -13.420  14.182  63.052  1.00  0.00     0.000 HD 
HETATM    4  C   UNL     1     -12.184  15.402  64.181  1.00  0.00    -0.057 C  
ENDROOT
BRANCH   4   5
HETATM    5  C   UNL     1     -10.834  15.347  64.897  1.00  0.00    -0.445 C  
BRANCH   5   6
HETATM    6  C   UNL     1     -10.946  15.250  66.424  1.00  0.00    -0.299 C  
BRANCH   6   7
HETATM    7  C   UNL     1     -10.269  14.016  67.103  1.00  0.00    -0.258 C  
HETATM    8  O   UNL     1      -9.410  13.385  66.083  1.00  0.00    -0.441 OA 
HETATM    9  P   UNL     1      -9.145  14.652  68.401  1.00  0.00    -0.196 P  
HETATM   10  P   UNL     1     -11.324  12.695  67.804  1.00  0.00    -0.340 P  
HETATM   11  H   UNL     1      -8.998  12.636  66.496  1.00  0.00     0.000 HD 
HETATM   12  O   UNL     1     -12.217  11.577  68.397  1.00  0.00    -0.540 OA 
HETATM   13  O   UNL     1     -11.969  12.396  66.324  1.00  0.00    -0.553 OA 
HETATM   14  O   UNL     1     -12.410  13.835  68.278  1.00  0.00    -0.242 OA 
HETATM   15  O   UNL     1      -8.194  15.190  69.498  1.00  0.00    -0.224 OA 
HETATM   16  O   UNL     1      -8.606  13.100  68.571  1.00  0.00    -0.148 OA 
HETATM   17  O   UNL     1      -8.022  15.031  67.239  1.00  0.00    -0.179 OA 
ENDBRANCH   6   7
ENDBRANCH   5   6
ENDBRANCH   4   5
TORSDOF 3
ENDMDL
MODEL       36
REMARK 921   NORMALIZED FREE ENERGY PREDICTED BY IDOCK:   -4.26 KCAL/MOL
REMARK 922        TOTAL FREE ENERGY PREDICTED BY IDOCK:   -5.35 KCAL/MOL
REMARK 923 INTER-LIGAND FREE ENERGY PREDICTED BY IDOCK:   -4.85 KCAL/MOL
REMARK 924 INTRA-LIGAND FREE ENERGY PREDICTED BY IDOCK:   -0.50 KCAL/MOL
REMARK 927      BINDING AFFINITY PREDICTED BY RF-SCORE:    0.00 PKD
ROOT
HETATM    1  N   UNL     1     -12.582  13.996  63.173  1.00  0.00    -0.956 NA 
HETATM    2  H2  UNL     1     -11.935  14.647  63.616  1.00  0.00     0.000 HD 
HETATM    3  H1  UNL     1     -12.632  14.154  62.167  1.00  0.00     0.000 HD 
HETATM    4  C   UNL     1     -12.245  12.618  63.502  1.00  0.00    -0.547 C  
ENDROOT
BRANCH   4   5
HETATM    5  C   UNL     1     -12.170  12.379  65.010  1.00  0.00    -0.465 C  
BRANCH   5   6
HETATM    6  C   UNL     1     -12.292  13.660  65.847  1.00  0.00    -0.516 C  
BRANCH   6   7
HETATM    7  C   UNL     1     -10.991  14.173  66.543  1.00  0.00    -0.309 C  
HETATM    8  O   UNL     1      -9.903  13.262  66.139  1.00  0.00    -0.283 OA 
HETATM    9  P   UNL     1     -10.589  15.807  65.822  1.00  0.00    -0.336 P  
HETATM   10  P   UNL     1     -10.943  14.284  68.369  1.00  0.00    -0.277 P  
HETATM   11  H   UNL     1      -9.112  13.574  66.562  1.00  0.00     0.000 HD 
HETATM   12  O   UNL     1     -10.903  14.377  69.915  1.00  0.00    -0.135 OA 
HETATM   13  O   UNL     1     -11.198  12.666  68.496  1.00  0.00    -0.242 OA 
HETATM   14  O   UNL     1     -12.522  14.744  68.368  1.00  0.00    -0.004 OA 
HETATM   15  O   UNL     1     -10.250  17.189  65.213  1.00  0.00    -0.591 OA 
HETATM   16  O   UNL     1      -9.171  15.733  66.667  1.00  0.00    -0.216 OA 
HETATM   17  O   UNL     1      -9.958  15.058  64.482  1.00  0.00     0.030 OA 
ENDBRANCH   6   7
ENDBRANCH   5   6
ENDBRANCH   4   5
TORSDOF 3
ENDMDL
MODEL       37
REMARK 921   NORMALIZED FREE ENERGY PREDICTED BY IDOCK:   -4.25 KCAL/MOL
REMARK 922        TOTAL FREE ENERGY PREDICTED BY IDOCK:   -5.34 KCAL/MOL
REMARK 923 INTER-LIGAND FREE ENERGY PREDICTED BY IDOCK:   -5.06 KCAL/MOL
REMARK 924 INTRA-LIGAND FREE ENERGY PREDICTED BY IDOCK:   -0.28 KCAL/MOL
REMARK 927      BINDING AFFINITY PREDICTED BY RF-SCORE:    0.00 PKD
ROOT
HETATM    1  N   UNL     1      -9.448  11.744  62.746  1.00  0.00    -0.598 NA 
HETATM    2  H2  UNL     1      -9.225  12.576  63.292  1.00  0.00     0.000 HD 
HETATM    3  H1  UNL     1      -8.852  11.674  61.921  1.00  0.00     0.000 HD 
HETATM    4  C   UNL     1      -9.398  10.546  63.571  1.00  0.00    -0.293 C  
ENDROOT
BRANCH   4   5
HETATM    5  C   UNL     1     -10.292  10.651  64.807  1.00  0.00    -0.353 C  
BRANCH   5   6
HETATM    6  C   UNL     1      -9.711  11.534  65.920  1.00  0.00    -0.260 C  
BRANCH   6   7
HETATM    7  C   UNL     1     -10.649  12.637  66.506  1.00  0.00    -0.253 C  
HETATM    8  O   UNL     1      -9.833  13.856  66.657  1.00  0.00    -0.267 OA 
HETATM    9  P   UNL     1     -11.912  13.016  65.235  1.00  0.00    -0.460 P  
HETATM   10  P   UNL     1     -11.472  12.343  68.114  1.00  0.00    -0.358 P  
HETATM   11  H   UNL     1     -10.404  14.527  67.013  1.00  0.00     0.000 HD 
HETATM   12  O   UNL     1     -12.168  12.094  69.475  1.00  0.00    -0.222 OA 
HETATM   13  O   UNL     1     -10.014  12.214  68.861  1.00  0.00    -0.106 OA 
HETATM   14  O   UNL     1     -11.645  10.756  67.718  1.00  0.00    -0.521 OA 
HETATM   15  O   UNL     1     -12.979  13.336  64.161  1.00  0.00    -0.542 OA 
HETATM   16  O   UNL     1     -12.394  14.258  66.212  1.00  0.00    -0.443 OA 
HETATM   17  O   UNL     1     -10.805  13.944  64.416  1.00  0.00    -0.388 OA 
ENDBRANCH   6   7
ENDBRANCH   5   6
ENDBRANCH   4   5
TORSDOF 3
ENDMDL
MODEL       38
REMARK 921   NORMALIZED FREE ENERGY PREDICTED BY IDOCK:   -4.24 KCAL/MOL
REMARK 922        TOTAL FREE ENERGY PREDICTED BY IDOCK:   -5.32 KCAL/MOL
REMARK 923 INTER-LIGAND FREE ENERGY PREDICTED BY IDOCK:   -5.14 KCAL/MOL
REMARK 924 INTRA-LIGAND FREE ENERGY PREDICTED BY IDOCK:   -0.19 KCAL/MOL
REMARK 927      BINDING AFFINITY PREDICTED BY RF-SCORE:    0.00 PKD
ROOT
HETATM    1  N   UNL     1     -12.223  11.734  63.117  1.00  0.00    -0.956 NA 
HETATM    2  H2  UNL     1     -12.836  11.853  63.923  1.00  0.00     0.000 HD 
HETATM    3  H1  UNL     1     -12.593  12.217  62.298  1.00  0.00     0.000 HD 
HETATM    4  C   UNL     1     -10.860  12.136  63.431  1.00  0.00    -0.414 C  
ENDROOT
BRANCH   4   5
HETATM    5  C   UNL     1     -10.305  11.412  64.658  1.00  0.00    -0.362 C  
BRANCH   5   6
HETATM    6  C   UNL     1      -9.931  12.350  65.814  1.00  0.00    -0.270 C  
BRANCH   6   7
HETATM    7  C   UNL     1     -10.990  12.523  66.950  1.00  0.00    -0.257 C  
HETATM    8  O   UNL     1     -12.259  11.973  66.438  1.00  0.00    -0.551 OA 
HETATM    9  P   UNL     1     -10.485  11.445  68.341  1.00  0.00    -0.219 P  
HETATM   10  P   UNL     1     -11.352  14.203  67.581  1.00  0.00    -0.358 P  
HETATM   11  H   UNL     1     -12.903  12.079  67.129  1.00  0.00     0.000 HD 
HETATM   12  O   UNL     1     -11.658  15.624  68.114  1.00  0.00    -0.353 OA 
HETATM   13  O   UNL     1     -11.858  14.676  66.092  1.00  0.00    -0.352 OA 
HETATM   14  O   UNL     1      -9.766  14.597  67.396  1.00  0.00    -0.215 OA 
HETATM   15  O   UNL     1     -10.058  10.534  69.517  1.00  0.00    -0.222 OA 
HETATM   16  O   UNL     1     -11.932  11.823  69.043  1.00  0.00    -0.308 OA 
HETATM   17  O   UNL     1     -11.095  10.127  67.538  1.00  0.00    -0.298 OA 
ENDBRANCH   6   7
ENDBRANCH   5   6
ENDBRANCH   4   5
TORSDOF 3
ENDMDL
MODEL       39
REMARK 921   NORMALIZED FREE ENERGY PREDICTED BY IDOCK:   -4.18 KCAL/MOL
REMARK 922        TOTAL FREE ENERGY PREDICTED BY IDOCK:   -5.25 KCAL/MOL
REMARK 923 INTER-LIGAND FREE ENERGY PREDICTED BY IDOCK:   -4.79 KCAL/MOL
REMARK 924 INTRA-LIGAND FREE ENERGY PREDICTED BY IDOCK:   -0.46 KCAL/MOL
REMARK 927      BINDING AFFINITY PREDICTED BY RF-SCORE:    0.00 PKD
ROOT
HETATM    1  N   UNL     1     -10.803   8.902  67.943  1.00  0.00    -0.484 NA 
HETATM    2  H2  UNL     1     -11.639   9.453  67.752  1.00  0.00     0.000 HD 
HETATM    3  H1  UNL     1     -11.010   8.127  68.574  1.00  0.00     0.000 HD 
HETATM    4  C   UNL     1     -10.173   8.459  66.708  1.00  0.00    -0.306 C  
ENDROOT
BRANCH   4   5
HETATM    5  C   UNL     1      -9.863   9.620  65.762  1.00  0.00    -0.373 C  
BRANCH   5   6
HETATM    6  C   UNL     1     -10.997  10.649  65.652  1.00  0.00     0.110 C  
BRANCH   6   7
HETATM    7  C   UNL     1     -10.602  12.152  65.809  1.00  0.00    -0.260 C  
HETATM    8  O   UNL     1      -9.229  12.289  65.287  1.00  0.00    -0.426 OA 
HETATM    9  P   UNL     1     -11.678  13.123  64.691  1.00  0.00    -0.413 P  
HETATM   10  P   UNL     1     -10.616  12.906  67.476  1.00  0.00    -0.231 P  
HETATM   11  H   UNL     1      -8.989  13.203  65.382  1.00  0.00     0.000 HD 
HETATM   12  O   UNL     1     -10.627  13.545  68.888  1.00  0.00    -0.231 OA 
HETATM   13  O   UNL     1      -9.478  11.840  67.993  1.00  0.00    -0.175 OA 
HETATM   14  O   UNL     1     -11.937  12.003  67.857  1.00  0.00    -0.526 OA 
HETATM   15  O   UNL     1     -12.588  13.944  63.746  1.00  0.00    -0.721 OA 
HETATM   16  O   UNL     1     -10.741  14.430  65.068  1.00  0.00    -0.372 OA 
HETATM   17  O   UNL     1     -10.734  12.680  63.400  1.00  0.00    -0.384 OA 
ENDBRANCH   6   7
ENDBRANCH   5   6
ENDBRANCH   4   5
TORSDOF 3
ENDMDL
MODEL       40
REMARK 921   NORMALIZED FREE ENERGY PREDICTED BY IDOCK:   -4.17 KCAL/MOL
REMARK 922        TOTAL FREE ENERGY PREDICTED BY IDOCK:   -5.25 KCAL/MOL
REMARK 923 INTER-LIGAND FREE ENERGY PREDICTED BY IDOCK:   -5.26 KCAL/MOL
REMARK 924 INTRA-LIGAND FREE ENERGY PREDICTED BY IDOCK:    0.01 KCAL/MOL
REMARK 927      BINDING AFFINITY PREDICTED BY RF-SCORE:    0.00 PKD
ROOT
HETATM    1  N   UNL     1     -11.503  16.480  63.880  1.00  0.00    -1.599 NA 
HETATM    2  H2  UNL     1     -10.625  16.811  63.480  1.00  0.00     0.000 HD 
HETATM    3  H1  UNL     1     -12.205  16.330  63.155  1.00  0.00     0.000 HD 
HETATM    4  C   UNL     1     -11.292  15.298  64.702  1.00  0.00    -0.358 C  
ENDROOT
BRANCH   4   5
HETATM    5  C   UNL     1     -10.241  15.523  65.789  1.00  0.00    -0.390 C  
BRANCH   5   6
HETATM    6  C   UNL     1     -10.388  16.861  66.526  1.00  0.00    -0.299 C  
BRANCH   6   7
HETATM    7  C   UNL     1      -9.330  17.177  67.631  1.00  0.00    -0.239 C  
HETATM    8  O   UNL     1     -10.057  17.803  68.752  1.00  0.00    -0.358 OA 
HETATM    9  P   UNL     1      -8.695  15.578  68.257  1.00  0.00    -0.181 P  
HETATM   10  P   UNL     1      -7.923  18.276  67.228  1.00  0.00    -0.231 P  
HETATM   11  H   UNL     1      -9.413  17.994  69.424  1.00  0.00     0.000 HD 
HETATM   12  O   UNL     1      -6.732  19.206  66.887  1.00  0.00    -0.196 OA 
HETATM   13  O   UNL     1      -8.954  19.510  66.892  1.00  0.00    -0.299 OA 
HETATM   14  O   UNL     1      -7.871  17.630  65.716  1.00  0.00    -0.548 OA 
HETATM   15  O   UNL     1      -8.159  14.226  68.786  1.00  0.00    -0.141 OA 
HETATM   16  O   UNL     1      -7.903  16.447  69.417  1.00  0.00    -0.212 OA 
HETATM   17  O   UNL     1     -10.067  15.395  69.174  1.00  0.00    -0.209 OA 
ENDBRANCH   6   7
ENDBRANCH   5   6
ENDBRANCH   4   5
TORSDOF 3
ENDMDL
MODEL       41
REMARK 921   NORMALIZED FREE ENERGY PREDICTED BY IDOCK:   -4.10 KCAL/MOL
REMARK 922        TOTAL FREE ENERGY PREDICTED BY IDOCK:   -5.16 KCAL/MOL
REMARK 923 INTER-LIGAND FREE ENERGY PREDICTED BY IDOCK:   -4.65 KCAL/MOL
REMARK 924 INTRA-LIGAND FREE ENERGY PREDICTED BY IDOCK:   -0.51 KCAL/MOL
REMARK 927      BINDING AFFINITY PREDICTED BY RF-SCORE:    0.00 PKD
ROOT
HETATM    1  N   UNL     1     -13.137  12.491  64.523  1.00  0.00    -0.839 NA 
HETATM    2  H2  UNL     1     -12.757  13.169  65.183  1.00  0.00     0.000 HD 
HETATM    3  H1  UNL     1     -13.991  12.839  64.087  1.00  0.00     0.000 HD 
HETATM    4  C   UNL     1     -12.135  12.094  63.544  1.00  0.00    -0.550 C  
ENDROOT
BRANCH   4   5
HETATM    5  C   UNL     1     -10.856  11.571  64.197  1.00  0.00    -0.435 C  
BRANCH   5   6
HETATM    6  C   UNL     1     -10.913  11.535  65.731  1.00  0.00    -0.305 C  
BRANCH   6   7
HETATM    7  C   UNL     1     -10.037  12.581  66.493  1.00  0.00    -0.238 C  
HETATM    8  O   UNL     1      -9.433  13.456  65.471  1.00  0.00    -0.494 OA 
HETATM    9  P   UNL     1     -11.169  13.635  67.472  1.00  0.00    -0.323 P  
HETATM   10  P   UNL     1      -8.675  11.990  67.563  1.00  0.00    -0.187 P  
HETATM   11  H   UNL     1      -8.901  14.092  65.935  1.00  0.00     0.000 HD 
HETATM   12  O   UNL     1      -7.523  11.491  68.469  1.00  0.00    -0.101 OA 
HETATM   13  O   UNL     1      -7.939  11.286  66.275  1.00  0.00    -0.155 OA 
HETATM   14  O   UNL     1      -9.600  10.703  68.004  1.00  0.00    -0.153 OA 
HETATM   15  O   UNL     1     -12.126  14.527  68.299  1.00  0.00    -0.292 OA 
HETATM   16  O   UNL     1      -9.854  14.576  67.814  1.00  0.00    -0.217 OA 
HETATM   17  O   UNL     1     -11.558  14.486  66.101  1.00  0.00    -0.362 OA 
ENDBRANCH   6   7
ENDBRANCH   5   6
ENDBRANCH   4   5
TORSDOF 3
ENDMDL
MODEL       42
REMARK 921   NORMALIZED FREE ENERGY PREDICTED BY IDOCK:   -4.10 KCAL/MOL
REMARK 922        TOTAL FREE ENERGY PREDICTED BY IDOCK:   -5.16 KCAL/MOL
REMARK 923 INTER-LIGAND FREE ENERGY PREDICTED BY IDOCK:   -4.99 KCAL/MOL
REMARK 924 INTRA-LIGAND FREE ENERGY PREDICTED BY IDOCK:   -0.17 KCAL/MOL
REMARK 927      BINDING AFFINITY PREDICTED BY RF-SCORE:    0.00 PKD
ROOT
HETATM    1  N   UNL     1     -12.824  13.695  65.325  1.00  0.00    -0.723 NA 
HETATM    2  H2  UNL     1     -12.233  13.198  64.660  1.00  0.00     0.000 HD 
HETATM    3  H1  UNL     1     -13.701  13.198  65.481  1.00  0.00     0.000 HD 
HETATM    4  C   UNL     1     -12.110  13.961  66.565  1.00  0.00    -0.449 C  
ENDROOT
BRANCH   4   5
HETATM    5  C   UNL     1     -10.795  14.707  66.333  1.00  0.00    -0.315 C  
BRANCH   5   6
HETATM    6  C   UNL     1     -10.615  15.940  67.229  1.00  0.00    -0.314 C  
BRANCH   6   7
HETATM    7  C   UNL     1      -9.502  16.955  66.814  1.00  0.00    -0.255 C  
HETATM    8  O   UNL     1      -8.949  16.481  65.531  1.00  0.00    -0.368 OA 
HETATM    9  P   UNL     1     -10.321  18.554  66.462  1.00  0.00    -0.379 P  
HETATM   10  P   UNL     1      -8.084  17.230  67.938  1.00  0.00    -0.222 P  
HETATM   11  H   UNL     1      -8.272  17.099  65.279  1.00  0.00     0.000 HD 
HETATM   12  O   UNL     1      -6.884  17.463  68.889  1.00  0.00    -0.219 OA 
HETATM   13  O   UNL     1      -7.652  15.650  67.815  1.00  0.00    -0.123 OA 
HETATM   14  O   UNL     1      -9.094  17.071  69.226  1.00  0.00    -0.112 OA 
HETATM   15  O   UNL     1     -11.013  19.906  66.165  1.00  0.00    -0.319 OA 
HETATM   16  O   UNL     1      -8.856  19.082  65.910  1.00  0.00    -0.450 OA 
HETATM   17  O   UNL     1     -10.797  17.982  64.979  1.00  0.00    -0.738 OA 
ENDBRANCH   6   7
ENDBRANCH   5   6
ENDBRANCH   4   5
TORSDOF 3
ENDMDL
MODEL       43
REMARK 921   NORMALIZED FREE ENERGY PREDICTED BY IDOCK:   -4.09 KCAL/MOL
REMARK 922        TOTAL FREE ENERGY PREDICTED BY IDOCK:   -5.15 KCAL/MOL
REMARK 923 INTER-LIGAND FREE ENERGY PREDICTED BY IDOCK:   -4.93 KCAL/MOL
REMARK 924 INTRA-LIGAND FREE ENERGY PREDICTED BY IDOCK:   -0.23 KCAL/MOL
REMARK 927      BINDING AFFINITY PREDICTED BY RF-SCORE:    0.00 PKD
ROOT
HETATM    1  N   UNL     1     -12.365  14.817  63.583  1.00  0.00    -1.067 NA 
HETATM    2  H2  UNL     1     -12.718  13.941  63.968  1.00  0.00     0.000 HD 
HETATM    3  H1  UNL     1     -13.117  15.364  63.165  1.00  0.00     0.000 HD 
HETATM    4  C   UNL     1     -11.623  15.568  64.586  1.00  0.00    -0.281 C  
ENDROOT
BRANCH   4   5
HETATM    5  C   UNL     1     -10.496  14.748  65.213  1.00  0.00    -0.427 C  
BRANCH   5   6
HETATM    6  C   UNL     1     -10.944  13.887  66.403  1.00  0.00    -0.303 C  
BRANCH   6   7
HETATM    7  C   UNL     1     -10.660  12.353  66.309  1.00  0.00    -0.249 C  
HETATM    8  O   UNL     1     -11.901  11.664  66.710  1.00  0.00    -0.557 OA 
HETATM    9  P   UNL     1     -10.393  11.951  64.543  1.00  0.00    -0.328 P  
HETATM   10  P   UNL     1      -9.305  11.636  67.309  1.00  0.00    -0.175 P  
HETATM   11  H   UNL     1     -11.728  10.732  66.652  1.00  0.00     0.000 HD 
HETATM   12  O   UNL     1      -8.159  11.029  68.155  1.00  0.00    -0.112 OA 
HETATM   13  O   UNL     1     -10.046  12.114  68.695  1.00  0.00    -0.212 OA 
HETATM   14  O   UNL     1      -8.422  13.002  67.064  1.00  0.00    -0.193 OA 
HETATM   15  O   UNL     1     -10.168  11.611  63.050  1.00  0.00    -0.350 OA 
HETATM   16  O   UNL     1     -10.387  10.363  64.997  1.00  0.00    -0.306 OA 
HETATM   17  O   UNL     1     -12.034  11.986  64.290  1.00  0.00    -0.366 OA 
ENDBRANCH   6   7
ENDBRANCH   5   6
ENDBRANCH   4   5
TORSDOF 3
ENDMDL
MODEL       44
REMARK 921   NORMALIZED FREE ENERGY PREDICTED BY IDOCK:   -4.09 KCAL/MOL
REMARK 922        TOTAL FREE ENERGY PREDICTED BY IDOCK:   -5.15 KCAL/MOL
REMARK 923 INTER-LIGAND FREE ENERGY PREDICTED BY IDOCK:   -4.74 KCAL/MOL
REMARK 924 INTRA-LIGAND FREE ENERGY PREDICTED BY IDOCK:   -0.41 KCAL/MOL
REMARK 927      BINDING AFFINITY PREDICTED BY RF-SCORE:    0.00 PKD
ROOT
HETATM    1  N   UNL     1     -10.152  14.846  69.782  1.00  0.00    -0.444 NA 
HETATM    2  H2  UNL     1      -9.961  15.191  68.842  1.00  0.00     0.000 HD 
HETATM    3  H1  UNL     1      -9.645  15.387  70.483  1.00  0.00     0.000 HD 
HETATM    4  C   UNL     1     -11.583  14.801  70.043  1.00  0.00    -0.286 C  
ENDROOT
BRANCH   4   5
HETATM    5  C   UNL     1     -12.343  13.989  68.993  1.00  0.00    -0.139 C  
BRANCH   5   6
HETATM    6  C   UNL     1     -11.873  14.243  67.554  1.00  0.00    -0.429 C  
BRANCH   6   7
HETATM    7  C   UNL     1     -11.304  13.015  66.773  1.00  0.00    -0.324 C  
HETATM    8  O   UNL     1     -12.089  11.840  67.196  1.00  0.00    -0.592 OA 
HETATM    9  P   UNL     1     -11.678  13.273  64.999  1.00  0.00    -0.380 P  
HETATM   10  P   UNL     1      -9.538  12.576  66.967  1.00  0.00    -0.228 P  
HETATM   11  H   UNL     1     -11.743  11.094  66.720  1.00  0.00     0.000 HD 
HETATM   12  O   UNL     1      -8.044  12.205  67.131  1.00  0.00    -0.167 OA 
HETATM   13  O   UNL     1      -9.755  12.326  68.576  1.00  0.00    -0.203 OA 
HETATM   14  O   UNL     1      -9.166  14.176  67.053  1.00  0.00    -0.220 OA 
HETATM   15  O   UNL     1     -11.994  13.491  63.500  1.00  0.00    -0.447 OA 
HETATM   16  O   UNL     1     -11.126  11.736  64.751  1.00  0.00    -0.309 OA 
HETATM   17  O   UNL     1     -13.243  12.786  65.260  1.00  0.00    -0.574 OA 
ENDBRANCH   6   7
ENDBRANCH   5   6
ENDBRANCH   4   5
TORSDOF 3
ENDMDL
MODEL       45
REMARK 921   NORMALIZED FREE ENERGY PREDICTED BY IDOCK:   -4.08 KCAL/MOL
REMARK 922        TOTAL FREE ENERGY PREDICTED BY IDOCK:   -5.14 KCAL/MOL
REMARK 923 INTER-LIGAND FREE ENERGY PREDICTED BY IDOCK:   -4.50 KCAL/MOL
REMARK 924 INTRA-LIGAND FREE ENERGY PREDICTED BY IDOCK:   -0.64 KCAL/MOL
REMARK 927      BINDING AFFINITY PREDICTED BY RF-SCORE:    0.00 PKD
ROOT
HETATM    1  N   UNL     1     -12.356  10.552  68.944  1.00  0.00    -0.735 NA 
HETATM    2  H2  UNL     1     -11.846  10.397  68.075  1.00  0.00     0.000 HD 
HETATM    3  H1  UNL     1     -12.242   9.766  69.584  1.00  0.00     0.000 HD 
HETATM    4  C   UNL     1     -11.981  11.821  69.551  1.00  0.00    -0.300 C  
ENDROOT
BRANCH   4   5
HETATM    5  C   UNL     1     -12.153  13.000  68.593  1.00  0.00    -0.189 C  
BRANCH   5   6
HETATM    6  C   UNL     1     -10.914  13.284  67.732  1.00  0.00    -0.278 C  
BRANCH   6   7
HETATM    7  C   UNL     1     -10.955  12.783  66.253  1.00  0.00    -0.280 C  
HETATM    8  O   UNL     1     -12.285  12.181  66.043  1.00  0.00    -0.609 OA 
HETATM    9  P   UNL     1     -10.880  14.258  65.171  1.00  0.00    -0.429 P  
HETATM   10  P   UNL     1      -9.718  11.555  65.694  1.00  0.00    -0.232 P  
HETATM   11  H   UNL     1     -12.309  11.877  65.143  1.00  0.00     0.000 HD 
HETATM   12  O   UNL     1      -8.672  10.515  65.221  1.00  0.00    -0.177 OA 
HETATM   13  O   UNL     1     -10.263  10.471  66.801  1.00  0.00    -0.217 OA 
HETATM   14  O   UNL     1      -8.591  12.278  66.648  1.00  0.00    -0.179 OA 
HETATM   15  O   UNL     1     -10.818  15.506  64.257  1.00  0.00    -0.154 OA 
HETATM   16  O   UNL     1     -11.172  13.237  63.906  1.00  0.00    -0.373 OA 
HETATM   17  O   UNL     1     -12.491  14.544  65.454  1.00  0.00    -0.353 OA 
ENDBRANCH   6   7
ENDBRANCH   5   6
ENDBRANCH   4   5
TORSDOF 3
ENDMDL
MODEL       46
REMARK 921   NORMALIZED FREE ENERGY PREDICTED BY IDOCK:   -4.07 KCAL/MOL
REMARK 922        TOTAL FREE ENERGY PREDICTED BY IDOCK:   -5.13 KCAL/MOL
REMARK 923 INTER-LIGAND FREE ENERGY PREDICTED BY IDOCK:   -4.49 KCAL/MOL
REMARK 924 INTRA-LIGAND FREE ENERGY PREDICTED BY IDOCK:   -0.64 KCAL/MOL
REMARK 927      BINDING AFFINITY PREDICTED BY RF-SCORE:    0.00 PKD
ROOT
HETATM    1  N   UNL     1     -11.894  10.572  68.425  1.00  0.00    -0.769 NA 
HETATM    2  H2  UNL     1     -12.686  10.029  68.084  1.00  0.00     0.000 HD 
HETATM    3  H1  UNL     1     -11.631  11.299  67.759  1.00  0.00     0.000 HD 
HETATM    4  C   UNL     1     -12.159  11.107  69.753  1.00  0.00    -0.344 C  
ENDROOT
BRANCH   4   5
HETATM    5  C   UNL     1     -12.552  10.018  70.752  1.00  0.00    -0.372 C  
BRANCH   5   6
HETATM    6  C   UNL     1     -11.357   9.373  71.468  1.00  0.00    -0.464 C  
BRANCH   6   7
HETATM    7  C   UNL     1     -10.905   7.967  70.956  1.00  0.00    -0.235 C  
HETATM    8  O   UNL     1     -11.535   7.771  69.637  1.00  0.00    -0.448 OA 
HETATM    9  P   UNL     1      -9.100   8.044  70.661  1.00  0.00    -0.157 P  
HETATM   10  P   UNL     1     -11.297   6.487  71.959  1.00  0.00    -0.313 P  
HETATM   11  H   UNL     1     -11.259   6.916  69.326  1.00  0.00     0.000 HD 
HETATM   12  O   UNL     1     -11.628   5.234  72.808  1.00  0.00    -0.284 OA 
HETATM   13  O   UNL     1     -12.905   6.786  71.813  1.00  0.00    -0.358 OA 
HETATM   14  O   UNL     1     -11.044   7.365  73.327  1.00  0.00    -0.365 OA 
HETATM   15  O   UNL     1      -7.574   8.109  70.411  1.00  0.00    -0.072 OA 
HETATM   16  O   UNL     1      -9.236   6.542  69.987  1.00  0.00    -0.156 OA 
HETATM   17  O   UNL     1      -9.371   8.832  69.226  1.00  0.00    -0.148 OA 
ENDBRANCH   6   7
ENDBRANCH   5   6
ENDBRANCH   4   5
TORSDOF 3
ENDMDL
MODEL       47
REMARK 921   NORMALIZED FREE ENERGY PREDICTED BY IDOCK:   -4.07 KCAL/MOL
REMARK 922        TOTAL FREE ENERGY PREDICTED BY IDOCK:   -5.13 KCAL/MOL
REMARK 923 INTER-LIGAND FREE ENERGY PREDICTED BY IDOCK:   -4.90 KCAL/MOL
REMARK 924 INTRA-LIGAND FREE ENERGY PREDICTED BY IDOCK:   -0.23 KCAL/MOL
REMARK 927      BINDING AFFINITY PREDICTED BY RF-SCORE:    0.00 PKD
ROOT
HETATM    1  N   UNL     1      -9.885  16.645  67.498  1.00  0.00    -0.249 NA 
HETATM    2  H2  UNL     1      -9.554  16.409  66.563  1.00  0.00     0.000 HD 
HETATM    3  H1  UNL     1     -10.151  17.628  67.557  1.00  0.00     0.000 HD 
HETATM    4  C   UNL     1     -10.958  15.754  67.916  1.00  0.00    -0.324 C  
ENDROOT
BRANCH   4   5
HETATM    5  C   UNL     1     -10.560  14.281  67.828  1.00  0.00    -0.253 C  
BRANCH   5   6
HETATM    6  C   UNL     1     -10.298  13.794  66.396  1.00  0.00    -0.290 C  
BRANCH   6   7
HETATM    7  C   UNL     1     -11.233  12.665  65.855  1.00  0.00    -0.314 C  
HETATM    8  O   UNL     1     -12.331  12.516  66.829  1.00  0.00    -0.457 OA 
HETATM    9  P   UNL     1     -11.997  13.279  64.309  1.00  0.00    -0.445 P  
HETATM   10  P   UNL     1     -10.541  10.995  65.571  1.00  0.00    -0.096 P  
HETATM   11  H   UNL     1     -12.899  11.830  66.500  1.00  0.00     0.000 HD 
HETATM   12  O   UNL     1      -9.955   9.581  65.331  1.00  0.00    -0.284 OA 
HETATM   13  O   UNL     1     -10.154  10.861  67.162  1.00  0.00    -0.187 OA 
HETATM   14  O   UNL     1      -9.132  11.681  65.070  1.00  0.00    -0.040 OA 
HETATM   15  O   UNL     1     -12.643  13.799  63.002  1.00  0.00    -0.721 OA 
HETATM   16  O   UNL     1     -12.941  11.924  64.340  1.00  0.00    -0.482 OA 
HETATM   17  O   UNL     1     -13.070  14.180  65.199  1.00  0.00    -0.757 OA 
ENDBRANCH   6   7
ENDBRANCH   5   6
ENDBRANCH   4   5
TORSDOF 3
ENDMDL
MODEL       48
REMARK 921   NORMALIZED FREE ENERGY PREDICTED BY IDOCK:   -4.06 KCAL/MOL
REMARK 922        TOTAL FREE ENERGY PREDICTED BY IDOCK:   -5.12 KCAL/MOL
REMARK 923 INTER-LIGAND FREE ENERGY PREDICTED BY IDOCK:   -5.09 KCAL/MOL
REMARK 924 INTRA-LIGAND FREE ENERGY PREDICTED BY IDOCK:   -0.03 KCAL/MOL
REMARK 927      BINDING AFFINITY PREDICTED BY RF-SCORE:    0.00 PKD
ROOT
HETATM    1  N   UNL     1     -11.785  16.233  63.794  1.00  0.00    -1.488 NA 
HETATM    2  H2  UNL     1     -10.905  16.348  63.292  1.00  0.00     0.000 HD 
HETATM    3  H1  UNL     1     -12.582  16.288  63.159  1.00  0.00     0.000 HD 
HETATM    4  C   UNL     1     -11.785  15.006  64.578  1.00  0.00    -0.368 C  
ENDROOT
BRANCH   4   5
HETATM    5  C   UNL     1     -10.591  14.923  65.530  1.00  0.00    -0.373 C  
BRANCH   5   6
HETATM    6  C   UNL     1     -10.117  16.287  66.050  1.00  0.00    -0.377 C  
BRANCH   6   7
HETATM    7  C   UNL     1      -9.828  16.395  67.582  1.00  0.00    -0.243 C  
HETATM    8  O   UNL     1     -10.695  17.468  68.105  1.00  0.00    -0.381 OA 
HETATM    9  P   UNL     1     -10.405  14.841  68.361  1.00  0.00    -0.245 P  
HETATM   10  P   UNL     1      -8.126  16.762  68.143  1.00  0.00    -0.213 P  
HETATM   11  H   UNL     1     -10.519  17.533  69.037  1.00  0.00     0.000 HD 
HETATM   12  O   UNL     1      -6.685  17.073  68.618  1.00  0.00    -0.165 OA 
HETATM   13  O   UNL     1      -8.150  18.199  67.346  1.00  0.00    -0.224 OA 
HETATM   14  O   UNL     1      -7.538  15.849  66.908  1.00  0.00    -0.220 OA 
HETATM   15  O   UNL     1     -10.893  13.528  69.018  1.00  0.00    -0.246 OA 
HETATM   16  O   UNL     1     -10.100  15.561  69.816  1.00  0.00    -0.270 OA 
HETATM   17  O   UNL     1     -11.970  15.391  68.293  1.00  0.00    -0.283 OA 
ENDBRANCH   6   7
ENDBRANCH   5   6
ENDBRANCH   4   5
TORSDOF 3
ENDMDL
MODEL       49
REMARK 921   NORMALIZED FREE ENERGY PREDICTED BY IDOCK:   -4.06 KCAL/MOL
REMARK 922        TOTAL FREE ENERGY PREDICTED BY IDOCK:   -5.11 KCAL/MOL
REMARK 923 INTER-LIGAND FREE ENERGY PREDICTED BY IDOCK:   -4.59 KCAL/MOL
REMARK 924 INTRA-LIGAND FREE ENERGY PREDICTED BY IDOCK:   -0.52 KCAL/MOL
REMARK 927      BINDING AFFINITY PREDICTED BY RF-SCORE:    0.00 PKD
ROOT
HETATM    1  N   UNL     1     -10.243  10.188  66.967  1.00  0.00    -0.222 NA 
HETATM    2  H2  UNL     1     -10.106  10.626  66.057  1.00  0.00     0.000 HD 
HETATM    3  H1  UNL     1     -10.350   9.177  66.877  1.00  0.00     0.000 HD 
HETATM    4  C   UNL     1      -9.178  10.553  67.890  1.00  0.00    -0.140 C  
ENDROOT
BRANCH   4   5
HETATM    5  C   UNL     1      -9.017  12.067  68.026  1.00  0.00    -0.187 C  
BRANCH   5   6
HETATM    6  C   UNL     1      -9.252  12.835  66.717  1.00  0.00    -0.225 C  
BRANCH   6   7
HETATM    7  C   UNL     1     -10.315  13.979  66.754  1.00  0.00    -0.271 C  
HETATM    8  O   UNL     1     -10.705  14.155  68.166  1.00  0.00    -0.237 OA 
HETATM    9  P   UNL     1      -9.475  15.527  66.255  1.00  0.00    -0.368 P  
HETATM   10  P   UNL     1     -11.861  13.789  65.794  1.00  0.00    -0.421 P  
HETATM   11  H   UNL     1     -11.351  14.851  68.188  1.00  0.00     0.000 HD 
HETATM   12  O   UNL     1     -13.170  13.627  64.981  1.00  0.00    -0.729 OA 
HETATM   13  O   UNL     1     -12.261  12.452  66.661  1.00  0.00    -0.562 OA 
HETATM   14  O   UNL     1     -11.014  13.023  64.610  1.00  0.00    -0.308 OA 
HETATM   15  O   UNL     1      -8.764  16.836  65.833  1.00  0.00    -0.504 OA 
HETATM   16  O   UNL     1     -10.866  16.314  66.672  1.00  0.00    -0.247 OA 
HETATM   17  O   UNL     1      -8.817  15.657  67.773  1.00  0.00    -0.169 OA 
ENDBRANCH   6   7
ENDBRANCH   5   6
ENDBRANCH   4   5
TORSDOF 3
ENDMDL
MODEL       50
REMARK 921   NORMALIZED FREE ENERGY PREDICTED BY IDOCK:   -4.02 KCAL/MOL
REMARK 922        TOTAL FREE ENERGY PREDICTED BY IDOCK:   -5.07 KCAL/MOL
REMARK 923 INTER-LIGAND FREE ENERGY PREDICTED BY IDOCK:   -4.78 KCAL/MOL
REMARK 924 INTRA-LIGAND FREE ENERGY PREDICTED BY IDOCK:   -0.29 KCAL/MOL
REMARK 927      BINDING AFFINITY PREDICTED BY RF-SCORE:    0.00 PKD
ROOT
HETATM    1  N   UNL     1      -7.481  12.632  66.936  1.00  0.00    -0.385 NA 
HETATM    2  H2  UNL     1      -7.604  12.564  65.927  1.00  0.00     0.000 HD 
HETATM    3  H1  UNL     1      -6.616  12.181  67.233  1.00  0.00     0.000 HD 
HETATM    4  C   UNL     1      -7.567  14.016  67.382  1.00  0.00    -0.148 C  
ENDROOT
BRANCH   4   5
HETATM    5  C   UNL     1      -8.864  14.693  66.938  1.00  0.00    -0.267 C  
BRANCH   5   6
HETATM    6  C   UNL     1     -10.047  14.446  67.884  1.00  0.00    -0.228 C  
BRANCH   6   7
HETATM    7  C   UNL     1     -11.236  13.603  67.320  1.00  0.00    -0.309 C  
HETATM    8  O   UNL     1     -12.445  14.440  67.438  1.00  0.00    -0.603 OA 
HETATM    9  P   UNL     1     -10.943  13.371  65.528  1.00  0.00    -0.296 P  
HETATM   10  P   UNL     1     -11.626  11.989  68.089  1.00  0.00    -0.316 P  
HETATM   11  H   UNL     1     -13.168  13.927  67.095  1.00  0.00     0.000 HD 
HETATM   12  O   UNL     1     -11.956  10.623  68.740  1.00  0.00    -0.366 OA 
HETATM   13  O   UNL     1     -11.926  12.722  69.528  1.00  0.00    -0.309 OA 
HETATM   14  O   UNL     1     -10.018  11.727  68.320  1.00  0.00    -0.189 OA 
HETATM   15  O   UNL     1     -10.695  13.174  64.013  1.00  0.00    -0.399 OA 
HETATM   16  O   UNL     1     -12.455  12.710  65.457  1.00  0.00    -0.622 OA 
HETATM   17  O   UNL     1     -11.484  14.914  65.242  1.00  0.00    -0.347 OA 
ENDBRANCH   6   7
ENDBRANCH   5   6
ENDBRANCH   4   5
TORSDOF 3
ENDMDL
MODEL       51
REMARK 921   NORMALIZED FREE ENERGY PREDICTED BY IDOCK:   -4.01 KCAL/MOL
REMARK 922        TOTAL FREE ENERGY PREDICTED BY IDOCK:   -5.06 KCAL/MOL
REMARK 923 INTER-LIGAND FREE ENERGY PREDICTED BY IDOCK:   -4.61 KCAL/MOL
REMARK 924 INTRA-LIGAND FREE ENERGY PREDICTED BY IDOCK:   -0.45 KCAL/MOL
REMARK 927      BINDING AFFINITY PREDICTED BY RF-SCORE:    0.00 PKD
ROOT
HETATM    1  N   UNL     1     -11.331  11.747  66.203  1.00  0.00    -0.318 NA 
HETATM    2  H2  UNL     1     -10.375  11.405  66.113  1.00  0.00     0.000 HD 
HETATM    3  H1  UNL     1     -11.996  11.101  65.777  1.00  0.00     0.000 HD 
HETATM    4  C   UNL     1     -11.655  12.039  67.592  1.00  0.00    -0.321 C  
ENDROOT
BRANCH   4   5
HETATM    5  C   UNL     1     -10.660  13.008  68.232  1.00  0.00    -0.260 C  
BRANCH   5   6
HETATM    6  C   UNL     1     -10.949  14.484  67.927  1.00  0.00    -0.277 C  
BRANCH   6   7
HETATM    7  C   UNL     1      -9.804  15.300  67.247  1.00  0.00    -0.220 C  
HETATM    8  O   UNL     1      -8.791  14.323  66.801  1.00  0.00    -0.309 OA 
HETATM    9  P   UNL     1     -10.494  16.055  65.729  1.00  0.00    -0.346 P  
HETATM   10  P   UNL     1      -8.922  16.577  68.217  1.00  0.00    -0.228 P  
HETATM   11  H   UNL     1      -8.095  14.819  66.387  1.00  0.00     0.000 HD 
HETATM   12  O   UNL     1      -8.176  17.657  69.038  1.00  0.00    -0.190 OA 
HETATM   13  O   UNL     1      -8.413  15.442  69.289  1.00  0.00    -0.229 OA 
HETATM   14  O   UNL     1     -10.334  16.957  68.970  1.00  0.00    -0.297 OA 
HETATM   15  O   UNL     1     -11.078  16.694  64.446  1.00  0.00    -0.985 OA 
HETATM   16  O   UNL     1      -8.952  16.521  65.365  1.00  0.00    -0.219 OA 
HETATM   17  O   UNL     1     -10.357  14.599  64.944  1.00  0.00    -0.411 OA 
ENDBRANCH   6   7
ENDBRANCH   5   6
ENDBRANCH   4   5
TORSDOF 3
ENDMDL
MODEL       52
REMARK 921   NORMALIZED FREE ENERGY PREDICTED BY IDOCK:   -3.99 KCAL/MOL
REMARK 922        TOTAL FREE ENERGY PREDICTED BY IDOCK:   -5.03 KCAL/MOL
REMARK 923 INTER-LIGAND FREE ENERGY PREDICTED BY IDOCK:   -4.84 KCAL/MOL
REMARK 924 INTRA-LIGAND FREE ENERGY PREDICTED BY IDOCK:   -0.19 KCAL/MOL
REMARK 927      BINDING AFFINITY PREDICTED BY RF-SCORE:    0.00 PKD
ROOT
HETATM    1  N   UNL     1     -10.263  19.728  69.360  1.00  0.00    -0.611 NA 
HETATM    2  H2  UNL     1     -10.096  19.474  70.333  1.00  0.00     0.000 HD 
HETATM    3  H1  UNL     1     -10.296  20.741  69.244  1.00  0.00     0.000 HD 
HETATM    4  C   UNL     1      -9.287  19.101  68.479  1.00  0.00    -0.374 C  
ENDROOT
BRANCH   4   5
HETATM    5  C   UNL     1      -9.237  17.582  68.652  1.00  0.00    -0.267 C  
BRANCH   5   6
HETATM    6  C   UNL     1     -10.583  16.886  68.407  1.00  0.00    -0.365 C  
BRANCH   6   7
HETATM    7  C   UNL     1     -10.778  15.480  69.061  1.00  0.00    -0.243 C  
HETATM    8  O   UNL     1      -9.610  15.250  69.933  1.00  0.00    -0.439 OA 
HETATM    9  P   UNL     1     -12.233  15.586  70.167  1.00  0.00    -0.269 P  
HETATM   10  P   UNL     1     -10.937  14.011  67.982  1.00  0.00    -0.270 P  
HETATM   11  H   UNL     1      -9.729  14.395  70.330  1.00  0.00     0.000 HD 
HETATM   12  O   UNL     1     -11.071  12.767  67.069  1.00  0.00    -0.260 OA 
HETATM   13  O   UNL     1      -9.440  14.278  67.361  1.00  0.00    -0.202 OA 
HETATM   14  O   UNL     1     -11.778  14.917  66.897  1.00  0.00    -0.343 OA 
HETATM   15  O   UNL     1     -13.464  15.675  71.102  1.00  0.00    -0.552 OA 
HETATM   16  O   UNL     1     -11.835  14.070  70.689  1.00  0.00    -0.298 OA 
HETATM   17  O   UNL     1     -11.304  16.344  71.314  1.00  0.00    -0.347 OA 
ENDBRANCH   6   7
ENDBRANCH   5   6
ENDBRANCH   4   5
TORSDOF 3
ENDMDL
MODEL       53
REMARK 921   NORMALIZED FREE ENERGY PREDICTED BY IDOCK:   -3.98 KCAL/MOL
REMARK 922        TOTAL FREE ENERGY PREDICTED BY IDOCK:   -5.02 KCAL/MOL
REMARK 923 INTER-LIGAND FREE ENERGY PREDICTED BY IDOCK:   -4.63 KCAL/MOL
REMARK 924 INTRA-LIGAND FREE ENERGY PREDICTED BY IDOCK:   -0.39 KCAL/MOL
REMARK 927      BINDING AFFINITY PREDICTED BY RF-SCORE:    0.00 PKD
ROOT
HETATM    1  N   UNL     1      -8.472  11.468  66.004  1.00  0.00    -0.365 NA 
HETATM    2  H2  UNL     1      -8.018  11.927  65.215  1.00  0.00     0.000 HD 
HETATM    3  H1  UNL     1      -8.275  10.467  66.012  1.00  0.00     0.000 HD 
HETATM    4  C   UNL     1      -8.117  12.114  67.260  1.00  0.00    -0.176 C  
ENDROOT
BRANCH   4   5
HETATM    5  C   UNL     1      -8.412  13.614  67.249  1.00  0.00    -0.203 C  
BRANCH   5   6
HETATM    6  C   UNL     1      -9.909  13.951  67.301  1.00  0.00    -0.244 C  
BRANCH   6   7
HETATM    7  C   UNL     1     -10.529  14.601  66.023  1.00  0.00    -0.305 C  
HETATM    8  O   UNL     1      -9.766  14.087  64.870  1.00  0.00    -0.564 OA 
HETATM    9  P   UNL     1     -12.231  13.951  65.847  1.00  0.00    -0.470 P  
HETATM   10  P   UNL     1     -10.555  16.425  65.875  1.00  0.00    -0.165 P  
HETATM   11  H   UNL     1     -10.144  14.482  64.093  1.00  0.00     0.000 HD 
HETATM   12  O   UNL     1     -10.577  17.969  65.749  1.00  0.00    -0.528 OA 
HETATM   13  O   UNL     1      -8.915  16.476  65.944  1.00  0.00    -0.461 OA 
HETATM   14  O   UNL     1     -10.836  16.538  67.492  1.00  0.00    -0.313 OA 
HETATM   15  O   UNL     1     -13.670  13.400  65.697  1.00  0.00    -0.020 OA 
HETATM   16  O   UNL     1     -12.274  14.709  64.379  1.00  0.00    -0.487 OA 
HETATM   17  O   UNL     1     -11.624  12.538  65.222  1.00  0.00    -0.333 OA 
ENDBRANCH   6   7
ENDBRANCH   5   6
ENDBRANCH   4   5
TORSDOF 3
ENDMDL
MODEL       54
REMARK 921   NORMALIZED FREE ENERGY PREDICTED BY IDOCK:   -3.94 KCAL/MOL
REMARK 922        TOTAL FREE ENERGY PREDICTED BY IDOCK:   -4.98 KCAL/MOL
REMARK 923 INTER-LIGAND FREE ENERGY PREDICTED BY IDOCK:   -4.92 KCAL/MOL
REMARK 924 INTRA-LIGAND FREE ENERGY PREDICTED BY IDOCK:   -0.05 KCAL/MOL
REMARK 927      BINDING AFFINITY PREDICTED BY RF-SCORE:    0.00 PKD
ROOT
HETATM    1  N   UNL     1     -11.586  16.386  63.817  1.00  0.00    -1.515 NA 
HETATM    2  H2  UNL     1     -10.579  16.538  63.854  1.00  0.00     0.000 HD 
HETATM    3  H1  UNL     1     -11.949  16.546  62.877  1.00  0.00     0.000 HD 
HETATM    4  C   UNL     1     -11.937  15.070  64.331  1.00  0.00    -0.353 C  
ENDROOT
BRANCH   4   5
HETATM    5  C   UNL     1     -11.394  14.830  65.740  1.00  0.00    -0.336 C  
BRANCH   5   6
HETATM    6  C   UNL     1     -10.096  14.011  65.774  1.00  0.00    -0.345 C  
BRANCH   6   7
HETATM    7  C   UNL     1      -9.989  12.907  66.874  1.00  0.00    -0.238 C  
HETATM    8  O   UNL     1      -8.664  13.060  67.504  1.00  0.00    -0.175 OA 
HETATM    9  P   UNL     1     -11.224  13.298  68.167  1.00  0.00    -0.312 P  
HETATM   10  P   UNL     1     -10.149  11.149  66.389  1.00  0.00    -0.242 P  
HETATM   11  H   UNL     1      -8.599  12.388  68.173  1.00  0.00     0.000 HD 
HETATM   12  O   UNL     1     -10.285   9.662  65.979  1.00  0.00    -0.265 OA 
HETATM   13  O   UNL     1      -8.835  11.275  65.412  1.00  0.00    -0.157 OA 
HETATM   14  O   UNL     1     -11.280  11.575  65.273  1.00  0.00    -0.239 OA 
HETATM   15  O   UNL     1     -12.267  13.629  69.261  1.00  0.00    -0.320 OA 
HETATM   16  O   UNL     1     -10.548  12.080  69.056  1.00  0.00    -0.190 OA 
HETATM   17  O   UNL     1     -10.208  14.458  68.782  1.00  0.00    -0.235 OA 
ENDBRANCH   6   7
ENDBRANCH   5   6
ENDBRANCH   4   5
TORSDOF 3
ENDMDL
MODEL       55
REMARK 921   NORMALIZED FREE ENERGY PREDICTED BY IDOCK:   -3.94 KCAL/MOL
REMARK 922        TOTAL FREE ENERGY PREDICTED BY IDOCK:   -4.97 KCAL/MOL
REMARK 923 INTER-LIGAND FREE ENERGY PREDICTED BY IDOCK:   -4.75 KCAL/MOL
REMARK 924 INTRA-LIGAND FREE ENERGY PREDICTED BY IDOCK:   -0.22 KCAL/MOL
REMARK 927      BINDING AFFINITY PREDICTED BY RF-SCORE:    0.00 PKD
ROOT
HETATM    1  N   UNL     1     -12.183  15.404  68.883  1.00  0.00    -0.604 NA 
HETATM    2  H2  UNL     1     -11.958  14.410  68.849  1.00  0.00     0.000 HD 
HETATM    3  H1  UNL     1     -13.133  15.556  69.222  1.00  0.00     0.000 HD 
HETATM    4  C   UNL     1     -11.193  16.140  69.657  1.00  0.00    -0.331 C  
ENDROOT
BRANCH   4   5
HETATM    5  C   UNL     1      -9.769  15.913  69.149  1.00  0.00    -0.249 C  
BRANCH   5   6
HETATM    6  C   UNL     1      -9.564  16.315  67.681  1.00  0.00    -0.227 C  
BRANCH   6   7
HETATM    7  C   UNL     1      -8.906  17.708  67.418  1.00  0.00    -0.235 C  
HETATM    8  O   UNL     1      -8.627  18.304  68.738  1.00  0.00    -0.301 OA 
HETATM    9  P   UNL     1      -7.279  17.407  66.634  1.00  0.00    -0.298 P  
HETATM   10  P   UNL     1      -9.826  18.959  66.451  1.00  0.00    -0.363 P  
HETATM   11  H   UNL     1      -8.226  19.151  68.578  1.00  0.00     0.000 HD 
HETATM   12  O   UNL     1     -10.606  20.018  65.633  1.00  0.00    -0.460 OA 
HETATM   13  O   UNL     1     -11.030  18.969  67.569  1.00  0.00    -0.443 OA 
HETATM   14  O   UNL     1     -10.432  17.759  65.503  1.00  0.00    -0.646 OA 
HETATM   15  O   UNL     1      -5.904  17.152  65.972  1.00  0.00    -0.256 OA 
HETATM   16  O   UNL     1      -6.997  19.025  66.804  1.00  0.00    -0.196 OA 
HETATM   17  O   UNL     1      -6.637  17.027  68.117  1.00  0.00    -0.142 OA 
ENDBRANCH   6   7
ENDBRANCH   5   6
ENDBRANCH   4   5
TORSDOF 3
ENDMDL
MODEL       56
REMARK 921   NORMALIZED FREE ENERGY PREDICTED BY IDOCK:   -3.92 KCAL/MOL
REMARK 922        TOTAL FREE ENERGY PREDICTED BY IDOCK:   -4.95 KCAL/MOL
REMARK 923 INTER-LIGAND FREE ENERGY PREDICTED BY IDOCK:   -4.79 KCAL/MOL
REMARK 924 INTRA-LIGAND FREE ENERGY PREDICTED BY IDOCK:   -0.16 KCAL/MOL
REMARK 927      BINDING AFFINITY PREDICTED BY RF-SCORE:    0.00 PKD
ROOT
HETATM    1  N   UNL     1      -7.374  13.919  67.272  1.00  0.00    -0.330 NA 
HETATM    2  H2  UNL     1      -7.314  13.397  66.398  1.00  0.00     0.000 HD 
HETATM    3  H1  UNL     1      -6.534  14.476  67.427  1.00  0.00     0.000 HD 
HETATM    4  C   UNL     1      -8.588  14.721  67.320  1.00  0.00    -0.212 C  
ENDROOT
BRANCH   4   5
HETATM    5  C   UNL     1      -9.848  13.887  67.089  1.00  0.00    -0.241 C  
BRANCH   5   6
HETATM    6  C   UNL     1     -10.394  13.973  65.656  1.00  0.00    -0.342 C  
BRANCH   6   7
HETATM    7  C   UNL     1     -10.540  12.627  64.876  1.00  0.00    -0.307 C  
HETATM    8  O   UNL     1      -9.545  12.655  63.787  1.00  0.00    -0.672 OA 
HETATM    9  P   UNL     1     -10.030  11.280  66.006  1.00  0.00    -0.253 P  
HETATM   10  P   UNL     1     -12.151  12.209  64.117  1.00  0.00    -0.381 P  
HETATM   11  H   UNL     1      -9.634  11.837  63.313  1.00  0.00     0.000 HD 
HETATM   12  O   UNL     1     -13.515  11.855  63.474  1.00  0.00    -0.493 OA 
HETATM   13  O   UNL     1     -12.076  13.548  63.168  1.00  0.00    -0.454 OA 
HETATM   14  O   UNL     1     -12.917  12.903  65.396  1.00  0.00    -0.615 OA 
HETATM   15  O   UNL     1      -9.598  10.141  66.961  1.00  0.00    -0.163 OA 
HETATM   16  O   UNL     1     -10.148  10.266  64.707  1.00  0.00    -0.344 OA 
HETATM   17  O   UNL     1      -8.436  11.643  65.716  1.00  0.00     0.016 OA 
ENDBRANCH   6   7
ENDBRANCH   5   6
ENDBRANCH   4   5
TORSDOF 3
ENDMDL
MODEL       57
REMARK 921   NORMALIZED FREE ENERGY PREDICTED BY IDOCK:   -3.91 KCAL/MOL
REMARK 922        TOTAL FREE ENERGY PREDICTED BY IDOCK:   -4.94 KCAL/MOL
REMARK 923 INTER-LIGAND FREE ENERGY PREDICTED BY IDOCK:   -4.76 KCAL/MOL
REMARK 924 INTRA-LIGAND FREE ENERGY PREDICTED BY IDOCK:   -0.18 KCAL/MOL
REMARK 927      BINDING AFFINITY PREDICTED BY RF-SCORE:    0.00 PKD
ROOT
HETATM    1  N   UNL     1     -11.185   6.126  66.656  1.00  0.00    -0.758 NA 
HETATM    2  H2  UNL     1     -11.816   6.927  66.651  1.00  0.00     0.000 HD 
HETATM    3  H1  UNL     1     -10.651   6.072  65.789  1.00  0.00     0.000 HD 
HETATM    4  C   UNL     1     -10.330   6.139  67.835  1.00  0.00    -0.203 C  
ENDROOT
BRANCH   4   5
HETATM    5  C   UNL     1     -11.130   6.219  69.135  1.00  0.00    -0.457 C  
BRANCH   5   6
HETATM    6  C   UNL     1     -10.988   7.560  69.868  1.00  0.00    -0.223 C  
BRANCH   6   7
HETATM    7  C   UNL     1     -11.250   7.552  71.408  1.00  0.00    -0.242 C  
HETATM    8  O   UNL     1     -11.432   6.142  71.803  1.00  0.00    -0.285 OA 
HETATM    9  P   UNL     1      -9.717   8.123  72.230  1.00  0.00    -0.308 P  
HETATM   10  P   UNL     1     -12.680   8.480  72.073  1.00  0.00    -0.395 P  
HETATM   11  H   UNL     1     -11.591   6.137  72.739  1.00  0.00     0.000 HD 
HETATM   12  O   UNL     1     -13.891   9.266  72.636  1.00  0.00    -0.449 OA 
HETATM   13  O   UNL     1     -13.716   7.556  71.196  1.00  0.00    -0.285 OA 
HETATM   14  O   UNL     1     -12.430   9.646  70.940  1.00  0.00    -0.293 OA 
HETATM   15  O   UNL     1      -8.421   8.606  72.924  1.00  0.00    -0.403 OA 
HETATM   16  O   UNL     1     -10.436   7.716  73.660  1.00  0.00    -0.316 OA 
HETATM   17  O   UNL     1      -9.044   6.621  72.014  1.00  0.00    -0.140 OA 
ENDBRANCH   6   7
ENDBRANCH   5   6
ENDBRANCH   4   5
TORSDOF 3
ENDMDL
MODEL       58
REMARK 921   NORMALIZED FREE ENERGY PREDICTED BY IDOCK:   -3.90 KCAL/MOL
REMARK 922        TOTAL FREE ENERGY PREDICTED BY IDOCK:   -4.93 KCAL/MOL
REMARK 923 INTER-LIGAND FREE ENERGY PREDICTED BY IDOCK:   -4.78 KCAL/MOL
REMARK 924 INTRA-LIGAND FREE ENERGY PREDICTED BY IDOCK:   -0.15 KCAL/MOL
REMARK 927      BINDING AFFINITY PREDICTED BY RF-SCORE:    0.00 PKD
ROOT
HETATM    1  N   UNL     1     -13.734  13.671  72.574  1.00  0.00    -0.687 NA 
HETATM    2  H2  UNL     1     -13.676  12.688  72.309  1.00  0.00     0.000 HD 
HETATM    3  H1  UNL     1     -13.729  13.779  73.589  1.00  0.00     0.000 HD 
HETATM    4  C   UNL     1     -12.689  14.451  71.927  1.00  0.00    -0.349 C  
ENDROOT
BRANCH   4   5
HETATM    5  C   UNL     1     -12.696  14.289  70.407  1.00  0.00    -0.355 C  
BRANCH   5   6
HETATM    6  C   UNL     1     -11.345  13.851  69.824  1.00  0.00    -0.219 C  
BRANCH   6   7
HETATM    7  C   UNL     1     -11.218  13.848  68.267  1.00  0.00    -0.272 C  
HETATM    8  O   UNL     1     -12.523  14.281  67.732  1.00  0.00    -0.567 OA 
HETATM    9  P   UNL     1     -10.016  15.151  67.811  1.00  0.00    -0.226 P  
HETATM   10  P   UNL     1     -10.782  12.289  67.412  1.00  0.00    -0.247 P  
HETATM   11  H   UNL     1     -12.445  14.279  66.785  1.00  0.00     0.000 HD 
HETATM   12  O   UNL     1     -10.413  10.970  66.689  1.00  0.00    -0.238 OA 
HETATM   13  O   UNL     1     -12.138  11.566  67.992  1.00  0.00    -0.617 OA 
HETATM   14  O   UNL     1      -9.787  11.900  68.663  1.00  0.00    -0.197 OA 
HETATM   15  O   UNL     1      -8.999  16.252  67.426  1.00  0.00    -0.185 OA 
HETATM   16  O   UNL     1     -10.438  14.867  66.240  1.00  0.00    -0.284 OA 
HETATM   17  O   UNL     1     -11.187  16.306  68.032  1.00  0.00    -0.334 OA 
ENDBRANCH   6   7
ENDBRANCH   5   6
ENDBRANCH   4   5
TORSDOF 3
ENDMDL
MODEL       59
REMARK 921   NORMALIZED FREE ENERGY PREDICTED BY IDOCK:   -3.87 KCAL/MOL
REMARK 922        TOTAL FREE ENERGY PREDICTED BY IDOCK:   -4.89 KCAL/MOL
REMARK 923 INTER-LIGAND FREE ENERGY PREDICTED BY IDOCK:   -4.46 KCAL/MOL
REMARK 924 INTRA-LIGAND FREE ENERGY PREDICTED BY IDOCK:   -0.43 KCAL/MOL
REMARK 927      BINDING AFFINITY PREDICTED BY RF-SCORE:    0.00 PKD
ROOT
HETATM    1  N   UNL     1      -7.177  11.876  69.336  1.00  0.00    -0.335 NA 
HETATM    2  H2  UNL     1      -7.058  11.032  68.776  1.00  0.00     0.000 HD 
HETATM    3  H1  UNL     1      -6.578  11.859  70.161  1.00  0.00     0.000 HD 
HETATM    4  C   UNL     1      -6.979  13.072  68.531  1.00  0.00    -0.102 C  
ENDROOT
BRANCH   4   5
HETATM    5  C   UNL     1      -7.877  13.099  67.294  1.00  0.00    -0.125 C  
BRANCH   5   6
HETATM    6  C   UNL     1      -9.260  13.718  67.546  1.00  0.00    -0.216 C  
BRANCH   6   7
HETATM    7  C   UNL     1     -10.500  12.818  67.240  1.00  0.00    -0.232 C  
HETATM    8  O   UNL     1      -9.994  11.614  66.552  1.00  0.00    -0.197 OA 
HETATM    9  P   UNL     1     -11.175  12.250  68.844  1.00  0.00    -0.282 P  
HETATM   10  P   UNL     1     -11.856  13.490  66.211  1.00  0.00    -0.428 P  
HETATM   11  H   UNL     1     -10.749  11.067  66.367  1.00  0.00     0.000 HD 
HETATM   12  O   UNL     1     -13.003  14.059  65.341  1.00  0.00    -0.726 OA 
HETATM   13  O   UNL     1     -10.826  13.693  64.948  1.00  0.00    -0.332 OA 
HETATM   14  O   UNL     1     -11.629  14.965  66.903  1.00  0.00    -0.345 OA 
HETATM   15  O   UNL     1     -11.746  11.769  70.200  1.00  0.00    -0.316 OA 
HETATM   16  O   UNL     1     -12.181  11.270  67.973  1.00  0.00    -0.621 OA 
HETATM   17  O   UNL     1      -9.973  11.110  68.944  1.00  0.00    -0.201 OA 
ENDBRANCH   6   7
ENDBRANCH   5   6
ENDBRANCH   4   5
TORSDOF 3
ENDMDL
MODEL       60
REMARK 921   NORMALIZED FREE ENERGY PREDICTED BY IDOCK:   -3.87 KCAL/MOL
REMARK 922        TOTAL FREE ENERGY PREDICTED BY IDOCK:   -4.89 KCAL/MOL
REMARK 923 INTER-LIGAND FREE ENERGY PREDICTED BY IDOCK:   -4.72 KCAL/MOL
REMARK 924 INTRA-LIGAND FREE ENERGY PREDICTED BY IDOCK:   -0.16 KCAL/MOL
REMARK 927      BINDING AFFINITY PREDICTED BY RF-SCORE:    0.00 PKD
ROOT
HETATM    1  N   UNL     1     -13.019  14.749  70.121  1.00  0.00    -0.587 NA 
HETATM    2  H2  UNL     1     -12.563  13.847  70.255  1.00  0.00     0.000 HD 
HETATM    3  H1  UNL     1     -13.941  14.763  70.557  1.00  0.00     0.000 HD 
HETATM    4  C   UNL     1     -12.171  15.839  70.580  1.00  0.00    -0.384 C  
ENDROOT
BRANCH   4   5
HETATM    5  C   UNL     1     -10.789  15.818  69.927  1.00  0.00    -0.330 C  
BRANCH   5   6
HETATM    6  C   UNL     1     -10.546  16.979  68.953  1.00  0.00    -0.328 C  
BRANCH   6   7
HETATM    7  C   UNL     1      -9.504  16.737  67.814  1.00  0.00    -0.228 C  
HETATM    8  O   UNL     1      -9.234  15.287  67.784  1.00  0.00    -0.185 OA 
HETATM    9  P   UNL     1     -10.321  17.142  66.227  1.00  0.00    -0.205 P  
HETATM   10  P   UNL     1      -7.882  17.580  67.898  1.00  0.00    -0.231 P  
HETATM   11  H   UNL     1      -8.600  15.140  67.091  1.00  0.00     0.000 HD 
HETATM   12  O   UNL     1      -6.509  18.294  67.968  1.00  0.00    -0.188 OA 
HETATM   13  O   UNL     1      -7.538  16.825  69.315  1.00  0.00    -0.217 OA 
HETATM   14  O   UNL     1      -8.619  18.903  68.540  1.00  0.00    -0.329 OA 
HETATM   15  O   UNL     1     -11.012  17.485  64.885  1.00  0.00    -0.887 OA 
HETATM   16  O   UNL     1      -8.978  16.533  65.482  1.00  0.00    -0.368 OA 
HETATM   17  O   UNL     1     -11.103  15.678  66.258  1.00  0.00    -0.258 OA 
ENDBRANCH   6   7
ENDBRANCH   5   6
ENDBRANCH   4   5
TORSDOF 3
ENDMDL
MODEL       61
REMARK 921   NORMALIZED FREE ENERGY PREDICTED BY IDOCK:   -3.86 KCAL/MOL
REMARK 922        TOTAL FREE ENERGY PREDICTED BY IDOCK:   -4.88 KCAL/MOL
REMARK 923 INTER-LIGAND FREE ENERGY PREDICTED BY IDOCK:   -4.82 KCAL/MOL
REMARK 924 INTRA-LIGAND FREE ENERGY PREDICTED BY IDOCK:   -0.06 KCAL/MOL
REMARK 927      BINDING AFFINITY PREDICTED BY RF-SCORE:    0.00 PKD
ROOT
HETATM    1  N   UNL     1     -14.245   8.945  73.237  1.00  0.00    -1.237 NA 
HETATM    2  H2  UNL     1     -14.033   9.800  73.751  1.00  0.00     0.000 HD 
HETATM    3  H1  UNL     1     -15.232   8.700  73.322  1.00  0.00     0.000 HD 
HETATM    4  C   UNL     1     -13.816   9.047  71.850  1.00  0.00    -0.423 C  
ENDROOT
BRANCH   4   5
HETATM    5  C   UNL     1     -12.337   9.415  71.722  1.00  0.00    -0.471 C  
BRANCH   5   6
HETATM    6  C   UNL     1     -11.586   8.603  70.657  1.00  0.00    -0.225 C  
BRANCH   6   7
HETATM    7  C   UNL     1     -10.727   9.411  69.633  1.00  0.00    -0.235 C  
HETATM    8  O   UNL     1     -11.079   8.909  68.291  1.00  0.00    -0.467 OA 
HETATM    9  P   UNL     1     -11.288  11.152  69.696  1.00  0.00    -0.283 P  
HETATM   10  P   UNL     1      -8.902   9.354  69.761  1.00  0.00    -0.217 P  
HETATM   11  H   UNL     1     -10.556   9.401  67.668  1.00  0.00     0.000 HD 
HETATM   12  O   UNL     1      -7.358   9.305  69.870  1.00  0.00    -0.059 OA 
HETATM   13  O   UNL     1      -8.914   7.729  69.518  1.00  0.00    -0.142 OA 
HETATM   14  O   UNL     1      -9.034   9.320  71.401  1.00  0.00    -0.311 OA 
HETATM   15  O   UNL     1     -11.763  12.624  69.750  1.00  0.00    -0.309 OA 
HETATM   16  O   UNL     1     -10.310  11.423  68.393  1.00  0.00    -0.181 OA 
HETATM   17  O   UNL     1     -12.605  10.759  68.765  1.00  0.00    -0.257 OA 
ENDBRANCH   6   7
ENDBRANCH   5   6
ENDBRANCH   4   5
TORSDOF 3
ENDMDL
MODEL       62
REMARK 921   NORMALIZED FREE ENERGY PREDICTED BY IDOCK:   -3.85 KCAL/MOL
REMARK 922        TOTAL FREE ENERGY PREDICTED BY IDOCK:   -4.87 KCAL/MOL
REMARK 923 INTER-LIGAND FREE ENERGY PREDICTED BY IDOCK:   -4.71 KCAL/MOL
REMARK 924 INTRA-LIGAND FREE ENERGY PREDICTED BY IDOCK:   -0.15 KCAL/MOL
REMARK 927      BINDING AFFINITY PREDICTED BY RF-SCORE:    0.00 PKD
ROOT
HETATM    1  N   UNL     1     -12.494  14.442  63.665  1.00  0.00    -1.086 NA 
HETATM    2  H2  UNL     1     -12.241  15.276  64.195  1.00  0.00     0.000 HD 
HETATM    3  H1  UNL     1     -12.202  14.522  62.691  1.00  0.00     0.000 HD 
HETATM    4  C   UNL     1     -11.978  13.239  64.303  1.00  0.00    -0.421 C  
ENDROOT
BRANCH   4   5
HETATM    5  C   UNL     1     -12.416  13.119  65.763  1.00  0.00    -0.441 C  
BRANCH   5   6
HETATM    6  C   UNL     1     -12.031  14.328  66.627  1.00  0.00    -0.454 C  
BRANCH   6   7
HETATM    7  C   UNL     1     -10.927  14.097  67.708  1.00  0.00    -0.262 C  
HETATM    8  O   UNL     1     -10.657  12.647  67.740  1.00  0.00    -0.214 OA 
HETATM    9  P   UNL     1      -9.393  14.894  67.104  1.00  0.00    -0.239 P  
HETATM   10  P   UNL     1     -11.247  14.619  69.432  1.00  0.00    -0.292 P  
HETATM   11  H   UNL     1      -9.985  12.507  68.397  1.00  0.00     0.000 HD 
HETATM   12  O   UNL     1     -11.518  15.060  70.892  1.00  0.00    -0.280 OA 
HETATM   13  O   UNL     1     -12.526  13.593  69.529  1.00  0.00    -0.241 OA 
HETATM   14  O   UNL     1     -12.070  15.926  68.869  1.00  0.00    -0.315 OA 
HETATM   15  O   UNL     1      -8.096  15.567  66.594  1.00  0.00    -0.240 OA 
HETATM   16  O   UNL     1      -8.627  14.189  68.388  1.00  0.00    -0.168 OA 
HETATM   17  O   UNL     1      -9.123  13.604  66.095  1.00  0.00    -0.062 OA 
ENDBRANCH   6   7
ENDBRANCH   5   6
ENDBRANCH   4   5
TORSDOF 3
ENDMDL
MODEL       63
REMARK 921   NORMALIZED FREE ENERGY PREDICTED BY IDOCK:   -3.81 KCAL/MOL
REMARK 922        TOTAL FREE ENERGY PREDICTED BY IDOCK:   -4.83 KCAL/MOL
REMARK 923 INTER-LIGAND FREE ENERGY PREDICTED BY IDOCK:   -4.67 KCAL/MOL
REMARK 924 INTRA-LIGAND FREE ENERGY PREDICTED BY IDOCK:   -0.16 KCAL/MOL
REMARK 927      BINDING AFFINITY PREDICTED BY RF-SCORE:    0.00 PKD
ROOT
HETATM    1  N   UNL     1      -8.977  18.998  66.560  1.00  0.00    -0.322 NA 
HETATM    2  H2  UNL     1      -9.767  19.493  66.973  1.00  0.00     0.000 HD 
HETATM    3  H1  UNL     1      -8.091  19.358  66.915  1.00  0.00     0.000 HD 
HETATM    4  C   UNL     1      -9.105  17.559  66.744  1.00  0.00    -0.262 C  
ENDROOT
BRANCH   4   5
HETATM    5  C   UNL     1     -10.432  17.019  66.212  1.00  0.00    -0.258 C  
BRANCH   5   6
HETATM    6  C   UNL     1     -10.901  15.733  66.908  1.00  0.00    -0.265 C  
BRANCH   6   7
HETATM    7  C   UNL     1     -10.566  14.384  66.195  1.00  0.00    -0.298 C  
HETATM    8  O   UNL     1      -9.619  14.700  65.109  1.00  0.00    -0.456 OA 
HETATM    9  P   UNL     1      -9.652  13.343  67.391  1.00  0.00    -0.240 P  
HETATM   10  P   UNL     1     -11.925  13.409  65.451  1.00  0.00    -0.445 P  
HETATM   11  H   UNL     1      -9.415  13.879  64.675  1.00  0.00     0.000 HD 
HETATM   12  O   UNL     1     -13.075  12.584  64.822  1.00  0.00    -0.853 OA 
HETATM   13  O   UNL     1     -12.290  14.649  64.438  1.00  0.00    -0.553 OA 
HETATM   14  O   UNL     1     -12.906  13.858  66.693  1.00  0.00    -0.110 OA 
HETATM   15  O   UNL     1      -8.878  12.463  68.402  1.00  0.00    -0.182 OA 
HETATM   16  O   UNL     1      -9.393  12.292  66.143  1.00  0.00    -0.230 OA 
HETATM   17  O   UNL     1      -8.271  14.213  67.088  1.00  0.00    -0.192 OA 
ENDBRANCH   6   7
ENDBRANCH   5   6
ENDBRANCH   4   5
TORSDOF 3
ENDMDL
MODEL       64
REMARK 921   NORMALIZED FREE ENERGY PREDICTED BY IDOCK:   -3.81 KCAL/MOL
REMARK 922        TOTAL FREE ENERGY PREDICTED BY IDOCK:   -4.82 KCAL/MOL
REMARK 923 INTER-LIGAND FREE ENERGY PREDICTED BY IDOCK:   -4.33 KCAL/MOL
REMARK 924 INTRA-LIGAND FREE ENERGY PREDICTED BY IDOCK:   -0.49 KCAL/MOL
REMARK 927      BINDING AFFINITY PREDICTED BY RF-SCORE:    0.00 PKD
ROOT
HETATM    1  N   UNL     1     -13.018  12.595  64.640  1.00  0.00    -0.844 NA 
HETATM    2  H2  UNL     1     -12.435  13.234  65.181  1.00  0.00     0.000 HD 
HETATM    3  H1  UNL     1     -13.918  13.019  64.415  1.00  0.00     0.000 HD 
HETATM    4  C   UNL     1     -12.316  12.120  63.456  1.00  0.00    -0.574 C  
ENDROOT
BRANCH   4   5
HETATM    5  C   UNL     1     -10.967  11.485  63.793  1.00  0.00    -0.485 C  
BRANCH   5   6
HETATM    6  C   UNL     1     -10.219  12.187  64.935  1.00  0.00    -0.309 C  
BRANCH   6   7
HETATM    7  C   UNL     1      -9.968  11.351  66.231  1.00  0.00    -0.224 C  
HETATM    8  O   UNL     1     -10.597  10.034  66.017  1.00  0.00    -0.120 OA 
HETATM    9  P   UNL     1      -8.167  11.049  66.350  1.00  0.00    -0.140 P  
HETATM   10  P   UNL     1     -10.588  11.984  67.832  1.00  0.00    -0.220 P  
HETATM   11  H   UNL     1     -10.444   9.526  66.805  1.00  0.00     0.000 HD 
HETATM   12  O   UNL     1     -11.112  12.521  69.187  1.00  0.00    -0.243 OA 
HETATM   13  O   UNL     1     -12.133  11.942  67.276  1.00  0.00    -0.582 OA 
HETATM   14  O   UNL     1     -10.233  13.515  67.346  1.00  0.00    -0.234 OA 
HETATM   15  O   UNL     1      -6.643  10.794  66.450  1.00  0.00    -0.109 OA 
HETATM   16  O   UNL     1      -8.508  10.044  67.616  1.00  0.00    -0.115 OA 
HETATM   17  O   UNL     1      -8.296   9.844  65.215  1.00  0.00    -0.136 OA 
ENDBRANCH   6   7
ENDBRANCH   5   6
ENDBRANCH   4   5
TORSDOF 3
ENDMDL
MODEL       65
REMARK 921   NORMALIZED FREE ENERGY PREDICTED BY IDOCK:   -3.81 KCAL/MOL
REMARK 922        TOTAL FREE ENERGY PREDICTED BY IDOCK:   -4.82 KCAL/MOL
REMARK 923 INTER-LIGAND FREE ENERGY PREDICTED BY IDOCK:   -4.26 KCAL/MOL
REMARK 924 INTRA-LIGAND FREE ENERGY PREDICTED BY IDOCK:   -0.55 KCAL/MOL
REMARK 927      BINDING AFFINITY PREDICTED BY RF-SCORE:    0.00 PKD
ROOT
HETATM    1  N   UNL     1     -12.152  14.710  67.792  1.00  0.00    -0.587 NA 
HETATM    2  H2  UNL     1     -11.804  15.651  67.972  1.00  0.00     0.000 HD 
HETATM    3  H1  UNL     1     -13.137  14.626  68.044  1.00  0.00     0.000 HD 
HETATM    4  C   UNL     1     -11.895  14.310  66.416  1.00  0.00    -0.411 C  
ENDROOT
BRANCH   4   5
HETATM    5  C   UNL     1     -10.419  14.434  66.038  1.00  0.00    -0.307 C  
BRANCH   5   6
HETATM    6  C   UNL     1      -9.956  15.881  65.813  1.00  0.00    -0.391 C  
BRANCH   6   7
HETATM    7  C   UNL     1      -9.263  16.594  67.018  1.00  0.00    -0.220 C  
HETATM    8  O   UNL     1      -9.417  15.706  68.186  1.00  0.00    -0.193 OA 
HETATM    9  P   UNL     1      -7.470  16.665  66.657  1.00  0.00    -0.230 P  
HETATM   10  P   UNL     1      -9.849  18.251  67.528  1.00  0.00    -0.349 P  
HETATM   11  H   UNL     1      -8.995  16.140  68.918  1.00  0.00     0.000 HD 
HETATM   12  O   UNL     1     -10.344  19.654  67.959  1.00  0.00    -0.426 OA 
HETATM   13  O   UNL     1     -11.342  17.648  67.853  1.00  0.00     0.054 OA 
HETATM   14  O   UNL     1     -10.115  18.626  65.949  1.00  0.00    -0.522 OA 
HETATM   15  O   UNL     1      -5.954  16.725  66.352  1.00  0.00    -0.306 OA 
HETATM   16  O   UNL     1      -7.272  17.227  68.198  1.00  0.00    -0.184 OA 
HETATM   17  O   UNL     1      -7.320  15.073  67.102  1.00  0.00    -0.190 OA 
ENDBRANCH   6   7
ENDBRANCH   5   6
ENDBRANCH   4   5
TORSDOF 3
ENDMDL
MODEL       66
REMARK 921   NORMALIZED FREE ENERGY PREDICTED BY IDOCK:   -3.78 KCAL/MOL
REMARK 922        TOTAL FREE ENERGY PREDICTED BY IDOCK:   -4.79 KCAL/MOL
REMARK 923 INTER-LIGAND FREE ENERGY PREDICTED BY IDOCK:   -4.18 KCAL/MOL
REMARK 924 INTRA-LIGAND FREE ENERGY PREDICTED BY IDOCK:   -0.61 KCAL/MOL
REMARK 927      BINDING AFFINITY PREDICTED BY RF-SCORE:    0.00 PKD
ROOT
HETATM    1  N   UNL     1     -11.172   6.160  66.691  1.00  0.00    -0.758 NA 
HETATM    2  H2  UNL     1     -11.466   7.018  67.156  1.00  0.00     0.000 HD 
HETATM    3  H1  UNL     1     -11.036   6.311  65.691  1.00  0.00     0.000 HD 
HETATM    4  C   UNL     1      -9.994   5.592  67.332  1.00  0.00    -0.156 C  
ENDROOT
BRANCH   4   5
HETATM    5  C   UNL     1     -10.198   5.365  68.830  1.00  0.00    -0.266 C  
BRANCH   5   6
HETATM    6  C   UNL     1      -9.657   6.502  69.709  1.00  0.00    -0.161 C  
BRANCH   6   7
HETATM    7  C   UNL     1     -10.697   7.543  70.233  1.00  0.00    -0.238 C  
HETATM    8  O   UNL     1     -12.024   7.088  69.777  1.00  0.00    -0.588 OA 
HETATM    9  P   UNL     1     -10.713   7.431  72.060  1.00  0.00    -0.238 P  
HETATM   10  P   UNL     1     -10.532   9.295  69.731  1.00  0.00    -0.242 P  
HETATM   11  H   UNL     1     -12.656   7.721  70.096  1.00  0.00     0.000 HD 
HETATM   12  O   UNL     1     -10.394  10.778  69.306  1.00  0.00    -0.213 OA 
HETATM   13  O   UNL     1     -10.711   8.882  68.151  1.00  0.00    -0.187 OA 
HETATM   14  O   UNL     1      -8.896   9.146  69.801  1.00  0.00    -0.140 OA 
HETATM   15  O   UNL     1     -10.726   7.336  73.605  1.00  0.00    -0.378 OA 
HETATM   16  O   UNL     1     -12.008   8.456  72.023  1.00  0.00    -0.310 OA 
HETATM   17  O   UNL     1     -11.651   6.065  71.966  1.00  0.00    -0.300 OA 
ENDBRANCH   6   7
ENDBRANCH   5   6
ENDBRANCH   4   5
TORSDOF 3
ENDMDL
MODEL       67
REMARK 921   NORMALIZED FREE ENERGY PREDICTED BY IDOCK:   -3.78 KCAL/MOL
REMARK 922        TOTAL FREE ENERGY PREDICTED BY IDOCK:   -4.79 KCAL/MOL
REMARK 923 INTER-LIGAND FREE ENERGY PREDICTED BY IDOCK:   -4.31 KCAL/MOL
REMARK 924 INTRA-LIGAND FREE ENERGY PREDICTED BY IDOCK:   -0.47 KCAL/MOL
REMARK 927      BINDING AFFINITY PREDICTED BY RF-SCORE:    0.00 PKD
ROOT
HETATM    1  N   UNL     1     -13.649   8.910  73.097  1.00  0.00    -0.998 NA 
HETATM    2  H2  UNL     1     -12.865   8.806  73.739  1.00  0.00     0.000 HD 
HETATM    3  H1  UNL     1     -14.523   9.056  73.602  1.00  0.00     0.000 HD 
HETATM    4  C   UNL     1     -13.392   9.958  72.120  1.00  0.00    -0.399 C  
ENDROOT
BRANCH   4   5
HETATM    5  C   UNL     1     -12.083   9.740  71.361  1.00  0.00    -0.486 C  
BRANCH   5   6
HETATM    6  C   UNL     1     -11.897   8.306  70.846  1.00  0.00    -0.232 C  
BRANCH   6   7
HETATM    7  C   UNL     1     -10.548   7.600  71.198  1.00  0.00    -0.221 C  
HETATM    8  O   UNL     1      -9.720   8.594  71.907  1.00  0.00    -0.259 OA 
HETATM    9  P   UNL     1     -10.920   6.279  72.409  1.00  0.00    -0.283 P  
HETATM   10  P   UNL     1      -9.522   6.917  69.846  1.00  0.00    -0.154 P  
HETATM   11  H   UNL     1      -8.900   8.164  72.122  1.00  0.00     0.000 HD 
HETATM   12  O   UNL     1      -8.652   6.338  68.702  1.00  0.00    -0.121 OA 
HETATM   13  O   UNL     1      -9.362   8.411  69.182  1.00  0.00    -0.150 OA 
HETATM   14  O   UNL     1     -10.891   6.479  69.047  1.00  0.00    -0.250 OA 
HETATM   15  O   UNL     1     -11.234   5.162  73.434  1.00  0.00    -0.313 OA 
HETATM   16  O   UNL     1      -9.287   6.084  72.564  1.00  0.00    -0.143 OA 
HETATM   17  O   UNL     1     -11.009   7.414  73.617  1.00  0.00    -0.306 OA 
ENDBRANCH   6   7
ENDBRANCH   5   6
ENDBRANCH   4   5
TORSDOF 3
ENDMDL
MODEL       68
REMARK 921   NORMALIZED FREE ENERGY PREDICTED BY IDOCK:   -3.77 KCAL/MOL
REMARK 922        TOTAL FREE ENERGY PREDICTED BY IDOCK:   -4.78 KCAL/MOL
REMARK 923 INTER-LIGAND FREE ENERGY PREDICTED BY IDOCK:   -4.57 KCAL/MOL
REMARK 924 INTRA-LIGAND FREE ENERGY PREDICTED BY IDOCK:   -0.21 KCAL/MOL
REMARK 927      BINDING AFFINITY PREDICTED BY RF-SCORE:    0.00 PKD
ROOT
HETATM    1  N   UNL     1     -12.227  14.324  68.180  1.00  0.00    -0.580 NA 
HETATM    2  H2  UNL     1     -11.643  13.521  68.410  1.00  0.00     0.000 HD 
HETATM    3  H1  UNL     1     -13.130  14.270  68.652  1.00  0.00     0.000 HD 
HETATM    4  C   UNL     1     -11.533  15.574  68.453  1.00  0.00    -0.363 C  
ENDROOT
BRANCH   4   5
HETATM    5  C   UNL     1     -10.180  15.657  67.746  1.00  0.00    -0.252 C  
BRANCH   5   6
HETATM    6  C   UNL     1      -9.331  16.864  68.170  1.00  0.00    -0.240 C  
BRANCH   6   7
HETATM    7  C   UNL     1      -8.641  17.675  67.027  1.00  0.00    -0.237 C  
HETATM    8  O   UNL     1      -9.147  17.132  65.752  1.00  0.00    -0.525 OA 
HETATM    9  P   UNL     1      -9.250  19.398  67.132  1.00  0.00    -0.344 P  
HETATM   10  P   UNL     1      -6.814  17.680  66.917  1.00  0.00    -0.216 P  
HETATM   11  H   UNL     1      -8.727  17.626  65.058  1.00  0.00     0.000 HD 
HETATM   12  O   UNL     1      -5.268  17.684  66.824  1.00  0.00    -0.130 OA 
HETATM   13  O   UNL     1      -6.801  16.051  66.707  1.00  0.00    -0.241 OA 
HETATM   14  O   UNL     1      -6.730  17.679  68.560  1.00  0.00    -0.192 OA 
HETATM   15  O   UNL     1      -9.765  20.855  67.220  1.00  0.00    -0.458 OA 
HETATM   16  O   UNL     1      -8.460  19.671  65.707  1.00  0.00    -0.401 OA 
HETATM   17  O   UNL     1     -10.662  18.942  66.389  1.00  0.00    -0.392 OA 
ENDBRANCH   6   7
ENDBRANCH   5   6
ENDBRANCH   4   5
TORSDOF 3
ENDMDL
MODEL       69
REMARK 921   NORMALIZED FREE ENERGY PREDICTED BY IDOCK:   -3.76 KCAL/MOL
REMARK 922        TOTAL FREE ENERGY PREDICTED BY IDOCK:   -4.76 KCAL/MOL
REMARK 923 INTER-LIGAND FREE ENERGY PREDICTED BY IDOCK:   -4.30 KCAL/MOL
REMARK 924 INTRA-LIGAND FREE ENERGY PREDICTED BY IDOCK:   -0.46 KCAL/MOL
REMARK 927      BINDING AFFINITY PREDICTED BY RF-SCORE:    0.00 PKD
ROOT
HETATM    1  N   UNL     1     -13.023  14.970  70.119  1.00  0.00    -0.630 NA 
HETATM    2  H2  UNL     1     -12.801  13.978  70.195  1.00  0.00     0.000 HD 
HETATM    3  H1  UNL     1     -13.359  15.342  71.008  1.00  0.00     0.000 HD 
HETATM    4  C   UNL     1     -11.893  15.722  69.594  1.00  0.00    -0.340 C  
ENDROOT
BRANCH   4   5
HETATM    5  C   UNL     1     -11.390  15.166  68.261  1.00  0.00    -0.338 C  
BRANCH   5   6
HETATM    6  C   UNL     1     -12.027  13.825  67.870  1.00  0.00    -0.391 C  
BRANCH   6   7
HETATM    7  C   UNL     1     -11.173  12.541  68.118  1.00  0.00    -0.267 C  
HETATM    8  O   UNL     1      -9.954  12.970  68.829  1.00  0.00    -0.395 OA 
HETATM    9  P   UNL     1     -12.104  11.479  69.283  1.00  0.00    -0.112 P  
HETATM   10  P   UNL     1     -10.630  11.542  66.683  1.00  0.00    -0.272 P  
HETATM   11  H   UNL     1      -9.435  12.188  68.980  1.00  0.00     0.000 HD 
HETATM   12  O   UNL     1     -10.170  10.697  65.469  1.00  0.00    -0.264 OA 
HETATM   13  O   UNL     1      -9.790  12.820  66.084  1.00  0.00    -0.262 OA 
HETATM   14  O   UNL     1     -12.060  11.864  65.937  1.00  0.00    -0.474 OA 
HETATM   15  O   UNL     1     -12.891  10.581  70.268  1.00  0.00    -0.295 OA 
HETATM   16  O   UNL     1     -10.761  10.519  69.343  1.00  0.00    -0.211 OA 
HETATM   17  O   UNL     1     -11.611  12.436  70.546  1.00  0.00    -0.052 OA 
ENDBRANCH   6   7
ENDBRANCH   5   6
ENDBRANCH   4   5
TORSDOF 3
ENDMDL
MODEL       70
REMARK 921   NORMALIZED FREE ENERGY PREDICTED BY IDOCK:   -3.74 KCAL/MOL
REMARK 922        TOTAL FREE ENERGY PREDICTED BY IDOCK:   -4.74 KCAL/MOL
REMARK 923 INTER-LIGAND FREE ENERGY PREDICTED BY IDOCK:   -4.31 KCAL/MOL
REMARK 924 INTRA-LIGAND FREE ENERGY PREDICTED BY IDOCK:   -0.43 KCAL/MOL
REMARK 927      BINDING AFFINITY PREDICTED BY RF-SCORE:    0.00 PKD
ROOT
HETATM    1  N   UNL     1     -11.772  15.973  71.244  1.00  0.00    -0.464 NA 
HETATM    2  H2  UNL     1     -11.937  16.553  70.421  1.00  0.00     0.000 HD 
HETATM    3  H1  UNL     1     -12.054  16.455  72.097  1.00  0.00     0.000 HD 
HETATM    4  C   UNL     1     -12.410  14.672  71.104  1.00  0.00    -0.335 C  
ENDROOT
BRANCH   4   5
HETATM    5  C   UNL     1     -11.988  13.949  69.826  1.00  0.00    -0.398 C  
BRANCH   5   6
HETATM    6  C   UNL     1     -10.656  14.444  69.245  1.00  0.00    -0.190 C  
BRANCH   6   7
HETATM    7  C   UNL     1     -10.737  15.372  67.990  1.00  0.00    -0.279 C  
HETATM    8  O   UNL     1     -12.002  16.124  68.096  1.00  0.00    -0.171 OA 
HETATM    9  P   UNL     1      -9.391  16.604  68.130  1.00  0.00    -0.235 P  
HETATM   10  P   UNL     1     -10.703  14.618  66.322  1.00  0.00    -0.335 P  
HETATM   11  H   UNL     1     -12.051  16.688  67.333  1.00  0.00     0.000 HD 
HETATM   12  O   UNL     1     -10.674  13.981  64.911  1.00  0.00    -0.371 OA 
HETATM   13  O   UNL     1     -12.079  13.782  66.648  1.00  0.00    -0.411 OA 
HETATM   14  O   UNL     1      -9.639  13.490  66.870  1.00  0.00    -0.241 OA 
HETATM   15  O   UNL     1      -8.253  17.647  68.248  1.00  0.00    -0.257 OA 
HETATM   16  O   UNL     1     -10.059  17.353  66.818  1.00  0.00    -0.289 OA 
HETATM   17  O   UNL     1     -10.297  17.467  69.221  1.00  0.00    -0.334 OA 
ENDBRANCH   6   7
ENDBRANCH   5   6
ENDBRANCH   4   5
TORSDOF 3
ENDMDL
MODEL       71
REMARK 921   NORMALIZED FREE ENERGY PREDICTED BY IDOCK:   -3.72 KCAL/MOL
REMARK 922        TOTAL FREE ENERGY PREDICTED BY IDOCK:   -4.71 KCAL/MOL
REMARK 923 INTER-LIGAND FREE ENERGY PREDICTED BY IDOCK:   -4.19 KCAL/MOL
REMARK 924 INTRA-LIGAND FREE ENERGY PREDICTED BY IDOCK:   -0.52 KCAL/MOL
REMARK 927      BINDING AFFINITY PREDICTED BY RF-SCORE:    0.00 PKD
ROOT
HETATM    1  N   UNL     1     -10.870   7.963  67.229  1.00  0.00    -0.518 NA 
HETATM    2  H2  UNL     1      -9.926   8.219  67.517  1.00  0.00     0.000 HD 
HETATM    3  H1  UNL     1     -11.116   8.401  66.342  1.00  0.00     0.000 HD 
HETATM    4  C   UNL     1     -11.034   6.517  67.199  1.00  0.00    -0.408 C  
ENDROOT
BRANCH   4   5
HETATM    5  C   UNL     1     -10.666   5.860  68.530  1.00  0.00    -0.327 C  
BRANCH   5   6
HETATM    6  C   UNL     1     -11.449   6.409  69.730  1.00  0.00    -0.468 C  
BRANCH   6   7
HETATM    7  C   UNL     1     -10.612   7.037  70.890  1.00  0.00    -0.217 C  
HETATM    8  O   UNL     1      -9.205   7.045  70.444  1.00  0.00    -0.156 OA 
HETATM    9  P   UNL     1     -11.113   8.791  71.043  1.00  0.00    -0.312 P  
HETATM   10  P   UNL     1     -10.644   6.247  72.540  1.00  0.00    -0.235 P  
HETATM   11  H   UNL     1      -8.696   7.427  71.150  1.00  0.00     0.000 HD 
HETATM   12  O   UNL     1     -10.672   5.579  73.937  1.00  0.00    -0.275 OA 
HETATM   13  O   UNL     1     -10.020   4.863  71.914  1.00  0.00    -0.176 OA 
HETATM   14  O   UNL     1     -12.232   5.880  72.317  1.00  0.00    -0.245 OA 
HETATM   15  O   UNL     1     -11.538  10.274  71.172  1.00  0.00    -0.355 OA 
HETATM   16  O   UNL     1      -9.871   8.961  72.119  1.00  0.00    -0.312 OA 
HETATM   17  O   UNL     1     -10.173   9.172  69.729  1.00  0.00    -0.191 OA 
ENDBRANCH   6   7
ENDBRANCH   5   6
ENDBRANCH   4   5
TORSDOF 3
ENDMDL
MODEL       72
REMARK 921   NORMALIZED FREE ENERGY PREDICTED BY IDOCK:   -3.72 KCAL/MOL
REMARK 922        TOTAL FREE ENERGY PREDICTED BY IDOCK:   -4.71 KCAL/MOL
REMARK 923 INTER-LIGAND FREE ENERGY PREDICTED BY IDOCK:   -4.03 KCAL/MOL
REMARK 924 INTRA-LIGAND FREE ENERGY PREDICTED BY IDOCK:   -0.68 KCAL/MOL
REMARK 927      BINDING AFFINITY PREDICTED BY RF-SCORE:    0.00 PKD
ROOT
HETATM    1  N   UNL     1     -14.195   7.474  71.029  1.00  0.00    -0.641 NA 
HETATM    2  H2  UNL     1     -14.262   6.771  71.765  1.00  0.00     0.000 HD 
HETATM    3  H1  UNL     1     -15.033   7.479  70.448  1.00  0.00     0.000 HD 
HETATM    4  C   UNL     1     -13.897   8.787  71.584  1.00  0.00    -0.397 C  
ENDROOT
BRANCH   4   5
HETATM    5  C   UNL     1     -12.640   8.780  72.455  1.00  0.00    -0.430 C  
BRANCH   5   6
HETATM    6  C   UNL     1     -11.331   8.778  71.654  1.00  0.00    -0.390 C  
BRANCH   6   7
HETATM    7  C   UNL     1     -10.561   7.420  71.566  1.00  0.00    -0.206 C  
HETATM    8  O   UNL     1     -11.485   6.375  72.045  1.00  0.00    -0.275 OA 
HETATM    9  P   UNL     1     -10.264   7.072  69.793  1.00  0.00    -0.214 P  
HETATM   10  P   UNL     1      -8.999   7.220  72.497  1.00  0.00    -0.135 P  
HETATM   11  H   UNL     1     -11.017   5.549  71.991  1.00  0.00     0.000 HD 
HETATM   12  O   UNL     1      -7.677   7.051  73.286  1.00  0.00    -0.089 OA 
HETATM   13  O   UNL     1      -9.787   7.472  73.916  1.00  0.00    -0.282 OA 
HETATM   14  O   UNL     1      -8.628   8.792  72.184  1.00  0.00    -0.355 OA 
HETATM   15  O   UNL     1     -10.012   6.778  68.295  1.00  0.00    -0.139 OA 
HETATM   16  O   UNL     1      -9.712   5.589  70.268  1.00  0.00    -0.164 OA 
HETATM   17  O   UNL     1     -11.834   6.558  69.633  1.00  0.00    -0.310 OA 
ENDBRANCH   6   7
ENDBRANCH   5   6
ENDBRANCH   4   5
TORSDOF 3
ENDMDL
MODEL       73
REMARK 921   NORMALIZED FREE ENERGY PREDICTED BY IDOCK:   -3.71 KCAL/MOL
REMARK 922        TOTAL FREE ENERGY PREDICTED BY IDOCK:   -4.70 KCAL/MOL
REMARK 923 INTER-LIGAND FREE ENERGY PREDICTED BY IDOCK:   -4.68 KCAL/MOL
REMARK 924 INTRA-LIGAND FREE ENERGY PREDICTED BY IDOCK:   -0.02 KCAL/MOL
REMARK 927      BINDING AFFINITY PREDICTED BY RF-SCORE:    0.00 PKD
ROOT
HETATM    1  N   UNL     1     -14.140   8.867  73.223  1.00  0.00    -1.248 NA 
HETATM    2  H2  UNL     1     -13.682   8.945  74.131  1.00  0.00     0.000 HD 
HETATM    3  H1  UNL     1     -15.074   9.274  73.245  1.00  0.00     0.000 HD 
HETATM    4  C   UNL     1     -13.311   9.434  72.169  1.00  0.00    -0.468 C  
ENDROOT
BRANCH   4   5
HETATM    5  C   UNL     1     -11.910   8.823  72.135  1.00  0.00    -0.436 C  
BRANCH   5   6
HETATM    6  C   UNL     1     -11.533   8.211  70.779  1.00  0.00    -0.272 C  
BRANCH   6   7
HETATM    7  C   UNL     1     -10.133   7.525  70.681  1.00  0.00    -0.187 C  
HETATM    8  O   UNL     1      -9.497   8.027  69.447  1.00  0.00    -0.159 OA 
HETATM    9  P   UNL     1      -9.118   8.145  72.072  1.00  0.00    -0.224 P  
HETATM   10  P   UNL     1     -10.039   5.698  70.624  1.00  0.00    -0.241 P  
HETATM   11  H   UNL     1      -8.646   7.609  69.388  1.00  0.00     0.000 HD 
HETATM   12  O   UNL     1      -9.959   4.152  70.576  1.00  0.00    -0.201 OA 
HETATM   13  O   UNL     1     -10.914   5.674  69.234  1.00  0.00    -0.304 OA 
HETATM   14  O   UNL     1     -11.306   5.616  71.670  1.00  0.00    -0.204 OA 
HETATM   15  O   UNL     1      -8.260   8.670  73.249  1.00  0.00    -0.411 OA 
HETATM   16  O   UNL     1      -7.843   7.356  71.379  1.00  0.00    -0.092 OA 
HETATM   17  O   UNL     1      -8.840   9.554  71.239  1.00  0.00    -0.235 OA 
ENDBRANCH   6   7
ENDBRANCH   5   6
ENDBRANCH   4   5
TORSDOF 3
ENDMDL
MODEL       74
REMARK 921   NORMALIZED FREE ENERGY PREDICTED BY IDOCK:   -3.70 KCAL/MOL
REMARK 922        TOTAL FREE ENERGY PREDICTED BY IDOCK:   -4.70 KCAL/MOL
REMARK 923 INTER-LIGAND FREE ENERGY PREDICTED BY IDOCK:   -4.36 KCAL/MOL
REMARK 924 INTRA-LIGAND FREE ENERGY PREDICTED BY IDOCK:   -0.33 KCAL/MOL
REMARK 927      BINDING AFFINITY PREDICTED BY RF-SCORE:    0.00 PKD
ROOT
HETATM    1  N   UNL     1      -7.100  16.230  68.517  1.00  0.00    -0.140 NA 
HETATM    2  H2  UNL     1      -7.048  15.312  68.076  1.00  0.00     0.000 HD 
HETATM    3  H1  UNL     1      -6.225  16.463  68.987  1.00  0.00     0.000 HD 
HETATM    4  C   UNL     1      -7.504  17.249  67.559  1.00  0.00    -0.170 C  
ENDROOT
BRANCH   4   5
HETATM    5  C   UNL     1      -8.816  16.901  66.855  1.00  0.00    -0.248 C  
BRANCH   5   6
HETATM    6  C   UNL     1      -8.827  15.502  66.222  1.00  0.00    -0.338 C  
BRANCH   6   7
HETATM    7  C   UNL     1     -10.054  14.591  66.549  1.00  0.00    -0.274 C  
HETATM    8  O   UNL     1      -9.516  13.270  66.924  1.00  0.00    -0.233 OA 
HETATM    9  P   UNL     1     -10.856  15.267  68.050  1.00  0.00    -0.309 P  
HETATM   10  P   UNL     1     -11.319  14.305  65.258  1.00  0.00    -0.372 P  
HETATM   11  H   UNL     1     -10.262  12.716  67.123  1.00  0.00     0.000 HD 
HETATM   12  O   UNL     1     -12.390  14.063  64.165  1.00  0.00    -0.620 OA 
HETATM   13  O   UNL     1     -10.195  13.617  64.278  1.00  0.00    -0.350 OA 
HETATM   14  O   UNL     1     -11.123  15.856  64.744  1.00  0.00    -0.455 OA 
HETATM   15  O   UNL     1     -11.533  15.839  69.318  1.00  0.00    -0.316 OA 
HETATM   16  O   UNL     1     -11.808  13.917  68.042  1.00  0.00    -0.341 OA 
HETATM   17  O   UNL     1      -9.681  14.567  68.990  1.00  0.00    -0.200 OA 
ENDBRANCH   6   7
ENDBRANCH   5   6
ENDBRANCH   4   5
TORSDOF 3
ENDMDL
MODEL       75
REMARK 921   NORMALIZED FREE ENERGY PREDICTED BY IDOCK:   -3.68 KCAL/MOL
REMARK 922        TOTAL FREE ENERGY PREDICTED BY IDOCK:   -4.67 KCAL/MOL
REMARK 923 INTER-LIGAND FREE ENERGY PREDICTED BY IDOCK:   -4.52 KCAL/MOL
REMARK 924 INTRA-LIGAND FREE ENERGY PREDICTED BY IDOCK:   -0.15 KCAL/MOL
REMARK 927      BINDING AFFINITY PREDICTED BY RF-SCORE:    0.00 PKD
ROOT
HETATM    1  N   UNL     1     -14.056   8.717  72.866  1.00  0.00    -1.064 NA 
HETATM    2  H2  UNL     1     -13.840   9.211  73.732  1.00  0.00     0.000 HD 
HETATM    3  H1  UNL     1     -15.002   8.334  72.887  1.00  0.00     0.000 HD 
HETATM    4  C   UNL     1     -13.828   9.568  71.707  1.00  0.00    -0.239 C  
ENDROOT
BRANCH   4   5
HETATM    5  C   UNL     1     -12.411  10.142  71.675  1.00  0.00    -0.471 C  
BRANCH   5   6
HETATM    6  C   UNL     1     -11.310   9.084  71.836  1.00  0.00    -0.438 C  
BRANCH   6   7
HETATM    7  C   UNL     1     -10.680   8.519  70.523  1.00  0.00    -0.221 C  
HETATM    8  O   UNL     1     -11.469   9.063  69.402  1.00  0.00    -0.421 OA 
HETATM    9  P   UNL     1      -9.001   9.233  70.367  1.00  0.00    -0.244 P  
HETATM   10  P   UNL     1     -10.595   6.706  70.285  1.00  0.00    -0.257 P  
HETATM   11  H   UNL     1     -11.085   8.720  68.604  1.00  0.00     0.000 HD 
HETATM   12  O   UNL     1     -10.524   5.172  70.084  1.00  0.00    -0.286 OA 
HETATM   13  O   UNL     1     -12.233   6.598  70.363  1.00  0.00    -0.332 OA 
HETATM   14  O   UNL     1     -10.298   6.524  71.893  1.00  0.00    -0.198 OA 
HETATM   15  O   UNL     1      -7.582   9.837  70.236  1.00  0.00    -0.153 OA 
HETATM   16  O   UNL     1      -8.946   8.549  68.865  1.00  0.00    -0.144 OA 
HETATM   17  O   UNL     1      -9.660  10.654  69.817  1.00  0.00    -0.052 OA 
ENDBRANCH   6   7
ENDBRANCH   5   6
ENDBRANCH   4   5
TORSDOF 3
ENDMDL
MODEL       76
REMARK 921   NORMALIZED FREE ENERGY PREDICTED BY IDOCK:   -3.68 KCAL/MOL
REMARK 922        TOTAL FREE ENERGY PREDICTED BY IDOCK:   -4.66 KCAL/MOL
REMARK 923 INTER-LIGAND FREE ENERGY PREDICTED BY IDOCK:   -4.41 KCAL/MOL
REMARK 924 INTRA-LIGAND FREE ENERGY PREDICTED BY IDOCK:   -0.25 KCAL/MOL
REMARK 927      BINDING AFFINITY PREDICTED BY RF-SCORE:    0.00 PKD
ROOT
HETATM    1  N   UNL     1      -5.810  15.235  68.439  1.00  0.00    -0.099 NA 
HETATM    2  H2  UNL     1      -5.058  15.912  68.309  1.00  0.00     0.000 HD 
HETATM    3  H1  UNL     1      -5.469  14.389  68.895  1.00  0.00     0.000 HD 
HETATM    4  C   UNL     1      -6.935  15.831  69.146  1.00  0.00    -0.174 C  
ENDROOT
BRANCH   4   5
HETATM    5  C   UNL     1      -7.447  17.099  68.463  1.00  0.00    -0.238 C  
BRANCH   5   6
HETATM    6  C   UNL     1      -8.965  17.109  68.231  1.00  0.00    -0.248 C  
BRANCH   6   7
HETATM    7  C   UNL     1      -9.449  17.169  66.747  1.00  0.00    -0.267 C  
HETATM    8  O   UNL     1      -8.267  16.914  65.901  1.00  0.00    -0.478 OA 
HETATM    9  P   UNL     1     -10.586  15.758  66.482  1.00  0.00    -0.248 P  
HETATM   10  P   UNL     1     -10.228  18.704  66.126  1.00  0.00    -0.288 P  
HETATM   11  H   UNL     1      -8.562  16.950  64.999  1.00  0.00     0.000 HD 
HETATM   12  O   UNL     1     -10.887  20.004  65.601  1.00  0.00    -0.387 OA 
HETATM   13  O   UNL     1      -8.855  19.551  66.435  1.00  0.00    -0.339 OA 
HETATM   14  O   UNL     1     -10.940  18.918  67.593  1.00  0.00    -0.392 OA 
HETATM   15  O   UNL     1     -11.547  14.566  66.259  1.00  0.00    -0.357 OA 
HETATM   16  O   UNL     1     -10.571  16.161  64.880  1.00  0.00    -0.622 OA 
HETATM   17  O   UNL     1      -9.284  14.737  66.350  1.00  0.00    -0.277 OA 
ENDBRANCH   6   7
ENDBRANCH   5   6
ENDBRANCH   4   5
TORSDOF 3
ENDMDL
MODEL       77
REMARK 921   NORMALIZED FREE ENERGY PREDICTED BY IDOCK:   -3.67 KCAL/MOL
REMARK 922        TOTAL FREE ENERGY PREDICTED BY IDOCK:   -4.66 KCAL/MOL
REMARK 923 INTER-LIGAND FREE ENERGY PREDICTED BY IDOCK:   -4.50 KCAL/MOL
REMARK 924 INTRA-LIGAND FREE ENERGY PREDICTED BY IDOCK:   -0.16 KCAL/MOL
REMARK 927      BINDING AFFINITY PREDICTED BY RF-SCORE:    0.00 PKD
ROOT
HETATM    1  N   UNL     1     -12.334  14.790  63.749  1.00  0.00    -1.082 NA 
HETATM    2  H2  UNL     1     -13.011  14.201  63.266  1.00  0.00     0.000 HD 
HETATM    3  H1  UNL     1     -12.463  15.773  63.509  1.00  0.00     0.000 HD 
HETATM    4  C   UNL     1     -12.370  14.561  65.187  1.00  0.00    -0.323 C  
ENDROOT
BRANCH   4   5
HETATM    5  C   UNL     1     -12.176  13.088  65.547  1.00  0.00    -0.521 C  
BRANCH   5   6
HETATM    6  C   UNL     1     -11.540  12.866  66.927  1.00  0.00    -0.425 C  
BRANCH   6   7
HETATM    7  C   UNL     1     -10.005  12.579  66.957  1.00  0.00    -0.214 C  
HETATM    8  O   UNL     1      -9.536  12.619  65.559  1.00  0.00    -0.455 OA 
HETATM    9  P   UNL     1      -9.200  13.984  67.811  1.00  0.00    -0.215 P  
HETATM   10  P   UNL     1      -9.408  11.005  67.676  1.00  0.00    -0.161 P  
HETATM   11  H   UNL     1      -8.602  12.444  65.578  1.00  0.00     0.000 HD 
HETATM   12  O   UNL     1      -8.902   9.674  68.284  1.00  0.00    -0.120 OA 
HETATM   13  O   UNL     1     -10.244  10.149  66.551  1.00  0.00    -0.222 OA 
HETATM   14  O   UNL     1     -10.600  11.086  68.806  1.00  0.00    -0.182 OA 
HETATM   15  O   UNL     1      -8.519  15.172  68.533  1.00  0.00    -0.147 OA 
HETATM   16  O   UNL     1      -7.757  13.312  67.369  1.00  0.00    -0.161 OA 
HETATM   17  O   UNL     1      -9.325  14.894  66.429  1.00  0.00    -0.269 OA 
ENDBRANCH   6   7
ENDBRANCH   5   6
ENDBRANCH   4   5
TORSDOF 3
ENDMDL
MODEL       78
REMARK 921   NORMALIZED FREE ENERGY PREDICTED BY IDOCK:   -3.67 KCAL/MOL
REMARK 922        TOTAL FREE ENERGY PREDICTED BY IDOCK:   -4.66 KCAL/MOL
REMARK 923 INTER-LIGAND FREE ENERGY PREDICTED BY IDOCK:   -4.10 KCAL/MOL
REMARK 924 INTRA-LIGAND FREE ENERGY PREDICTED BY IDOCK:   -0.55 KCAL/MOL
REMARK 927      BINDING AFFINITY PREDICTED BY RF-SCORE:    0.00 PKD
ROOT
HETATM    1  N   UNL     1      -6.314  13.554  67.352  1.00  0.00    -0.404 NA 
HETATM    2  H2  UNL     1      -6.774  13.359  66.463  1.00  0.00     0.000 HD 
HETATM    3  H1  UNL     1      -5.301  13.597  67.240  1.00  0.00     0.000 HD 
HETATM    4  C   UNL     1      -6.856  14.756  67.969  1.00  0.00    -0.140 C  
ENDROOT
BRANCH   4   5
HETATM    5  C   UNL     1      -8.374  14.692  68.137  1.00  0.00    -0.144 C  
BRANCH   5   6
HETATM    6  C   UNL     1      -9.083  13.865  67.055  1.00  0.00    -0.259 C  
BRANCH   6   7
HETATM    7  C   UNL     1      -9.932  12.648  67.544  1.00  0.00    -0.205 C  
HETATM    8  O   UNL     1     -10.456  13.001  68.877  1.00  0.00    -0.377 OA 
HETATM    9  P   UNL     1     -11.384  12.512  66.437  1.00  0.00    -0.367 P  
HETATM   10  P   UNL     1      -9.131  11.010  67.702  1.00  0.00    -0.149 P  
HETATM   11  H   UNL     1     -10.973  12.260  69.173  1.00  0.00     0.000 HD 
HETATM   12  O   UNL     1      -8.453   9.624  67.836  1.00  0.00    -0.121 OA 
HETATM   13  O   UNL     1      -8.081  11.606  68.816  1.00  0.00    -0.140 OA 
HETATM   14  O   UNL     1      -8.227  11.339  66.368  1.00  0.00    -0.165 OA 
HETATM   15  O   UNL     1     -12.612  12.397  65.502  1.00  0.00    -0.616 OA 
HETATM   16  O   UNL     1     -11.953  11.356  67.472  1.00  0.00    -0.626 OA 
HETATM   17  O   UNL     1     -12.118  13.758  67.252  1.00  0.00    -0.389 OA 
ENDBRANCH   6   7
ENDBRANCH   5   6
ENDBRANCH   4   5
TORSDOF 3
ENDMDL
MODEL       79
REMARK 921   NORMALIZED FREE ENERGY PREDICTED BY IDOCK:   -3.67 KCAL/MOL
REMARK 922        TOTAL FREE ENERGY PREDICTED BY IDOCK:   -4.66 KCAL/MOL
REMARK 923 INTER-LIGAND FREE ENERGY PREDICTED BY IDOCK:   -4.51 KCAL/MOL
REMARK 924 INTRA-LIGAND FREE ENERGY PREDICTED BY IDOCK:   -0.15 KCAL/MOL
REMARK 927      BINDING AFFINITY PREDICTED BY RF-SCORE:    0.00 PKD
ROOT
HETATM    1  N   UNL     1     -13.419   9.798  72.500  1.00  0.00    -0.633 NA 
HETATM    2  H2  UNL     1     -12.640   9.831  73.158  1.00  0.00     0.000 HD 
HETATM    3  H1  UNL     1     -14.313   9.878  72.983  1.00  0.00     0.000 HD 
HETATM    4  C   UNL     1     -13.263  10.796  71.452  1.00  0.00    -0.287 C  
ENDROOT
BRANCH   4   5
HETATM    5  C   UNL     1     -11.922  10.677  70.727  1.00  0.00    -0.477 C  
BRANCH   5   6
HETATM    6  C   UNL     1     -12.034  10.767  69.198  1.00  0.00    -0.302 C  
BRANCH   6   7
HETATM    7  C   UNL     1     -10.701  10.956  68.405  1.00  0.00    -0.203 C  
HETATM    8  O   UNL     1      -9.618  11.036  69.403  1.00  0.00    -0.417 OA 
HETATM    9  P   UNL     1     -10.410   9.422  67.449  1.00  0.00    -0.262 P  
HETATM   10  P   UNL     1     -10.519  12.405  67.302  1.00  0.00    -0.227 P  
HETATM   11  H   UNL     1      -8.808  11.150  68.920  1.00  0.00     0.000 HD 
HETATM   12  O   UNL     1     -10.364  13.632  66.369  1.00  0.00    -0.276 OA 
HETATM   13  O   UNL     1     -10.709  13.425  68.576  1.00  0.00    -0.250 OA 
HETATM   14  O   UNL     1     -12.108  12.278  66.897  1.00  0.00    -0.583 OA 
HETATM   15  O   UNL     1     -10.163   8.125  66.641  1.00  0.00    -0.292 OA 
HETATM   16  O   UNL     1      -8.930  10.048  67.064  1.00  0.00    -0.137 OA 
HETATM   17  O   UNL     1      -9.857   8.673  68.824  1.00  0.00    -0.164 OA 
ENDBRANCH   6   7
ENDBRANCH   5   6
ENDBRANCH   4   5
TORSDOF 3
ENDMDL
MODEL       80
REMARK 921   NORMALIZED FREE ENERGY PREDICTED BY IDOCK:   -3.67 KCAL/MOL
REMARK 922        TOTAL FREE ENERGY PREDICTED BY IDOCK:   -4.65 KCAL/MOL
REMARK 923 INTER-LIGAND FREE ENERGY PREDICTED BY IDOCK:   -4.41 KCAL/MOL
REMARK 924 INTRA-LIGAND FREE ENERGY PREDICTED BY IDOCK:   -0.25 KCAL/MOL
REMARK 927      BINDING AFFINITY PREDICTED BY RF-SCORE:    0.00 PKD
ROOT
HETATM    1  N   UNL     1     -10.549  18.012  67.246  1.00  0.00    -0.373 NA 
HETATM    2  H2  UNL     1     -10.444  17.674  68.202  1.00  0.00     0.000 HD 
HETATM    3  H1  UNL     1     -10.008  18.864  67.095  1.00  0.00     0.000 HD 
HETATM    4  C   UNL     1     -10.225  16.970  66.283  1.00  0.00    -0.329 C  
ENDROOT
BRANCH   4   5
HETATM    5  C   UNL     1     -11.036  15.694  66.509  1.00  0.00    -0.206 C  
BRANCH   5   6
HETATM    6  C   UNL     1     -10.192  14.496  66.967  1.00  0.00    -0.262 C  
BRANCH   6   7
HETATM    7  C   UNL     1     -10.583  13.838  68.329  1.00  0.00    -0.255 C  
HETATM    8  O   UNL     1      -9.342  13.722  69.118  1.00  0.00    -0.386 OA 
HETATM    9  P   UNL     1     -11.654  15.023  69.223  1.00  0.00    -0.351 P  
HETATM   10  P   UNL     1     -11.370  12.187  68.326  1.00  0.00    -0.341 P  
HETATM   11  H   UNL     1      -9.580  13.322  69.947  1.00  0.00     0.000 HD 
HETATM   12  O   UNL     1     -12.037  10.788  68.324  1.00  0.00    -0.496 OA 
HETATM   13  O   UNL     1     -10.048  11.533  67.603  1.00  0.00    -0.181 OA 
HETATM   14  O   UNL     1     -12.180  12.592  66.953  1.00  0.00    -0.511 OA 
HETATM   15  O   UNL     1     -12.559  16.025  69.979  1.00  0.00    -0.226 OA 
HETATM   16  O   UNL     1     -11.551  14.003  70.518  1.00  0.00    -0.230 OA 
HETATM   17  O   UNL     1     -10.314  15.897  69.666  1.00  0.00    -0.261 OA 
ENDBRANCH   6   7
ENDBRANCH   5   6
ENDBRANCH   4   5
TORSDOF 3
ENDMDL
MODEL       81
REMARK 921   NORMALIZED FREE ENERGY PREDICTED BY IDOCK:   -3.67 KCAL/MOL
REMARK 922        TOTAL FREE ENERGY PREDICTED BY IDOCK:   -4.65 KCAL/MOL
REMARK 923 INTER-LIGAND FREE ENERGY PREDICTED BY IDOCK:   -4.19 KCAL/MOL
REMARK 924 INTRA-LIGAND FREE ENERGY PREDICTED BY IDOCK:   -0.46 KCAL/MOL
REMARK 927      BINDING AFFINITY PREDICTED BY RF-SCORE:    0.00 PKD
ROOT
HETATM    1  N   UNL     1      -9.757   4.891  71.859  1.00  0.00    -0.157 NA 
HETATM    2  H2  UNL     1      -9.342   5.717  71.430  1.00  0.00     0.000 HD 
HETATM    3  H1  UNL     1      -9.038   4.245  72.185  1.00  0.00     0.000 HD 
HETATM    4  C   UNL     1     -10.690   5.261  72.913  1.00  0.00    -0.253 C  
ENDROOT
BRANCH   4   5
HETATM    5  C   UNL     1     -11.769   6.228  72.425  1.00  0.00    -0.301 C  
BRANCH   5   6
HETATM    6  C   UNL     1     -11.379   7.707  72.555  1.00  0.00    -0.409 C  
BRANCH   6   7
HETATM    7  C   UNL     1     -11.369   8.551  71.240  1.00  0.00    -0.271 C  
HETATM    8  O   UNL     1     -12.116   7.777  70.231  1.00  0.00    -0.473 OA 
HETATM    9  P   UNL     1     -12.346  10.068  71.554  1.00  0.00    -0.382 P  
HETATM   10  P   UNL     1      -9.765   9.005  70.486  1.00  0.00    -0.255 P  
HETATM   11  H   UNL     1     -12.110   8.291  69.432  1.00  0.00     0.000 HD 
HETATM   12  O   UNL     1      -8.407   9.388  69.847  1.00  0.00    -0.130 OA 
HETATM   13  O   UNL     1      -9.385   7.419  70.286  1.00  0.00    -0.161 OA 
HETATM   14  O   UNL     1      -9.125   9.185  71.990  1.00  0.00    -0.337 OA 
HETATM   15  O   UNL     1     -13.172  11.349  71.818  1.00  0.00    -0.458 OA 
HETATM   16  O   UNL     1     -12.198  10.390  69.940  1.00  0.00    -0.238 OA 
HETATM   17  O   UNL     1     -13.748   9.200  71.364  1.00  0.00    -0.365 OA 
ENDBRANCH   6   7
ENDBRANCH   5   6
ENDBRANCH   4   5
TORSDOF 3
ENDMDL
MODEL       82
REMARK 921   NORMALIZED FREE ENERGY PREDICTED BY IDOCK:   -3.64 KCAL/MOL
REMARK 922        TOTAL FREE ENERGY PREDICTED BY IDOCK:   -4.62 KCAL/MOL
REMARK 923 INTER-LIGAND FREE ENERGY PREDICTED BY IDOCK:   -4.30 KCAL/MOL
REMARK 924 INTRA-LIGAND FREE ENERGY PREDICTED BY IDOCK:   -0.32 KCAL/MOL
REMARK 927      BINDING AFFINITY PREDICTED BY RF-SCORE:    0.00 PKD
ROOT
HETATM    1  N   UNL     1      -6.525  19.856  64.628  1.00  0.00    -0.317 NA 
HETATM    2  H2  UNL     1      -6.310  20.588  65.304  1.00  0.00     0.000 HD 
HETATM    3  H1  UNL     1      -6.162  20.090  63.704  1.00  0.00     0.000 HD 
HETATM    4  C   UNL     1      -6.060  18.557  65.094  1.00  0.00    -0.225 C  
ENDROOT
BRANCH   4   5
HETATM    5  C   UNL     1      -6.604  18.206  66.479  1.00  0.00    -0.239 C  
BRANCH   5   6
HETATM    6  C   UNL     1      -7.908  17.397  66.445  1.00  0.00    -0.337 C  
BRANCH   6   7
HETATM    7  C   UNL     1      -9.092  17.932  67.313  1.00  0.00    -0.251 C  
HETATM    8  O   UNL     1      -8.513  18.879  68.286  1.00  0.00    -0.306 OA 
HETATM    9  P   UNL     1     -10.175  18.918  66.215  1.00  0.00    -0.414 P  
HETATM   10  P   UNL     1     -10.107  16.744  68.265  1.00  0.00    -0.311 P  
HETATM   11  H   UNL     1      -9.233  19.205  68.813  1.00  0.00     0.000 HD 
HETATM   12  O   UNL     1     -10.966  15.738  69.070  1.00  0.00    -0.229 OA 
HETATM   13  O   UNL     1      -8.788  16.269  69.121  1.00  0.00    -0.249 OA 
HETATM   14  O   UNL     1      -9.960  15.659  67.037  1.00  0.00    -0.234 OA 
HETATM   15  O   UNL     1     -11.091  19.752  65.287  1.00  0.00    -0.395 OA 
HETATM   16  O   UNL     1     -10.999  19.364  67.576  1.00  0.00    -0.464 OA 
HETATM   17  O   UNL     1      -9.111  20.189  66.311  1.00  0.00    -0.328 OA 
ENDBRANCH   6   7
ENDBRANCH   5   6
ENDBRANCH   4   5
TORSDOF 3
ENDMDL
MODEL       83
REMARK 921   NORMALIZED FREE ENERGY PREDICTED BY IDOCK:   -3.60 KCAL/MOL
REMARK 922        TOTAL FREE ENERGY PREDICTED BY IDOCK:   -4.57 KCAL/MOL
REMARK 923 INTER-LIGAND FREE ENERGY PREDICTED BY IDOCK:   -4.07 KCAL/MOL
REMARK 924 INTRA-LIGAND FREE ENERGY PREDICTED BY IDOCK:   -0.50 KCAL/MOL
REMARK 927      BINDING AFFINITY PREDICTED BY RF-SCORE:    0.00 PKD
ROOT
HETATM    1  N   UNL     1      -6.998  13.592  69.913  1.00  0.00    -0.338 NA 
HETATM    2  H2  UNL     1      -7.384  12.920  70.576  1.00  0.00     0.000 HD 
HETATM    3  H1  UNL     1      -6.178  14.061  70.299  1.00  0.00     0.000 HD 
HETATM    4  C   UNL     1      -6.725  12.964  68.629  1.00  0.00    -0.095 C  
ENDROOT
BRANCH   4   5
HETATM    5  C   UNL     1      -7.953  12.261  68.050  1.00  0.00    -0.150 C  
BRANCH   5   6
HETATM    6  C   UNL     1      -8.745  13.119  67.053  1.00  0.00    -0.193 C  
BRANCH   6   7
HETATM    7  C   UNL     1     -10.201  13.511  67.464  1.00  0.00    -0.234 C  
HETATM    8  O   UNL     1     -10.465  12.867  68.765  1.00  0.00    -0.330 OA 
HETATM    9  P   UNL     1     -10.218  15.316  67.769  1.00  0.00    -0.241 P  
HETATM   10  P   UNL     1     -11.589  13.067  66.357  1.00  0.00    -0.401 P  
HETATM   11  H   UNL     1     -11.350  13.106  69.014  1.00  0.00     0.000 HD 
HETATM   12  O   UNL     1     -12.763  12.690  65.420  1.00  0.00    -0.635 OA 
HETATM   13  O   UNL     1     -11.236  11.471  66.519  1.00  0.00    -0.310 OA 
HETATM   14  O   UNL     1     -10.626  13.362  65.056  1.00  0.00    -0.319 OA 
HETATM   15  O   UNL     1     -10.233  16.842  68.028  1.00  0.00    -0.282 OA 
HETATM   16  O   UNL     1     -11.758  15.117  68.333  1.00  0.00    -0.330 OA 
HETATM   17  O   UNL     1      -9.525  15.069  69.257  1.00  0.00    -0.211 OA 
ENDBRANCH   6   7
ENDBRANCH   5   6
ENDBRANCH   4   5
TORSDOF 3
ENDMDL
MODEL       84
REMARK 921   NORMALIZED FREE ENERGY PREDICTED BY IDOCK:   -3.57 KCAL/MOL
REMARK 922        TOTAL FREE ENERGY PREDICTED BY IDOCK:   -4.54 KCAL/MOL
REMARK 923 INTER-LIGAND FREE ENERGY PREDICTED BY IDOCK:   -4.33 KCAL/MOL
REMARK 924 INTRA-LIGAND FREE ENERGY PREDICTED BY IDOCK:   -0.22 KCAL/MOL
REMARK 927      BINDING AFFINITY PREDICTED BY RF-SCORE:    0.00 PKD
ROOT
HETATM    1  N   UNL     1     -10.130  13.374  64.086  1.00  0.00    -0.779 NA 
HETATM    2  H2  UNL     1      -9.418  13.901  64.592  1.00  0.00     0.000 HD 
HETATM    3  H1  UNL     1      -9.829  13.169  63.133  1.00  0.00     0.000 HD 
HETATM    4  C   UNL     1     -10.512  12.174  64.817  1.00  0.00    -0.294 C  
ENDROOT
BRANCH   4   5
HETATM    5  C   UNL     1     -10.964  12.481  66.245  1.00  0.00    -0.311 C  
BRANCH   5   6
HETATM    6  C   UNL     1     -10.703  13.929  66.681  1.00  0.00    -0.281 C  
BRANCH   6   7
HETATM    7  C   UNL     1      -9.900  14.133  68.005  1.00  0.00    -0.223 C  
HETATM    8  O   UNL     1      -9.776  12.806  68.637  1.00  0.00    -0.375 OA 
HETATM    9  P   UNL     1      -8.204  14.647  67.546  1.00  0.00    -0.213 P  
HETATM   10  P   UNL     1     -10.558  15.271  69.279  1.00  0.00    -0.285 P  
HETATM   11  H   UNL     1      -9.287  12.930  69.443  1.00  0.00     0.000 HD 
HETATM   12  O   UNL     1     -11.115  16.233  70.357  1.00  0.00    -0.359 OA 
HETATM   13  O   UNL     1     -11.912  14.353  69.431  1.00  0.00    -0.301 OA 
HETATM   14  O   UNL     1     -11.110  16.261  68.088  1.00  0.00    -0.346 OA 
HETATM   15  O   UNL     1      -6.770  15.081  67.158  1.00  0.00    -0.273 OA 
HETATM   16  O   UNL     1      -7.818  14.488  69.145  1.00  0.00    -0.134 OA 
HETATM   17  O   UNL     1      -7.827  13.071  67.186  1.00  0.00    -0.151 OA 
ENDBRANCH   6   7
ENDBRANCH   5   6
ENDBRANCH   4   5
TORSDOF 3
ENDMDL
MODEL       85
REMARK 921   NORMALIZED FREE ENERGY PREDICTED BY IDOCK:   -3.55 KCAL/MOL
REMARK 922        TOTAL FREE ENERGY PREDICTED BY IDOCK:   -4.51 KCAL/MOL
REMARK 923 INTER-LIGAND FREE ENERGY PREDICTED BY IDOCK:   -4.26 KCAL/MOL
REMARK 924 INTRA-LIGAND FREE ENERGY PREDICTED BY IDOCK:   -0.25 KCAL/MOL
REMARK 927      BINDING AFFINITY PREDICTED BY RF-SCORE:    0.00 PKD
ROOT
HETATM    1  N   UNL     1     -12.274  10.827  68.370  1.00  0.00    -0.809 NA 
HETATM    2  H2  UNL     1     -13.215  10.469  68.530  1.00  0.00     0.000 HD 
HETATM    3  H1  UNL     1     -12.260  11.498  67.601  1.00  0.00     0.000 HD 
HETATM    4  C   UNL     1     -11.705  11.373  69.593  1.00  0.00    -0.345 C  
ENDROOT
BRANCH   4   5
HETATM    5  C   UNL     1     -11.725  10.368  70.745  1.00  0.00    -0.464 C  
BRANCH   5   6
HETATM    6  C   UNL     1     -10.416   9.581  70.903  1.00  0.00    -0.382 C  
BRANCH   6   7
HETATM    7  C   UNL     1     -10.540   8.031  71.058  1.00  0.00    -0.213 C  
HETATM    8  O   UNL     1      -9.743   7.655  72.241  1.00  0.00    -0.160 OA 
HETATM    9  P   UNL     1     -12.284   7.659  71.472  1.00  0.00    -0.341 P  
HETATM   10  P   UNL     1      -9.997   6.953  69.683  1.00  0.00    -0.177 P  
HETATM   11  H   UNL     1      -9.819   6.713  72.335  1.00  0.00     0.000 HD 
HETATM   12  O   UNL     1      -9.536   6.040  68.519  1.00  0.00    -0.119 OA 
HETATM   13  O   UNL     1      -8.465   7.534  69.804  1.00  0.00    -0.132 OA 
HETATM   14  O   UNL     1     -10.558   8.065  68.609  1.00  0.00    -0.191 OA 
HETATM   15  O   UNL     1     -13.758   7.344  71.823  1.00  0.00    -0.359 OA 
HETATM   16  O   UNL     1     -11.799   6.100  71.723  1.00  0.00    -0.299 OA 
HETATM   17  O   UNL     1     -12.005   8.114  73.044  1.00  0.00    -0.269 OA 
ENDBRANCH   6   7
ENDBRANCH   5   6
ENDBRANCH   4   5
TORSDOF 3
ENDMDL
MODEL       86
REMARK 921   NORMALIZED FREE ENERGY PREDICTED BY IDOCK:   -3.53 KCAL/MOL
REMARK 922        TOTAL FREE ENERGY PREDICTED BY IDOCK:   -4.49 KCAL/MOL
REMARK 923 INTER-LIGAND FREE ENERGY PREDICTED BY IDOCK:   -4.45 KCAL/MOL
REMARK 924 INTRA-LIGAND FREE ENERGY PREDICTED BY IDOCK:   -0.05 KCAL/MOL
REMARK 927      BINDING AFFINITY PREDICTED BY RF-SCORE:    0.00 PKD
ROOT
HETATM    1  N   UNL     1      -7.494  11.765  66.388  1.00  0.00    -0.373 NA 
HETATM    2  H2  UNL     1      -7.424  12.706  66.001  1.00  0.00     0.000 HD 
HETATM    3  H1  UNL     1      -6.687  11.199  66.128  1.00  0.00     0.000 HD 
HETATM    4  C   UNL     1      -7.703  11.805  67.828  1.00  0.00    -0.133 C  
ENDROOT
BRANCH   4   5
HETATM    5  C   UNL     1      -8.913  12.654  68.220  1.00  0.00    -0.176 C  
BRANCH   5   6
HETATM    6  C   UNL     1      -9.867  12.947  67.053  1.00  0.00    -0.233 C  
BRANCH   6   7
HETATM    7  C   UNL     1     -10.772  14.214  67.186  1.00  0.00    -0.280 C  
HETATM    8  O   UNL     1     -12.162  13.770  66.972  1.00  0.00    -0.401 OA 
HETATM    9  P   UNL     1     -10.672  14.781  68.923  1.00  0.00    -0.265 P  
HETATM   10  P   UNL     1     -10.487  15.632  66.064  1.00  0.00    -0.354 P  
HETATM   11  H   UNL     1     -12.712  14.541  67.053  1.00  0.00     0.000 HD 
HETATM   12  O   UNL     1     -10.246  16.833  65.115  1.00  0.00    -0.599 OA 
HETATM   13  O   UNL     1     -10.810  14.692  64.757  1.00  0.00    -0.399 OA 
HETATM   14  O   UNL     1      -8.869  15.344  66.135  1.00  0.00    -0.307 OA 
HETATM   15  O   UNL     1     -10.588  15.261  70.393  1.00  0.00    -0.276 OA 
HETATM   16  O   UNL     1     -11.871  15.855  68.549  1.00  0.00    -0.366 OA 
HETATM   17  O   UNL     1     -11.733  13.586  69.372  1.00  0.00    -0.286 OA 
ENDBRANCH   6   7
ENDBRANCH   5   6
ENDBRANCH   4   5
TORSDOF 3
ENDMDL
MODEL       87
REMARK 921   NORMALIZED FREE ENERGY PREDICTED BY IDOCK:   -3.52 KCAL/MOL
REMARK 922        TOTAL FREE ENERGY PREDICTED BY IDOCK:   -4.48 KCAL/MOL
REMARK 923 INTER-LIGAND FREE ENERGY PREDICTED BY IDOCK:   -4.16 KCAL/MOL
REMARK 924 INTRA-LIGAND FREE ENERGY PREDICTED BY IDOCK:   -0.32 KCAL/MOL
REMARK 927      BINDING AFFINITY PREDICTED BY RF-SCORE:    0.00 PKD
ROOT
HETATM    1  N   UNL     1     -11.221   6.351  67.737  1.00  0.00    -0.601 NA 
HETATM    2  H2  UNL     1     -12.170   6.567  67.432  1.00  0.00     0.000 HD 
HETATM    3  H1  UNL     1     -11.060   5.344  67.754  1.00  0.00     0.000 HD 
HETATM    4  C   UNL     1     -10.238   7.057  66.927  1.00  0.00    -0.248 C  
ENDROOT
BRANCH   4   5
HETATM    5  C   UNL     1     -10.479   8.566  66.901  1.00  0.00    -0.345 C  
BRANCH   5   6
HETATM    6  C   UNL     1      -9.725   9.333  67.996  1.00  0.00    -0.172 C  
BRANCH   6   7
HETATM    7  C   UNL     1     -10.511   9.634  69.313  1.00  0.00    -0.217 C  
HETATM    8  O   UNL     1     -11.597   8.640  69.398  1.00  0.00    -0.218 OA 
HETATM    9  P   UNL     1      -9.385   9.290  70.715  1.00  0.00    -0.172 P  
HETATM   10  P   UNL     1     -11.276  11.281  69.537  1.00  0.00    -0.235 P  
HETATM   11  H   UNL     1     -12.074   8.823  70.199  1.00  0.00     0.000 HD 
HETATM   12  O   UNL     1     -11.924  12.675  69.726  1.00  0.00    -0.319 OA 
HETATM   13  O   UNL     1     -12.220  11.047  68.213  1.00  0.00    -0.582 OA 
HETATM   14  O   UNL     1      -9.996  11.965  68.762  1.00  0.00    -0.184 OA 
HETATM   15  O   UNL     1      -8.433   8.998  71.900  1.00  0.00    -0.363 OA 
HETATM   16  O   UNL     1     -10.688   9.522  71.704  1.00  0.00    -0.320 OA 
HETATM   17  O   UNL     1      -9.669   7.663  70.540  1.00  0.00    -0.181 OA 
ENDBRANCH   6   7
ENDBRANCH   5   6
ENDBRANCH   4   5
TORSDOF 3
ENDMDL
MODEL       88
REMARK 921   NORMALIZED FREE ENERGY PREDICTED BY IDOCK:   -3.51 KCAL/MOL
REMARK 922        TOTAL FREE ENERGY PREDICTED BY IDOCK:   -4.47 KCAL/MOL
REMARK 923 INTER-LIGAND FREE ENERGY PREDICTED BY IDOCK:   -4.29 KCAL/MOL
REMARK 924 INTRA-LIGAND FREE ENERGY PREDICTED BY IDOCK:   -0.18 KCAL/MOL
REMARK 927      BINDING AFFINITY PREDICTED BY RF-SCORE:    0.00 PKD
ROOT
HETATM    1  N   UNL     1     -11.217  14.806  71.281  1.00  0.00    -0.546 NA 
HETATM    2  H2  UNL     1     -10.434  15.459  71.287  1.00  0.00     0.000 HD 
HETATM    3  H1  UNL     1     -11.470  14.525  72.228  1.00  0.00     0.000 HD 
HETATM    4  C   UNL     1     -12.348  15.349  70.543  1.00  0.00    -0.408 C  
ENDROOT
BRANCH   4   5
HETATM    5  C   UNL     1     -11.970  15.770  69.122  1.00  0.00    -0.312 C  
BRANCH   5   6
HETATM    6  C   UNL     1     -10.568  16.384  69.010  1.00  0.00    -0.308 C  
BRANCH   6   7
HETATM    7  C   UNL     1      -9.775  16.096  67.695  1.00  0.00    -0.233 C  
HETATM    8  O   UNL     1     -10.773  15.758  66.662  1.00  0.00    -0.314 OA 
HETATM    9  P   UNL     1      -8.997  17.666  67.167  1.00  0.00    -0.256 P  
HETATM   10  P   UNL     1      -8.523  14.761  67.684  1.00  0.00    -0.205 P  
HETATM   11  H   UNL     1     -10.291  15.583  65.862  1.00  0.00     0.000 HD 
HETATM   12  O   UNL     1      -7.464  13.631  67.675  1.00  0.00    -0.153 OA 
HETATM   13  O   UNL     1      -9.675  13.648  68.050  1.00  0.00    -0.212 OA 
HETATM   14  O   UNL     1      -8.114  15.153  69.228  1.00  0.00    -0.199 OA 
HETATM   15  O   UNL     1      -8.339  18.995  66.721  1.00  0.00    -0.268 OA 
HETATM   16  O   UNL     1      -8.565  16.883  65.778  1.00  0.00    -0.505 OA 
HETATM   17  O   UNL     1     -10.452  18.179  66.555  1.00  0.00    -0.367 OA 
ENDBRANCH   6   7
ENDBRANCH   5   6
ENDBRANCH   4   5
TORSDOF 3
ENDMDL
MODEL       89
REMARK 921   NORMALIZED FREE ENERGY PREDICTED BY IDOCK:   -3.50 KCAL/MOL
REMARK 922        TOTAL FREE ENERGY PREDICTED BY IDOCK:   -4.46 KCAL/MOL
REMARK 923 INTER-LIGAND FREE ENERGY PREDICTED BY IDOCK:   -4.44 KCAL/MOL
REMARK 924 INTRA-LIGAND FREE ENERGY PREDICTED BY IDOCK:   -0.02 KCAL/MOL
REMARK 927      BINDING AFFINITY PREDICTED BY RF-SCORE:    0.00 PKD
ROOT
HETATM    1  N   UNL     1     -14.132   8.844  73.209  1.00  0.00    -1.248 NA 
HETATM    2  H2  UNL     1     -13.623   8.953  74.087  1.00  0.00     0.000 HD 
HETATM    3  H1  UNL     1     -15.101   9.148  73.305  1.00  0.00     0.000 HD 
HETATM    4  C   UNL     1     -13.443   9.518  72.117  1.00  0.00    -0.456 C  
ENDROOT
BRANCH   4   5
HETATM    5  C   UNL     1     -11.991   9.062  71.974  1.00  0.00    -0.433 C  
BRANCH   5   6
HETATM    6  C   UNL     1     -11.836   7.555  71.724  1.00  0.00    -0.327 C  
BRANCH   6   7
HETATM    7  C   UNL     1     -10.382   7.020  71.525  1.00  0.00    -0.203 C  
HETATM    8  O   UNL     1     -10.401   6.168  70.321  1.00  0.00    -0.191 OA 
HETATM    9  P   UNL     1      -9.319   8.456  71.124  1.00  0.00    -0.214 P  
HETATM   10  P   UNL     1      -9.604   6.040  72.860  1.00  0.00    -0.154 P  
HETATM   11  H   UNL     1      -9.516   5.843  70.200  1.00  0.00     0.000 HD 
HETATM   12  O   UNL     1      -8.945   5.210  73.990  1.00  0.00    -0.116 OA 
HETATM   13  O   UNL     1     -10.778   4.898  72.736  1.00  0.00    -0.209 OA 
HETATM   14  O   UNL     1     -10.354   6.990  73.974  1.00  0.00    -0.364 OA 
HETATM   15  O   UNL     1      -8.420   9.669  70.784  1.00  0.00    -0.245 OA 
HETATM   16  O   UNL     1      -8.114   7.367  70.821  1.00  0.00    -0.107 OA 
HETATM   17  O   UNL     1      -9.881   8.433  69.562  1.00  0.00    -0.176 OA 
ENDBRANCH   6   7
ENDBRANCH   5   6
ENDBRANCH   4   5
TORSDOF 3
ENDMDL
MODEL       90
REMARK 921   NORMALIZED FREE ENERGY PREDICTED BY IDOCK:   -3.49 KCAL/MOL
REMARK 922        TOTAL FREE ENERGY PREDICTED BY IDOCK:   -4.45 KCAL/MOL
REMARK 923 INTER-LIGAND FREE ENERGY PREDICTED BY IDOCK:   -4.22 KCAL/MOL
REMARK 924 INTRA-LIGAND FREE ENERGY PREDICTED BY IDOCK:   -0.23 KCAL/MOL
REMARK 927      BINDING AFFINITY PREDICTED BY RF-SCORE:    0.00 PKD
ROOT
HETATM    1  N   UNL     1     -12.111   7.839  70.775  1.00  0.00    -0.485 NA 
HETATM    2  H2  UNL     1     -12.931   8.138  70.248  1.00  0.00     0.000 HD 
HETATM    3  H1  UNL     1     -12.036   6.822  70.794  1.00  0.00     0.000 HD 
HETATM    4  C   UNL     1     -10.903   8.475  70.269  1.00  0.00    -0.238 C  
ENDROOT
BRANCH   4   5
HETATM    5  C   UNL     1     -11.014  10.000  70.241  1.00  0.00    -0.377 C  
BRANCH   5   6
HETATM    6  C   UNL     1     -10.052  10.674  69.253  1.00  0.00    -0.227 C  
BRANCH   6   7
HETATM    7  C   UNL     1     -10.654  11.140  67.889  1.00  0.00    -0.198 C  
HETATM    8  O   UNL     1     -12.106  10.888  67.956  1.00  0.00    -0.780 OA 
HETATM    9  P   UNL     1     -10.451  12.957  67.791  1.00  0.00    -0.229 P  
HETATM   10  P   UNL     1     -10.051  10.374  66.341  1.00  0.00    -0.213 P  
HETATM   11  H   UNL     1     -12.473  11.172  67.127  1.00  0.00     0.000 HD 
HETATM   12  O   UNL     1      -9.540   9.726  65.030  1.00  0.00    -0.276 OA 
HETATM   13  O   UNL     1     -10.560   8.897  66.847  1.00  0.00    -0.263 OA 
HETATM   14  O   UNL     1      -8.538  10.305  66.983  1.00  0.00    -0.129 OA 
HETATM   15  O   UNL     1     -10.278  14.492  67.709  1.00  0.00    -0.224 OA 
HETATM   16  O   UNL     1     -11.377  12.898  66.425  1.00  0.00    -0.293 OA 
HETATM   17  O   UNL     1     -11.754  13.155  68.799  1.00  0.00    -0.284 OA 
ENDBRANCH   6   7
ENDBRANCH   5   6
ENDBRANCH   4   5
TORSDOF 3
ENDMDL
MODEL       91
REMARK 921   NORMALIZED FREE ENERGY PREDICTED BY IDOCK:   -3.49 KCAL/MOL
REMARK 922        TOTAL FREE ENERGY PREDICTED BY IDOCK:   -4.44 KCAL/MOL
REMARK 923 INTER-LIGAND FREE ENERGY PREDICTED BY IDOCK:   -4.15 KCAL/MOL
REMARK 924 INTRA-LIGAND FREE ENERGY PREDICTED BY IDOCK:   -0.29 KCAL/MOL
REMARK 927      BINDING AFFINITY PREDICTED BY RF-SCORE:    0.00 PKD
ROOT
HETATM    1  N   UNL     1     -10.020  20.434  67.375  1.00  0.00    -0.435 NA 
HETATM    2  H2  UNL     1      -9.153  19.949  67.608  1.00  0.00     0.000 HD 
HETATM    3  H1  UNL     1      -9.916  21.444  67.478  1.00  0.00     0.000 HD 
HETATM    4  C   UNL     1     -10.491  20.058  66.050  1.00  0.00    -0.416 C  
ENDROOT
BRANCH   4   5
HETATM    5  C   UNL     1     -10.648  18.545  65.894  1.00  0.00    -0.336 C  
BRANCH   5   6
HETATM    6  C   UNL     1     -10.478  17.766  67.206  1.00  0.00    -0.356 C  
BRANCH   6   7
HETATM    7  C   UNL     1      -9.515  16.537  67.176  1.00  0.00    -0.239 C  
HETATM    8  O   UNL     1      -8.927  16.489  65.823  1.00  0.00    -0.481 OA 
HETATM    9  P   UNL     1      -8.135  16.891  68.325  1.00  0.00    -0.234 P  
HETATM   10  P   UNL     1     -10.187  14.871  67.524  1.00  0.00    -0.234 P  
HETATM   11  H   UNL     1      -8.341  15.741  65.805  1.00  0.00     0.000 HD 
HETATM   12  O   UNL     1     -10.756  13.460  67.820  1.00  0.00    -0.242 OA 
HETATM   13  O   UNL     1     -11.197  14.984  66.234  1.00  0.00    -0.344 OA 
HETATM   14  O   UNL     1     -11.200  15.529  68.641  1.00  0.00    -0.285 OA 
HETATM   15  O   UNL     1      -6.969  17.191  69.297  1.00  0.00    -0.236 OA 
HETATM   16  O   UNL     1      -7.418  15.520  67.747  1.00  0.00    -0.127 OA 
HETATM   17  O   UNL     1      -7.436  17.870  67.182  1.00  0.00    -0.189 OA 
ENDBRANCH   6   7
ENDBRANCH   5   6
ENDBRANCH   4   5
TORSDOF 3
ENDMDL
MODEL       92
REMARK 921   NORMALIZED FREE ENERGY PREDICTED BY IDOCK:   -3.47 KCAL/MOL
REMARK 922        TOTAL FREE ENERGY PREDICTED BY IDOCK:   -4.42 KCAL/MOL
REMARK 923 INTER-LIGAND FREE ENERGY PREDICTED BY IDOCK:   -4.47 KCAL/MOL
REMARK 924 INTRA-LIGAND FREE ENERGY PREDICTED BY IDOCK:    0.05 KCAL/MOL
REMARK 927      BINDING AFFINITY PREDICTED BY RF-SCORE:    0.00 PKD
ROOT
HETATM    1  N   UNL     1      -8.817  11.774  62.736  1.00  0.00    -0.597 NA 
HETATM    2  H2  UNL     1      -8.424  12.642  63.099  1.00  0.00     0.000 HD 
HETATM    3  H1  UNL     1      -8.134  11.270  62.169  1.00  0.00     0.000 HD 
HETATM    4  C   UNL     1      -9.360  10.955  63.810  1.00  0.00    -0.248 C  
ENDROOT
BRANCH   4   5
HETATM    5  C   UNL     1     -10.383  11.710  64.659  1.00  0.00    -0.341 C  
BRANCH   5   6
HETATM    6  C   UNL     1     -10.069  13.203  64.826  1.00  0.00    -0.244 C  
BRANCH   6   7
HETATM    7  C   UNL     1     -10.527  13.874  66.160  1.00  0.00    -0.297 C  
HETATM    8  O   UNL     1     -11.510  14.914  65.799  1.00  0.00    -0.342 OA 
HETATM    9  P   UNL     1     -11.441  12.614  67.123  1.00  0.00    -0.378 P  
HETATM   10  P   UNL     1      -9.276  14.671  67.232  1.00  0.00    -0.225 P  
HETATM   11  H   UNL     1     -11.789  15.322  66.611  1.00  0.00     0.000 HD 
HETATM   12  O   UNL     1      -8.217  15.346  68.139  1.00  0.00    -0.139 OA 
HETATM   13  O   UNL     1      -8.887  15.724  66.032  1.00  0.00    -0.327 OA 
HETATM   14  O   UNL     1      -8.203  13.491  66.830  1.00  0.00    -0.090 OA 
HETATM   15  O   UNL     1     -12.214  11.548  67.937  1.00  0.00    -0.586 OA 
HETATM   16  O   UNL     1     -11.834  13.827  68.173  1.00  0.00    -0.343 OA 
HETATM   17  O   UNL     1     -12.778  12.857  66.169  1.00  0.00    -0.316 OA 
ENDBRANCH   6   7
ENDBRANCH   5   6
ENDBRANCH   4   5
TORSDOF 3
ENDMDL
MODEL       93
REMARK 921   NORMALIZED FREE ENERGY PREDICTED BY IDOCK:   -3.46 KCAL/MOL
REMARK 922        TOTAL FREE ENERGY PREDICTED BY IDOCK:   -4.41 KCAL/MOL
REMARK 923 INTER-LIGAND FREE ENERGY PREDICTED BY IDOCK:   -4.54 KCAL/MOL
REMARK 924 INTRA-LIGAND FREE ENERGY PREDICTED BY IDOCK:    0.14 KCAL/MOL
REMARK 927      BINDING AFFINITY PREDICTED BY RF-SCORE:    0.00 PKD
ROOT
HETATM    1  N   UNL     1     -12.512  13.872  63.223  1.00  0.00    -1.112 NA 
HETATM    2  H2  UNL     1     -12.197  14.773  63.582  1.00  0.00     0.000 HD 
HETATM    3  H1  UNL     1     -12.625  13.899  62.209  1.00  0.00     0.000 HD 
HETATM    4  C   UNL     1     -11.631  12.797  63.656  1.00  0.00    -0.506 C  
ENDROOT
BRANCH   4   5
HETATM    5  C   UNL     1     -11.462  12.757  65.175  1.00  0.00    -0.356 C  
BRANCH   5   6
HETATM    6  C   UNL     1      -9.999  12.699  65.635  1.00  0.00    -0.253 C  
BRANCH   6   7
HETATM    7  C   UNL     1      -9.648  11.648  66.736  1.00  0.00    -0.192 C  
HETATM    8  O   UNL     1      -8.540  12.214  67.529  1.00  0.00    -0.154 OA 
HETATM    9  P   UNL     1     -11.085  11.534  67.865  1.00  0.00    -0.305 P  
HETATM   10  P   UNL     1      -9.136   9.965  66.229  1.00  0.00    -0.171 P  
HETATM   11  H   UNL     1      -8.328  11.574  68.199  1.00  0.00     0.000 HD 
HETATM   12  O   UNL     1      -8.703   8.541  65.801  1.00  0.00    -0.160 OA 
HETATM   13  O   UNL     1      -7.840  10.578  65.427  1.00  0.00    -0.152 OA 
HETATM   14  O   UNL     1     -10.205  10.032  64.981  1.00  0.00    -0.280 OA 
HETATM   15  O   UNL     1     -12.300  11.438  68.819  1.00  0.00    -0.480 OA 
HETATM   16  O   UNL     1     -10.141  10.580  68.827  1.00  0.00    -0.173 OA 
HETATM   17  O   UNL     1     -10.610  12.941  68.607  1.00  0.00    -0.248 OA 
ENDBRANCH   6   7
ENDBRANCH   5   6
ENDBRANCH   4   5
TORSDOF 3
ENDMDL
MODEL       94
REMARK 921   NORMALIZED FREE ENERGY PREDICTED BY IDOCK:   -3.46 KCAL/MOL
REMARK 922        TOTAL FREE ENERGY PREDICTED BY IDOCK:   -4.41 KCAL/MOL
REMARK 923 INTER-LIGAND FREE ENERGY PREDICTED BY IDOCK:   -4.44 KCAL/MOL
REMARK 924 INTRA-LIGAND FREE ENERGY PREDICTED BY IDOCK:    0.03 KCAL/MOL
REMARK 927      BINDING AFFINITY PREDICTED BY RF-SCORE:    0.00 PKD
ROOT
HETATM    1  N   UNL     1     -11.416  11.008  67.084  1.00  0.00    -0.442 NA 
HETATM    2  H2  UNL     1     -12.419  10.837  67.139  1.00  0.00     0.000 HD 
HETATM    3  H1  UNL     1     -10.886  10.207  67.427  1.00  0.00     0.000 HD 
HETATM    4  C   UNL     1     -11.023  11.399  65.737  1.00  0.00    -0.194 C  
ENDROOT
BRANCH   4   5
HETATM    5  C   UNL     1     -11.817  12.600  65.223  1.00  0.00    -0.452 C  
BRANCH   5   6
HETATM    6  C   UNL     1     -11.917  13.754  66.232  1.00  0.00    -0.462 C  
BRANCH   6   7
HETATM    7  C   UNL     1     -10.673  14.690  66.356  1.00  0.00    -0.309 C  
HETATM    8  O   UNL     1      -9.550  13.998  65.695  1.00  0.00    -0.506 OA 
HETATM    9  P   UNL     1     -11.012  16.189  65.360  1.00  0.00    -0.064 P  
HETATM   10  P   UNL     1     -10.092  15.182  68.019  1.00  0.00    -0.226 P  
HETATM   11  H   UNL     1      -8.794  14.568  65.770  1.00  0.00     0.000 HD 
HETATM   12  O   UNL     1      -9.599  15.599  69.428  1.00  0.00    -0.256 OA 
HETATM   13  O   UNL     1      -9.810  13.612  68.410  1.00  0.00    -0.225 OA 
HETATM   14  O   UNL     1     -11.654  15.247  68.530  1.00  0.00    -0.328 OA 
HETATM   15  O   UNL     1     -11.299  17.456  64.518  1.00  0.00    -0.947 OA 
HETATM   16  O   UNL     1      -9.445  16.626  65.646  1.00  0.00    -0.511 OA 
HETATM   17  O   UNL     1     -10.642  15.351  63.976  1.00  0.00     0.482 OA 
ENDBRANCH   6   7
ENDBRANCH   5   6
ENDBRANCH   4   5
TORSDOF 3
ENDMDL
MODEL       95
REMARK 921   NORMALIZED FREE ENERGY PREDICTED BY IDOCK:   -3.45 KCAL/MOL
REMARK 922        TOTAL FREE ENERGY PREDICTED BY IDOCK:   -4.40 KCAL/MOL
REMARK 923 INTER-LIGAND FREE ENERGY PREDICTED BY IDOCK:   -3.92 KCAL/MOL
REMARK 924 INTRA-LIGAND FREE ENERGY PREDICTED BY IDOCK:   -0.48 KCAL/MOL
REMARK 927      BINDING AFFINITY PREDICTED BY RF-SCORE:    0.00 PKD
ROOT
HETATM    1  N   UNL     1      -9.355   8.491  69.838  1.00  0.00    -0.158 NA 
HETATM    2  H2  UNL     1      -8.935   9.086  70.551  1.00  0.00     0.000 HD 
HETATM    3  H1  UNL     1      -9.086   7.515  69.967  1.00  0.00     0.000 HD 
HETATM    4  C   UNL     1     -10.800   8.665  69.794  1.00  0.00    -0.183 C  
ENDROOT
BRANCH   4   5
HETATM    5  C   UNL     1     -11.205  10.127  69.600  1.00  0.00    -0.310 C  
BRANCH   5   6
HETATM    6  C   UNL     1     -11.263  10.564  68.130  1.00  0.00    -0.357 C  
BRANCH   6   7
HETATM    7  C   UNL     1     -10.401  11.805  67.730  1.00  0.00    -0.194 C  
HETATM    8  O   UNL     1      -9.759  12.294  68.965  1.00  0.00    -0.412 OA 
HETATM    9  P   UNL     1      -9.051  11.210  66.647  1.00  0.00    -0.181 P  
HETATM   10  P   UNL     1     -11.220  13.244  66.950  1.00  0.00    -0.331 P  
HETATM   11  H   UNL     1      -9.235  13.048  68.722  1.00  0.00     0.000 HD 
HETATM   12  O   UNL     1     -11.914  14.461  66.289  1.00  0.00    -0.396 OA 
HETATM   13  O   UNL     1     -12.159  13.459  68.281  1.00  0.00    -0.343 OA 
HETATM   14  O   UNL     1     -12.226  12.218  66.149  1.00  0.00    -0.647 OA 
HETATM   15  O   UNL     1      -7.909  10.707  65.731  1.00  0.00    -0.156 OA 
HETATM   16  O   UNL     1      -8.421  12.734  66.743  1.00  0.00    -0.144 OA 
HETATM   17  O   UNL     1      -8.225  10.666  67.979  1.00  0.00    -0.110 OA 
ENDBRANCH   6   7
ENDBRANCH   5   6
ENDBRANCH   4   5
TORSDOF 3
ENDMDL
MODEL       96
REMARK 921   NORMALIZED FREE ENERGY PREDICTED BY IDOCK:   -3.45 KCAL/MOL
REMARK 922        TOTAL FREE ENERGY PREDICTED BY IDOCK:   -4.40 KCAL/MOL
REMARK 923 INTER-LIGAND FREE ENERGY PREDICTED BY IDOCK:   -4.35 KCAL/MOL
REMARK 924 INTRA-LIGAND FREE ENERGY PREDICTED BY IDOCK:   -0.05 KCAL/MOL
REMARK 927      BINDING AFFINITY PREDICTED BY RF-SCORE:    0.00 PKD
ROOT
HETATM    1  N   UNL     1     -12.030  10.843  68.079  1.00  0.00    -0.777 NA 
HETATM    2  H2  UNL     1     -11.885  11.468  68.872  1.00  0.00     0.000 HD 
HETATM    3  H1  UNL     1     -12.370  11.354  67.265  1.00  0.00     0.000 HD 
HETATM    4  C   UNL     1     -10.828  10.075  67.790  1.00  0.00    -0.282 C  
ENDROOT
BRANCH   4   5
HETATM    5  C   UNL     1     -10.317   9.308  69.011  1.00  0.00    -0.228 C  
BRANCH   5   6
HETATM    6  C   UNL     1     -11.411   8.974  70.035  1.00  0.00    -0.072 C  
BRANCH   6   7
HETATM    7  C   UNL     1     -11.331   7.572  70.718  1.00  0.00    -0.280 C  
HETATM    8  O   UNL     1     -12.660   6.948  70.569  1.00  0.00    -0.591 OA 
HETATM    9  P   UNL     1     -10.170   6.549  69.740  1.00  0.00    -0.211 P  
HETATM   10  P   UNL     1     -10.889   7.469  72.491  1.00  0.00    -0.360 P  
HETATM   11  H   UNL     1     -12.611   6.095  70.985  1.00  0.00     0.000 HD 
HETATM   12  O   UNL     1     -10.515   7.382  73.992  1.00  0.00    -0.257 OA 
HETATM   13  O   UNL     1     -12.212   8.355  72.895  1.00  0.00    -0.274 OA 
HETATM   14  O   UNL     1      -9.849   8.727  72.289  1.00  0.00    -0.307 OA 
HETATM   15  O   UNL     1      -9.188   5.685  68.912  1.00  0.00    -0.117 OA 
HETATM   16  O   UNL     1     -10.633   5.276  70.685  1.00  0.00    -0.253 OA 
HETATM   17  O   UNL     1     -11.357   6.285  68.610  1.00  0.00    -0.337 OA 
ENDBRANCH   6   7
ENDBRANCH   5   6
ENDBRANCH   4   5
TORSDOF 3
ENDMDL
MODEL       97
REMARK 921   NORMALIZED FREE ENERGY PREDICTED BY IDOCK:   -3.44 KCAL/MOL
REMARK 922        TOTAL FREE ENERGY PREDICTED BY IDOCK:   -4.39 KCAL/MOL
REMARK 923 INTER-LIGAND FREE ENERGY PREDICTED BY IDOCK:   -4.35 KCAL/MOL
REMARK 924 INTRA-LIGAND FREE ENERGY PREDICTED BY IDOCK:   -0.04 KCAL/MOL
REMARK 927      BINDING AFFINITY PREDICTED BY RF-SCORE:    0.00 PKD
ROOT
HETATM    1  N   UNL     1     -11.764  12.653  63.030  1.00  0.00    -0.759 NA 
HETATM    2  H2  UNL     1     -10.897  12.118  62.988  1.00  0.00     0.000 HD 
HETATM    3  H1  UNL     1     -12.569  12.068  62.805  1.00  0.00     0.000 HD 
HETATM    4  C   UNL     1     -11.906  13.322  64.315  1.00  0.00    -0.417 C  
ENDROOT
BRANCH   4   5
HETATM    5  C   UNL     1     -10.700  14.199  64.654  1.00  0.00    -0.408 C  
BRANCH   5   6
HETATM    6  C   UNL     1     -11.013  15.327  65.646  1.00  0.00    -0.348 C  
BRANCH   6   7
HETATM    7  C   UNL     1     -10.112  15.414  66.920  1.00  0.00    -0.257 C  
HETATM    8  O   UNL     1     -11.018  15.437  68.083  1.00  0.00    -0.273 OA 
HETATM    9  P   UNL     1      -9.166  13.851  67.032  1.00  0.00    -0.249 P  
HETATM   10  P   UNL     1      -8.970  16.832  67.106  1.00  0.00    -0.218 P  
HETATM   11  H   UNL     1     -10.470  15.490  68.857  1.00  0.00     0.000 HD 
HETATM   12  O   UNL     1      -8.003  18.032  67.263  1.00  0.00    -0.208 OA 
HETATM   13  O   UNL     1     -10.234  17.881  67.086  1.00  0.00    -0.325 OA 
HETATM   14  O   UNL     1      -8.696  16.805  65.484  1.00  0.00    -0.315 OA 
HETATM   15  O   UNL     1      -8.367  12.529  67.127  1.00  0.00    -0.180 OA 
HETATM   16  O   UNL     1      -8.652  14.371  68.513  1.00  0.00    -0.168 OA 
HETATM   17  O   UNL     1     -10.507  13.087  67.644  1.00  0.00    -0.221 OA 
ENDBRANCH   6   7
ENDBRANCH   5   6
ENDBRANCH   4   5
TORSDOF 3
ENDMDL
MODEL       98
REMARK 921   NORMALIZED FREE ENERGY PREDICTED BY IDOCK:   -3.42 KCAL/MOL
REMARK 922        TOTAL FREE ENERGY PREDICTED BY IDOCK:   -4.37 KCAL/MOL
REMARK 923 INTER-LIGAND FREE ENERGY PREDICTED BY IDOCK:   -4.35 KCAL/MOL
REMARK 924 INTRA-LIGAND FREE ENERGY PREDICTED BY IDOCK:   -0.02 KCAL/MOL
REMARK 927      BINDING AFFINITY PREDICTED BY RF-SCORE:    0.00 PKD
ROOT
HETATM    1  N   UNL     1      -9.889  20.747  67.125  1.00  0.00    -0.591 NA 
HETATM    2  H2  UNL     1      -9.063  20.354  67.576  1.00  0.00     0.000 HD 
HETATM    3  H1  UNL     1      -9.688  21.661  66.721  1.00  0.00     0.000 HD 
HETATM    4  C   UNL     1     -10.445  19.818  66.151  1.00  0.00    -0.509 C  
ENDROOT
BRANCH   4   5
HETATM    5  C   UNL     1     -10.747  18.448  66.758  1.00  0.00    -0.274 C  
BRANCH   5   6
HETATM    6  C   UNL     1      -9.876  18.103  67.974  1.00  0.00    -0.331 C  
BRANCH   6   7
HETATM    7  C   UNL     1      -9.411  16.617  68.108  1.00  0.00    -0.228 C  
HETATM    8  O   UNL     1      -9.487  16.274  69.541  1.00  0.00    -0.203 OA 
HETATM    9  P   UNL     1     -10.655  15.574  67.262  1.00  0.00    -0.301 P  
HETATM   10  P   UNL     1      -7.736  16.153  67.537  1.00  0.00    -0.178 P  
HETATM   11  H   UNL     1      -9.205  15.371  69.623  1.00  0.00     0.000 HD 
HETATM   12  O   UNL     1      -6.318  15.760  67.053  1.00  0.00    -0.308 OA 
HETATM   13  O   UNL     1      -7.057  17.185  68.619  1.00  0.00    -0.195 OA 
HETATM   14  O   UNL     1      -7.881  17.220  66.293  1.00  0.00    -0.282 OA 
HETATM   15  O   UNL     1     -11.707  14.692  66.547  1.00  0.00    -0.369 OA 
HETATM   16  O   UNL     1      -9.851  14.269  67.879  1.00  0.00    -0.218 OA 
HETATM   17  O   UNL     1     -11.661  15.712  68.576  1.00  0.00    -0.360 OA 
ENDBRANCH   6   7
ENDBRANCH   5   6
ENDBRANCH   4   5
TORSDOF 3
ENDMDL
MODEL       99
REMARK 921   NORMALIZED FREE ENERGY PREDICTED BY IDOCK:   -3.41 KCAL/MOL
REMARK 922        TOTAL FREE ENERGY PREDICTED BY IDOCK:   -4.35 KCAL/MOL
REMARK 923 INTER-LIGAND FREE ENERGY PREDICTED BY IDOCK:   -3.91 KCAL/MOL
REMARK 924 INTRA-LIGAND FREE ENERGY PREDICTED BY IDOCK:   -0.44 KCAL/MOL
REMARK 927      BINDING AFFINITY PREDICTED BY RF-SCORE:    0.00 PKD
ROOT
HETATM    1  N   UNL     1      -9.955  10.103  65.340  1.00  0.00    -0.307 NA 
HETATM    2  H2  UNL     1      -9.942  11.073  65.656  1.00  0.00     0.000 HD 
HETATM    3  H1  UNL     1      -9.583  10.019  64.394  1.00  0.00     0.000 HD 
HETATM    4  C   UNL     1      -9.268   9.235  66.286  1.00  0.00    -0.186 C  
ENDROOT
BRANCH   4   5
HETATM    5  C   UNL     1      -9.825   9.361  67.704  1.00  0.00    -0.217 C  
BRANCH   5   6
HETATM    6  C   UNL     1     -11.104  10.204  67.795  1.00  0.00    -0.293 C  
BRANCH   6   7
HETATM    7  C   UNL     1     -11.047  11.476  68.701  1.00  0.00    -0.238 C  
HETATM    8  O   UNL     1      -9.622  11.736  68.981  1.00  0.00    -0.408 OA 
HETATM    9  P   UNL     1     -11.643  12.889  67.703  1.00  0.00    -0.362 P  
HETATM   10  P   UNL     1     -11.912  11.459  70.314  1.00  0.00    -0.322 P  
HETATM   11  H   UNL     1      -9.587  12.510  69.532  1.00  0.00     0.000 HD 
HETATM   12  O   UNL     1     -12.645  11.446  71.678  1.00  0.00    -0.320 OA 
HETATM   13  O   UNL     1     -10.980  10.208  70.827  1.00  0.00    -0.320 OA 
HETATM   14  O   UNL     1     -13.116  10.561  69.642  1.00  0.00    -0.020 OA 
HETATM   15  O   UNL     1     -12.148  14.084  66.858  1.00  0.00    -0.424 OA 
HETATM   16  O   UNL     1     -11.176  13.858  68.957  1.00  0.00    -0.253 OA 
HETATM   17  O   UNL     1     -10.169  12.973  66.945  1.00  0.00    -0.239 OA 
ENDBRANCH   6   7
ENDBRANCH   5   6
ENDBRANCH   4   5
TORSDOF 3
ENDMDL
MODEL      100
REMARK 921   NORMALIZED FREE ENERGY PREDICTED BY IDOCK:   -3.39 KCAL/MOL
REMARK 922        TOTAL FREE ENERGY PREDICTED BY IDOCK:   -4.33 KCAL/MOL
REMARK 923 INTER-LIGAND FREE ENERGY PREDICTED BY IDOCK:   -4.18 KCAL/MOL
REMARK 924 INTRA-LIGAND FREE ENERGY PREDICTED BY IDOCK:   -0.15 KCAL/MOL
REMARK 927      BINDING AFFINITY PREDICTED BY RF-SCORE:    0.00 PKD
ROOT
HETATM    1  N   UNL     1      -9.493  11.687  62.813  1.00  0.00    -0.585 NA 
HETATM    2  H2  UNL     1      -9.480  12.630  63.200  1.00  0.00     0.000 HD 
HETATM    3  H1  UNL     1      -8.825  11.593  62.048  1.00  0.00     0.000 HD 
HETATM    4  C   UNL     1      -9.288  10.690  63.854  1.00  0.00    -0.267 C  
ENDROOT
BRANCH   4   5
HETATM    5  C   UNL     1     -10.289  10.830  65.001  1.00  0.00    -0.357 C  
BRANCH   5   6
HETATM    6  C   UNL     1      -9.694  11.453  66.272  1.00  0.00    -0.239 C  
BRANCH   6   7
HETATM    7  C   UNL     1     -10.512  11.280  67.591  1.00  0.00    -0.193 C  
HETATM    8  O   UNL     1     -11.515  10.229  67.336  1.00  0.00    -0.469 OA 
HETATM    9  P   UNL     1      -9.374  10.610  68.859  1.00  0.00    -0.142 P  
HETATM   10  P   UNL     1     -11.410  12.719  68.277  1.00  0.00    -0.347 P  
HETATM   11  H   UNL     1     -12.012  10.123  68.139  1.00  0.00     0.000 HD 
HETATM   12  O   UNL     1     -12.170  13.937  68.858  1.00  0.00    -0.354 OA 
HETATM   13  O   UNL     1     -12.320  12.829  66.915  1.00  0.00    -0.412 OA 
HETATM   14  O   UNL     1     -10.183  13.699  67.788  1.00  0.00    -0.234 OA 
HETATM   15  O   UNL     1      -8.412  10.043  69.931  1.00  0.00    -0.189 OA 
HETATM   16  O   UNL     1     -10.700  10.433  69.829  1.00  0.00    -0.251 OA 
HETATM   17  O   UNL     1      -9.524   9.098  68.192  1.00  0.00    -0.141 OA 
ENDBRANCH   6   7
ENDBRANCH   5   6
ENDBRANCH   4   5
TORSDOF 3
ENDMDL
MODEL      101
REMARK 921   NORMALIZED FREE ENERGY PREDICTED BY IDOCK:   -3.39 KCAL/MOL
REMARK 922        TOTAL FREE ENERGY PREDICTED BY IDOCK:   -4.33 KCAL/MOL
REMARK 923 INTER-LIGAND FREE ENERGY PREDICTED BY IDOCK:   -3.78 KCAL/MOL
REMARK 924 INTRA-LIGAND FREE ENERGY PREDICTED BY IDOCK:   -0.55 KCAL/MOL
REMARK 927      BINDING AFFINITY PREDICTED BY RF-SCORE:    0.00 PKD
ROOT
HETATM    1  N   UNL     1      -5.853  15.506  67.989  1.00  0.00    -0.126 NA 
HETATM    2  H2  UNL     1      -5.672  16.247  67.312  1.00  0.00     0.000 HD 
HETATM    3  H1  UNL     1      -5.185  14.742  67.885  1.00  0.00     0.000 HD 
HETATM    4  C   UNL     1      -5.886  16.033  69.346  1.00  0.00    -0.131 C  
ENDROOT
BRANCH   4   5
HETATM    5  C   UNL     1      -6.886  17.179  69.503  1.00  0.00    -0.092 C  
BRANCH   5   6
HETATM    6  C   UNL     1      -7.309  17.819  68.173  1.00  0.00    -0.238 C  
BRANCH   6   7
HETATM    7  C   UNL     1      -8.825  17.736  67.802  1.00  0.00    -0.249 C  
HETATM    8  O   UNL     1      -9.526  17.214  68.991  1.00  0.00    -0.245 OA 
HETATM    9  P   UNL     1      -9.425  19.448  67.558  1.00  0.00    -0.341 P  
HETATM   10  P   UNL     1      -9.339  16.701  66.383  1.00  0.00    -0.292 P  
HETATM   11  H   UNL     1     -10.448  17.164  68.766  1.00  0.00     0.000 HD 
HETATM   12  O   UNL     1      -9.774  15.825  65.182  1.00  0.00    -0.326 OA 
HETATM   13  O   UNL     1      -8.736  15.359  67.115  1.00  0.00    -0.191 OA 
HETATM   14  O   UNL     1      -7.967  17.138  65.587  1.00  0.00    -0.381 OA 
HETATM   15  O   UNL     1      -9.932  20.895  67.352  1.00  0.00    -0.397 OA 
HETATM   16  O   UNL     1     -10.943  18.805  67.448  1.00  0.00    -0.422 OA 
HETATM   17  O   UNL     1      -9.511  19.649  69.204  1.00  0.00    -0.351 OA 
ENDBRANCH   6   7
ENDBRANCH   5   6
ENDBRANCH   4   5
TORSDOF 3
ENDMDL
MODEL      102
REMARK 921   NORMALIZED FREE ENERGY PREDICTED BY IDOCK:   -3.39 KCAL/MOL
REMARK 922        TOTAL FREE ENERGY PREDICTED BY IDOCK:   -4.33 KCAL/MOL
REMARK 923 INTER-LIGAND FREE ENERGY PREDICTED BY IDOCK:   -4.04 KCAL/MOL
REMARK 924 INTRA-LIGAND FREE ENERGY PREDICTED BY IDOCK:   -0.29 KCAL/MOL
REMARK 927      BINDING AFFINITY PREDICTED BY RF-SCORE:    0.00 PKD
ROOT
HETATM    1  N   UNL     1     -11.917  12.012  66.880  1.00  0.00    -0.609 NA 
HETATM    2  H2  UNL     1     -11.128  11.528  66.453  1.00  0.00     0.000 HD 
HETATM    3  H1  UNL     1     -12.800  11.561  66.637  1.00  0.00     0.000 HD 
HETATM    4  C   UNL     1     -11.737  12.140  68.319  1.00  0.00    -0.342 C  
ENDROOT
BRANCH   4   5
HETATM    5  C   UNL     1     -10.415  12.816  68.683  1.00  0.00    -0.230 C  
BRANCH   5   6
HETATM    6  C   UNL     1     -10.513  14.343  68.808  1.00  0.00    -0.244 C  
BRANCH   6   7
HETATM    7  C   UNL     1      -9.432  15.181  68.052  1.00  0.00    -0.199 C  
HETATM    8  O   UNL     1      -8.882  16.144  69.025  1.00  0.00    -0.232 OA 
HETATM    9  P   UNL     1      -8.063  14.048  67.616  1.00  0.00    -0.198 P  
HETATM   10  P   UNL     1      -9.924  16.140  66.573  1.00  0.00    -0.316 P  
HETATM   11  H   UNL     1      -8.225  16.653  68.566  1.00  0.00     0.000 HD 
HETATM   12  O   UNL     1     -10.340  16.952  65.321  1.00  0.00    -0.624 OA 
HETATM   13  O   UNL     1     -10.977  17.026  67.470  1.00  0.00    -0.258 OA 
HETATM   14  O   UNL     1     -10.965  14.937  66.157  1.00  0.00    -0.324 OA 
HETATM   15  O   UNL     1      -6.904  13.089  67.248  1.00  0.00    -0.146 OA 
HETATM   16  O   UNL     1      -7.229  15.387  67.125  1.00  0.00    -0.204 OA 
HETATM   17  O   UNL     1      -7.498  14.134  69.175  1.00  0.00    -0.112 OA 
ENDBRANCH   6   7
ENDBRANCH   5   6
ENDBRANCH   4   5
TORSDOF 3
ENDMDL
MODEL      103
REMARK 921   NORMALIZED FREE ENERGY PREDICTED BY IDOCK:   -3.38 KCAL/MOL
REMARK 922        TOTAL FREE ENERGY PREDICTED BY IDOCK:   -4.32 KCAL/MOL
REMARK 923 INTER-LIGAND FREE ENERGY PREDICTED BY IDOCK:   -3.84 KCAL/MOL
REMARK 924 INTRA-LIGAND FREE ENERGY PREDICTED BY IDOCK:   -0.48 KCAL/MOL
REMARK 927      BINDING AFFINITY PREDICTED BY RF-SCORE:    0.00 PKD
ROOT
HETATM    1  N   UNL     1      -7.087  12.961  69.323  1.00  0.00    -0.306 NA 
HETATM    2  H2  UNL     1      -7.251  12.322  68.545  1.00  0.00     0.000 HD 
HETATM    3  H1  UNL     1      -6.114  12.929  69.628  1.00  0.00     0.000 HD 
HETATM    4  C   UNL     1      -7.521  14.311  68.992  1.00  0.00    -0.102 C  
ENDROOT
BRANCH   4   5
HETATM    5  C   UNL     1      -8.979  14.361  68.535  1.00  0.00    -0.187 C  
BRANCH   5   6
HETATM    6  C   UNL     1      -9.583  12.981  68.239  1.00  0.00    -0.213 C  
BRANCH   6   7
HETATM    7  C   UNL     1      -9.738  12.588  66.735  1.00  0.00    -0.234 C  
HETATM    8  O   UNL     1      -8.904  13.527  65.961  1.00  0.00    -0.348 OA 
HETATM    9  P   UNL     1      -8.986  10.933  66.519  1.00  0.00    -0.179 P  
HETATM   10  P   UNL     1     -11.403  12.605  65.978  1.00  0.00    -0.365 P  
HETATM   11  H   UNL     1      -8.998  13.288  65.046  1.00  0.00     0.000 HD 
HETATM   12  O   UNL     1     -12.814  12.619  65.337  1.00  0.00    -0.582 OA 
HETATM   13  O   UNL     1     -11.552  14.211  66.287  1.00  0.00    -0.344 OA 
HETATM   14  O   UNL     1     -12.037  12.060  67.395  1.00  0.00    -0.566 OA 
HETATM   15  O   UNL     1      -8.350   9.534  66.336  1.00  0.00    -0.117 OA 
HETATM   16  O   UNL     1      -9.207  11.142  64.895  1.00  0.00    -0.209 OA 
HETATM   17  O   UNL     1      -7.476  11.622  66.513  1.00  0.00    -0.086 OA 
ENDBRANCH   6   7
ENDBRANCH   5   6
ENDBRANCH   4   5
TORSDOF 3
ENDMDL
MODEL      104
REMARK 921   NORMALIZED FREE ENERGY PREDICTED BY IDOCK:   -3.38 KCAL/MOL
REMARK 922        TOTAL FREE ENERGY PREDICTED BY IDOCK:   -4.31 KCAL/MOL
REMARK 923 INTER-LIGAND FREE ENERGY PREDICTED BY IDOCK:   -4.18 KCAL/MOL
REMARK 924 INTRA-LIGAND FREE ENERGY PREDICTED BY IDOCK:   -0.13 KCAL/MOL
REMARK 927      BINDING AFFINITY PREDICTED BY RF-SCORE:    0.00 PKD
ROOT
HETATM    1  N   UNL     1      -8.431  11.126  68.982  1.00  0.00    -0.345 NA 
HETATM    2  H2  UNL     1      -9.095  10.411  68.687  1.00  0.00     0.000 HD 
HETATM    3  H1  UNL     1      -7.766  10.755  69.661  1.00  0.00     0.000 HD 
HETATM    4  C   UNL     1      -7.771  11.733  67.835  1.00  0.00    -0.125 C  
ENDROOT
BRANCH   4   5
HETATM    5  C   UNL     1      -8.767  12.290  66.817  1.00  0.00    -0.175 C  
BRANCH   5   6
HETATM    6  C   UNL     1      -9.150  13.757  67.062  1.00  0.00    -0.253 C  
BRANCH   6   7
HETATM    7  C   UNL     1     -10.663  14.121  66.928  1.00  0.00    -0.286 C  
HETATM    8  O   UNL     1     -10.725  15.506  66.424  1.00  0.00    -0.305 OA 
HETATM    9  P   UNL     1     -11.369  13.062  65.612  1.00  0.00    -0.328 P  
HETATM   10  P   UNL     1     -11.732  14.044  68.411  1.00  0.00    -0.365 P  
HETATM   11  H   UNL     1     -11.645  15.728  66.343  1.00  0.00     0.000 HD 
HETATM   12  O   UNL     1     -12.637  13.980  69.667  1.00  0.00    -0.253 OA 
HETATM   13  O   UNL     1     -10.815  15.184  69.158  1.00  0.00    -0.231 OA 
HETATM   14  O   UNL     1     -10.892  12.729  68.930  1.00  0.00    -0.238 OA 
HETATM   15  O   UNL     1     -11.965  12.166  64.500  1.00  0.00    -0.368 OA 
HETATM   16  O   UNL     1     -12.745  13.965  65.746  1.00  0.00    -0.504 OA 
HETATM   17  O   UNL     1     -10.700  14.052  64.460  1.00  0.00    -0.409 OA 
ENDBRANCH   6   7
ENDBRANCH   5   6
ENDBRANCH   4   5
TORSDOF 3
ENDMDL
MODEL      105
REMARK 921   NORMALIZED FREE ENERGY PREDICTED BY IDOCK:   -3.36 KCAL/MOL
REMARK 922        TOTAL FREE ENERGY PREDICTED BY IDOCK:   -4.29 KCAL/MOL
REMARK 923 INTER-LIGAND FREE ENERGY PREDICTED BY IDOCK:   -4.34 KCAL/MOL
REMARK 924 INTRA-LIGAND FREE ENERGY PREDICTED BY IDOCK:    0.05 KCAL/MOL
REMARK 927      BINDING AFFINITY PREDICTED BY RF-SCORE:    0.00 PKD
ROOT
HETATM    1  N   UNL     1     -10.124  16.345  66.641  1.00  0.00    -0.273 NA 
HETATM    2  H2  UNL     1     -10.793  16.613  65.920  1.00  0.00     0.000 HD 
HETATM    3  H1  UNL     1      -9.520  17.128  66.892  1.00  0.00     0.000 HD 
HETATM    4  C   UNL     1     -10.801  15.774  67.797  1.00  0.00    -0.316 C  
ENDROOT
BRANCH   4   5
HETATM    5  C   UNL     1     -11.707  14.601  67.422  1.00  0.00    -0.413 C  
BRANCH   5   6
HETATM    6  C   UNL     1     -11.459  13.336  68.255  1.00  0.00    -0.351 C  
BRANCH   6   7
HETATM    7  C   UNL     1     -10.945  12.076  67.487  1.00  0.00    -0.253 C  
HETATM    8  O   UNL     1     -12.015  11.063  67.565  1.00  0.00    -0.545 OA 
HETATM    9  P   UNL     1     -10.797  12.533  65.720  1.00  0.00    -0.299 P  
HETATM   10  P   UNL     1      -9.400  11.266  68.039  1.00  0.00    -0.178 P  
HETATM   11  H   UNL     1     -11.702  10.297  67.098  1.00  0.00     0.000 HD 
HETATM   12  O   UNL     1      -8.093  10.579  68.506  1.00  0.00    -0.108 OA 
HETATM   13  O   UNL     1     -10.065  10.950  69.507  1.00  0.00    -0.155 OA 
HETATM   14  O   UNL     1      -8.774  12.742  68.406  1.00  0.00    -0.178 OA 
HETATM   15  O   UNL     1     -10.672  12.920  64.227  1.00  0.00    -0.359 OA 
HETATM   16  O   UNL     1     -10.493  10.937  65.424  1.00  0.00    -0.265 OA 
HETATM   17  O   UNL     1     -12.439  12.367  65.542  1.00  0.00    -0.643 OA 
ENDBRANCH   6   7
ENDBRANCH   5   6
ENDBRANCH   4   5
TORSDOF 3
ENDMDL
MODEL      106
REMARK 921   NORMALIZED FREE ENERGY PREDICTED BY IDOCK:   -3.35 KCAL/MOL
REMARK 922        TOTAL FREE ENERGY PREDICTED BY IDOCK:   -4.28 KCAL/MOL
REMARK 923 INTER-LIGAND FREE ENERGY PREDICTED BY IDOCK:   -3.67 KCAL/MOL
REMARK 924 INTRA-LIGAND FREE ENERGY PREDICTED BY IDOCK:   -0.61 KCAL/MOL
REMARK 927      BINDING AFFINITY PREDICTED BY RF-SCORE:    0.00 PKD
ROOT
HETATM    1  N   UNL     1      -7.332  13.009  69.333  1.00  0.00    -0.303 NA 
HETATM    2  H2  UNL     1      -7.230  12.082  68.921  1.00  0.00     0.000 HD 
HETATM    3  H1  UNL     1      -6.776  13.098  70.183  1.00  0.00     0.000 HD 
HETATM    4  C   UNL     1      -7.031  14.051  68.361  1.00  0.00    -0.100 C  
ENDROOT
BRANCH   4   5
HETATM    5  C   UNL     1      -7.865  13.919  67.087  1.00  0.00    -0.036 C  
BRANCH   5   6
HETATM    6  C   UNL     1      -9.063  14.876  67.028  1.00  0.00    -0.255 C  
BRANCH   6   7
HETATM    7  C   UNL     1     -10.465  14.270  67.356  1.00  0.00    -0.264 C  
HETATM    8  O   UNL     1     -10.230  12.915  67.889  1.00  0.00    -0.221 OA 
HETATM    9  P   UNL     1     -11.178  15.248  68.729  1.00  0.00    -0.327 P  
HETATM   10  P   UNL     1     -11.701  14.109  66.016  1.00  0.00    -0.405 P  
HETATM   11  H   UNL     1     -11.083  12.547  68.088  1.00  0.00     0.000 HD 
HETATM   12  O   UNL     1     -12.747  13.973  64.881  1.00  0.00    -0.647 OA 
HETATM   13  O   UNL     1     -10.699  13.110  65.182  1.00  0.00    -0.295 OA 
HETATM   14  O   UNL     1     -11.165  15.525  65.373  1.00  0.00    -0.307 OA 
HETATM   15  O   UNL     1     -11.781  16.074  69.891  1.00  0.00    -0.325 OA 
HETATM   16  O   UNL     1     -12.388  14.123  68.784  1.00  0.00    -0.272 OA 
HETATM   17  O   UNL     1     -10.219  14.429  69.808  1.00  0.00     0.089 OA 
ENDBRANCH   6   7
ENDBRANCH   5   6
ENDBRANCH   4   5
TORSDOF 3
ENDMDL
MODEL      107
REMARK 921   NORMALIZED FREE ENERGY PREDICTED BY IDOCK:   -3.34 KCAL/MOL
REMARK 922        TOTAL FREE ENERGY PREDICTED BY IDOCK:   -4.27 KCAL/MOL
REMARK 923 INTER-LIGAND FREE ENERGY PREDICTED BY IDOCK:   -3.79 KCAL/MOL
REMARK 924 INTRA-LIGAND FREE ENERGY PREDICTED BY IDOCK:   -0.47 KCAL/MOL
REMARK 927      BINDING AFFINITY PREDICTED BY RF-SCORE:    0.00 PKD
ROOT
HETATM    1  N   UNL     1     -11.040   6.197  66.461  1.00  0.00    -0.749 NA 
HETATM    2  H2  UNL     1     -10.817   7.105  66.867  1.00  0.00     0.000 HD 
HETATM    3  H1  UNL     1     -11.029   6.236  65.442  1.00  0.00     0.000 HD 
HETATM    4  C   UNL     1     -10.165   5.159  66.987  1.00  0.00    -0.223 C  
ENDROOT
BRANCH   4   5
HETATM    5  C   UNL     1     -10.182   5.100  68.514  1.00  0.00    -0.182 C  
BRANCH   5   6
HETATM    6  C   UNL     1     -11.030   6.200  69.168  1.00  0.00    -0.450 C  
BRANCH   6   7
HETATM    7  C   UNL     1     -10.267   7.263  70.022  1.00  0.00    -0.201 C  
HETATM    8  O   UNL     1      -8.830   6.945  69.915  1.00  0.00    -0.141 OA 
HETATM    9  P   UNL     1     -10.497   8.888  69.212  1.00  0.00    -0.173 P  
HETATM   10  P   UNL     1     -10.649   7.411  71.806  1.00  0.00    -0.205 P  
HETATM   11  H   UNL     1      -8.367   7.591  70.434  1.00  0.00     0.000 HD 
HETATM   12  O   UNL     1     -10.972   7.537  73.315  1.00  0.00    -0.393 OA 
HETATM   13  O   UNL     1     -10.176   5.859  72.059  1.00  0.00    -0.190 OA 
HETATM   14  O   UNL     1     -12.230   7.097  71.478  1.00  0.00    -0.319 OA 
HETATM   15  O   UNL     1     -10.692  10.262  68.526  1.00  0.00    -0.202 OA 
HETATM   16  O   UNL     1      -9.401   9.484  70.294  1.00  0.00    -0.229 OA 
HETATM   17  O   UNL     1      -9.339   8.490  68.091  1.00  0.00    -0.137 OA 
ENDBRANCH   6   7
ENDBRANCH   5   6
ENDBRANCH   4   5
TORSDOF 3
ENDMDL
MODEL      108
REMARK 921   NORMALIZED FREE ENERGY PREDICTED BY IDOCK:   -3.33 KCAL/MOL
REMARK 922        TOTAL FREE ENERGY PREDICTED BY IDOCK:   -4.26 KCAL/MOL
REMARK 923 INTER-LIGAND FREE ENERGY PREDICTED BY IDOCK:   -4.17 KCAL/MOL
REMARK 924 INTRA-LIGAND FREE ENERGY PREDICTED BY IDOCK:   -0.09 KCAL/MOL
REMARK 927      BINDING AFFINITY PREDICTED BY RF-SCORE:    0.00 PKD
ROOT
HETATM    1  N   UNL     1     -11.438   4.536  65.116  1.00  0.00    -1.109 NA 
HETATM    2  H2  UNL     1     -11.734   5.396  64.654  1.00  0.00     0.000 HD 
HETATM    3  H1  UNL     1     -11.134   3.839  64.436  1.00  0.00     0.000 HD 
HETATM    4  C   UNL     1     -10.426   4.805  66.126  1.00  0.00    -0.290 C  
ENDROOT
BRANCH   4   5
HETATM    5  C   UNL     1     -10.881   5.849  67.146  1.00  0.00    -0.373 C  
BRANCH   5   6
HETATM    6  C   UNL     1     -10.404   5.567  68.578  1.00  0.00    -0.247 C  
BRANCH   6   7
HETATM    7  C   UNL     1     -10.197   6.805  69.508  1.00  0.00    -0.184 C  
HETATM    8  O   UNL     1     -11.055   7.883  68.981  1.00  0.00    -0.427 OA 
HETATM    9  P   UNL     1     -10.865   6.372  71.156  1.00  0.00    -0.282 P  
HETATM   10  P   UNL     1      -8.516   7.505  69.696  1.00  0.00    -0.136 P  
HETATM   11  H   UNL     1     -10.929   8.635  69.547  1.00  0.00     0.000 HD 
HETATM   12  O   UNL     1      -7.094   8.097  69.855  1.00  0.00    -0.057 OA 
HETATM   13  O   UNL     1      -8.450   7.835  68.088  1.00  0.00    -0.123 OA 
HETATM   14  O   UNL     1      -7.891   5.985  69.623  1.00  0.00    -0.097 OA 
HETATM   15  O   UNL     1     -11.431   6.006  72.549  1.00  0.00    -0.288 OA 
HETATM   16  O   UNL     1     -10.617   7.951  71.573  1.00  0.00    -0.217 OA 
HETATM   17  O   UNL     1     -12.405   6.647  70.601  1.00  0.00    -0.340 OA 
ENDBRANCH   6   7
ENDBRANCH   5   6
ENDBRANCH   4   5
TORSDOF 3
ENDMDL
MODEL      109
REMARK 921   NORMALIZED FREE ENERGY PREDICTED BY IDOCK:   -3.33 KCAL/MOL
REMARK 922        TOTAL FREE ENERGY PREDICTED BY IDOCK:   -4.25 KCAL/MOL
REMARK 923 INTER-LIGAND FREE ENERGY PREDICTED BY IDOCK:   -3.95 KCAL/MOL
REMARK 924 INTRA-LIGAND FREE ENERGY PREDICTED BY IDOCK:   -0.31 KCAL/MOL
REMARK 927      BINDING AFFINITY PREDICTED BY RF-SCORE:    0.00 PKD
ROOT
HETATM    1  N   UNL     1      -7.637  11.506  69.255  1.00  0.00    -0.337 NA 
HETATM    2  H2  UNL     1      -8.321  10.754  69.339  1.00  0.00     0.000 HD 
HETATM    3  H1  UNL     1      -6.986  11.501  70.040  1.00  0.00     0.000 HD 
HETATM    4  C   UNL     1      -6.957  11.455  67.969  1.00  0.00    -0.069 C  
ENDROOT
BRANCH   4   5
HETATM    5  C   UNL     1      -7.932  11.463  66.792  1.00  0.00    -0.160 C  
BRANCH   5   6
HETATM    6  C   UNL     1      -9.092  12.456  66.954  1.00  0.00    -0.211 C  
BRANCH   6   7
HETATM    7  C   UNL     1     -10.531  11.852  67.025  1.00  0.00    -0.224 C  
HETATM    8  O   UNL     1     -10.386  10.389  66.908  1.00  0.00    -0.221 OA 
HETATM    9  P   UNL     1     -11.179  12.173  68.707  1.00  0.00    -0.304 P  
HETATM   10  P   UNL     1     -11.774  12.367  65.785  1.00  0.00    -0.328 P  
HETATM   11  H   UNL     1     -11.261  10.022  66.951  1.00  0.00     0.000 HD 
HETATM   12  O   UNL     1     -12.827  12.802  64.735  1.00  0.00    -0.707 OA 
HETATM   13  O   UNL     1     -10.840  11.774  64.571  1.00  0.00    -0.292 OA 
HETATM   14  O   UNL     1     -11.146  13.887  65.808  1.00  0.00    -0.292 OA 
HETATM   15  O   UNL     1     -11.726  12.444  70.130  1.00  0.00    -0.286 OA 
HETATM   16  O   UNL     1     -12.459  11.211  68.302  1.00  0.00    -0.300 OA 
HETATM   17  O   UNL     1     -10.275  10.909  69.294  1.00  0.00    -0.217 OA 
ENDBRANCH   6   7
ENDBRANCH   5   6
ENDBRANCH   4   5
TORSDOF 3
ENDMDL
MODEL      110
REMARK 921   NORMALIZED FREE ENERGY PREDICTED BY IDOCK:   -3.31 KCAL/MOL
REMARK 922        TOTAL FREE ENERGY PREDICTED BY IDOCK:   -4.23 KCAL/MOL
REMARK 923 INTER-LIGAND FREE ENERGY PREDICTED BY IDOCK:   -3.58 KCAL/MOL
REMARK 924 INTRA-LIGAND FREE ENERGY PREDICTED BY IDOCK:   -0.65 KCAL/MOL
REMARK 927      BINDING AFFINITY PREDICTED BY RF-SCORE:    0.00 PKD
ROOT
HETATM    1  N   UNL     1     -11.335   6.717  70.985  1.00  0.00    -0.290 NA 
HETATM    2  H2  UNL     1     -11.299   6.143  70.143  1.00  0.00     0.000 HD 
HETATM    3  H1  UNL     1     -11.916   6.283  71.702  1.00  0.00     0.000 HD 
HETATM    4  C   UNL     1      -9.996   7.026  71.466  1.00  0.00    -0.180 C  
ENDROOT
BRANCH   4   5
HETATM    5  C   UNL     1      -9.125   7.677  70.391  1.00  0.00    -0.152 C  
BRANCH   5   6
HETATM    6  C   UNL     1      -9.238   9.207  70.345  1.00  0.00    -0.271 C  
BRANCH   6   7
HETATM    7  C   UNL     1     -10.209   9.809  69.279  1.00  0.00    -0.204 C  
HETATM    8  O   UNL     1     -10.949   8.678  68.689  1.00  0.00    -0.440 OA 
HETATM    9  P   UNL     1     -11.445  10.823  70.172  1.00  0.00    -0.307 P  
HETATM   10  P   UNL     1      -9.516  10.777  67.889  1.00  0.00    -0.164 P  
HETATM   11  H   UNL     1     -11.540   9.044  68.041  1.00  0.00     0.000 HD 
HETATM   12  O   UNL     1      -8.929  11.596  66.712  1.00  0.00    -0.176 OA 
HETATM   13  O   UNL     1      -8.660   9.471  67.378  1.00  0.00    -0.125 OA 
HETATM   14  O   UNL     1      -8.376  11.390  68.904  1.00  0.00    -0.130 OA 
HETATM   15  O   UNL     1     -12.489  11.681  70.927  1.00  0.00    -0.376 OA 
HETATM   16  O   UNL     1     -12.235  10.972  68.729  1.00  0.00    -0.546 OA 
HETATM   17  O   UNL     1     -12.262   9.444  70.603  1.00  0.00    -0.216 OA 
ENDBRANCH   6   7
ENDBRANCH   5   6
ENDBRANCH   4   5
TORSDOF 3
ENDMDL
MODEL      111
REMARK 921   NORMALIZED FREE ENERGY PREDICTED BY IDOCK:   -3.29 KCAL/MOL
REMARK 922        TOTAL FREE ENERGY PREDICTED BY IDOCK:   -4.21 KCAL/MOL
REMARK 923 INTER-LIGAND FREE ENERGY PREDICTED BY IDOCK:   -3.81 KCAL/MOL
REMARK 924 INTRA-LIGAND FREE ENERGY PREDICTED BY IDOCK:   -0.40 KCAL/MOL
REMARK 927      BINDING AFFINITY PREDICTED BY RF-SCORE:    0.00 PKD
ROOT
HETATM    1  N   UNL     1     -12.324  13.793  63.691  1.00  0.00    -0.934 NA 
HETATM    2  H2  UNL     1     -11.657  14.535  63.900  1.00  0.00     0.000 HD 
HETATM    3  H1  UNL     1     -12.140  13.379  62.777  1.00  0.00     0.000 HD 
HETATM    4  C   UNL     1     -12.353  12.799  64.755  1.00  0.00    -0.478 C  
ENDROOT
BRANCH   4   5
HETATM    5  C   UNL     1     -12.630  13.419  66.125  1.00  0.00    -0.294 C  
BRANCH   5   6
HETATM    6  C   UNL     1     -11.386  13.529  67.018  1.00  0.00    -0.348 C  
BRANCH   6   7
HETATM    7  C   UNL     1     -10.931  14.970  67.417  1.00  0.00    -0.315 C  
HETATM    8  O   UNL     1     -11.981  15.894  66.948  1.00  0.00     0.546 OA 
HETATM    9  P   UNL     1     -10.943  15.062  69.245  1.00  0.00    -0.291 P  
HETATM   10  P   UNL     1      -9.337  15.608  66.784  1.00  0.00    -0.289 P  
HETATM   11  H   UNL     1     -11.705  16.770  67.191  1.00  0.00     0.000 HD 
HETATM   12  O   UNL     1      -7.988  16.148  66.248  1.00  0.00    -0.271 OA 
HETATM   13  O   UNL     1      -9.868  15.460  65.236  1.00  0.00    -0.302 OA 
HETATM   14  O   UNL     1      -8.694  14.101  66.929  1.00  0.00    -0.215 OA 
HETATM   15  O   UNL     1     -10.952  15.141  70.791  1.00  0.00    -0.283 OA 
HETATM   16  O   UNL     1     -10.652  16.680  69.077  1.00  0.00    -0.298 OA 
HETATM   17  O   UNL     1     -12.592  15.245  69.224  1.00  0.00    -0.040 OA 
ENDBRANCH   6   7
ENDBRANCH   5   6
ENDBRANCH   4   5
TORSDOF 3
ENDMDL
MODEL      112
REMARK 921   NORMALIZED FREE ENERGY PREDICTED BY IDOCK:   -3.29 KCAL/MOL
REMARK 922        TOTAL FREE ENERGY PREDICTED BY IDOCK:   -4.21 KCAL/MOL
REMARK 923 INTER-LIGAND FREE ENERGY PREDICTED BY IDOCK:   -3.59 KCAL/MOL
REMARK 924 INTRA-LIGAND FREE ENERGY PREDICTED BY IDOCK:   -0.61 KCAL/MOL
REMARK 927      BINDING AFFINITY PREDICTED BY RF-SCORE:    0.00 PKD
ROOT
HETATM    1  N   UNL     1     -11.689   4.845  73.464  1.00  0.00    -0.403 NA 
HETATM    2  H2  UNL     1     -12.283   4.646  72.660  1.00  0.00     0.000 HD 
HETATM    3  H1  UNL     1     -12.113   4.509  74.329  1.00  0.00     0.000 HD 
HETATM    4  C   UNL     1     -10.345   4.322  73.265  1.00  0.00    -0.167 C  
ENDROOT
BRANCH   4   5
HETATM    5  C   UNL     1      -9.708   4.826  71.970  1.00  0.00    -0.217 C  
BRANCH   5   6
HETATM    6  C   UNL     1     -10.712   5.433  70.981  1.00  0.00    -0.239 C  
BRANCH   6   7
HETATM    7  C   UNL     1     -10.522   6.941  70.620  1.00  0.00    -0.210 C  
HETATM    8  O   UNL     1      -9.131   7.290  70.967  1.00  0.00    -0.152 OA 
HETATM    9  P   UNL     1     -10.653   7.092  68.801  1.00  0.00    -0.169 P  
HETATM   10  P   UNL     1     -11.599   8.189  71.415  1.00  0.00    -0.298 P  
HETATM   11  H   UNL     1      -9.015   8.207  70.747  1.00  0.00     0.000 HD 
HETATM   12  O   UNL     1     -12.510   9.246  72.087  1.00  0.00    -0.370 OA 
HETATM   13  O   UNL     1     -11.037   7.762  72.898  1.00  0.00    -0.368 OA 
HETATM   14  O   UNL     1     -12.852   7.126  71.352  1.00  0.00    -0.376 OA 
HETATM   15  O   UNL     1     -10.764   7.219  67.262  1.00  0.00    -0.297 OA 
HETATM   16  O   UNL     1     -10.181   8.664  68.985  1.00  0.00    -0.198 OA 
HETATM   17  O   UNL     1      -9.099   6.529  68.644  1.00  0.00    -0.130 OA 
ENDBRANCH   6   7
ENDBRANCH   5   6
ENDBRANCH   4   5
TORSDOF 3
ENDMDL
MODEL      113
REMARK 921   NORMALIZED FREE ENERGY PREDICTED BY IDOCK:   -3.28 KCAL/MOL
REMARK 922        TOTAL FREE ENERGY PREDICTED BY IDOCK:   -4.20 KCAL/MOL
REMARK 923 INTER-LIGAND FREE ENERGY PREDICTED BY IDOCK:   -3.89 KCAL/MOL
REMARK 924 INTRA-LIGAND FREE ENERGY PREDICTED BY IDOCK:   -0.31 KCAL/MOL
REMARK 927      BINDING AFFINITY PREDICTED BY RF-SCORE:    0.00 PKD
ROOT
HETATM    1  N   UNL     1      -9.638  16.703  68.738  1.00  0.00    -0.246 NA 
HETATM    2  H2  UNL     1      -9.882  16.244  67.862  1.00  0.00     0.000 HD 
HETATM    3  H1  UNL     1      -9.456  17.697  68.595  1.00  0.00     0.000 HD 
HETATM    4  C   UNL     1     -10.651  16.465  69.756  1.00  0.00    -0.288 C  
ENDROOT
BRANCH   4   5
HETATM    5  C   UNL     1     -10.923  14.976  69.971  1.00  0.00    -0.268 C  
BRANCH   5   6
HETATM    6  C   UNL     1     -10.276  14.069  68.915  1.00  0.00    -0.159 C  
BRANCH   6   7
HETATM    7  C   UNL     1     -11.241  13.195  68.051  1.00  0.00    -0.277 C  
HETATM    8  O   UNL     1     -12.609  13.680  68.316  1.00  0.00    -0.177 OA 
HETATM    9  P   UNL     1     -10.893  13.568  66.293  1.00  0.00    -0.294 P  
HETATM   10  P   UNL     1     -11.261  11.382  68.297  1.00  0.00    -0.320 P  
HETATM   11  H   UNL     1     -13.195  13.149  67.790  1.00  0.00     0.000 HD 
HETATM   12  O   UNL     1     -11.278   9.847  68.505  1.00  0.00    -0.181 OA 
HETATM   13  O   UNL     1     -11.727  11.577  69.860  1.00  0.00    -0.302 OA 
HETATM   14  O   UNL     1      -9.637  11.414  68.557  1.00  0.00    -0.185 OA 
HETATM   15  O   UNL     1     -10.599  13.884  64.806  1.00  0.00    -0.391 OA 
HETATM   16  O   UNL     1     -12.217  12.650  65.927  1.00  0.00    -0.548 OA 
HETATM   17  O   UNL     1     -11.767  14.974  66.421  1.00  0.00    -0.256 OA 
ENDBRANCH   6   7
ENDBRANCH   5   6
ENDBRANCH   4   5
TORSDOF 3
ENDMDL
MODEL      114
REMARK 921   NORMALIZED FREE ENERGY PREDICTED BY IDOCK:   -3.25 KCAL/MOL
REMARK 922        TOTAL FREE ENERGY PREDICTED BY IDOCK:   -4.16 KCAL/MOL
REMARK 923 INTER-LIGAND FREE ENERGY PREDICTED BY IDOCK:   -4.46 KCAL/MOL
REMARK 924 INTRA-LIGAND FREE ENERGY PREDICTED BY IDOCK:    0.30 KCAL/MOL
REMARK 927      BINDING AFFINITY PREDICTED BY RF-SCORE:    0.00 PKD
ROOT
HETATM    1  N   UNL     1      -5.949  20.510  63.659  1.00  0.00    -0.270 NA 
HETATM    2  H2  UNL     1      -5.364  21.093  64.257  1.00  0.00     0.000 HD 
HETATM    3  H1  UNL     1      -5.946  20.848  62.697  1.00  0.00     0.000 HD 
HETATM    4  C   UNL     1      -5.566  19.109  63.757  1.00  0.00    -0.283 C  
ENDROOT
BRANCH   4   5
HETATM    5  C   UNL     1      -5.571  18.601  65.199  1.00  0.00    -0.259 C  
BRANCH   5   6
HETATM    6  C   UNL     1      -6.970  18.258  65.730  1.00  0.00    -0.284 C  
BRANCH   6   7
HETATM    7  C   UNL     1      -7.665  19.332  66.627  1.00  0.00    -0.255 C  
HETATM    8  O   UNL     1      -8.010  20.465  65.747  1.00  0.00    -0.543 OA 
HETATM    9  P   UNL     1      -9.252  18.624  67.202  1.00  0.00    -0.302 P  
HETATM   10  P   UNL     1      -6.753  20.025  68.055  1.00  0.00    -0.298 P  
HETATM   11  H   UNL     1      -8.433  21.117  66.293  1.00  0.00     0.000 HD 
HETATM   12  O   UNL     1      -5.981  20.611  69.263  1.00  0.00    -0.354 OA 
HETATM   13  O   UNL     1      -5.590  20.614  67.055  1.00  0.00    -0.167 OA 
HETATM   14  O   UNL     1      -6.074  18.550  68.318  1.00  0.00    -0.196 OA 
HETATM   15  O   UNL     1     -10.593  18.025  67.689  1.00  0.00    -0.400 OA 
HETATM   16  O   UNL     1      -9.594  20.118  67.818  1.00  0.00    -0.366 OA 
HETATM   17  O   UNL     1      -9.932  18.955  65.725  1.00  0.00    -0.483 OA 
ENDBRANCH   6   7
ENDBRANCH   5   6
ENDBRANCH   4   5
TORSDOF 3
ENDMDL
MODEL      115
REMARK 921   NORMALIZED FREE ENERGY PREDICTED BY IDOCK:   -3.24 KCAL/MOL
REMARK 922        TOTAL FREE ENERGY PREDICTED BY IDOCK:   -4.15 KCAL/MOL
REMARK 923 INTER-LIGAND FREE ENERGY PREDICTED BY IDOCK:   -3.69 KCAL/MOL
REMARK 924 INTRA-LIGAND FREE ENERGY PREDICTED BY IDOCK:   -0.46 KCAL/MOL
REMARK 927      BINDING AFFINITY PREDICTED BY RF-SCORE:    0.00 PKD
ROOT
HETATM    1  N   UNL     1     -13.600   7.435  71.960  1.00  0.00    -0.539 NA 
HETATM    2  H2  UNL     1     -13.364   7.299  72.943  1.00  0.00     0.000 HD 
HETATM    3  H1  UNL     1     -14.580   7.214  71.783  1.00  0.00     0.000 HD 
HETATM    4  C   UNL     1     -13.244   8.775  71.516  1.00  0.00    -0.314 C  
ENDROOT
BRANCH   4   5
HETATM    5  C   UNL     1     -11.776   9.106  71.781  1.00  0.00    -0.456 C  
BRANCH   5   6
HETATM    6  C   UNL     1     -10.920   9.190  70.510  1.00  0.00    -0.307 C  
BRANCH   6   7
HETATM    7  C   UNL     1      -9.894   8.035  70.275  1.00  0.00    -0.184 C  
HETATM    8  O   UNL     1      -9.979   7.143  71.447  1.00  0.00    -0.187 OA 
HETATM    9  P   UNL     1     -10.482   7.060  68.841  1.00  0.00    -0.196 P  
HETATM   10  P   UNL     1      -8.126   8.448  70.047  1.00  0.00    -0.123 P  
HETATM   11  H   UNL     1      -9.356   6.441  71.304  1.00  0.00     0.000 HD 
HETATM   12  O   UNL     1      -6.629   8.797  69.854  1.00  0.00    -0.040 OA 
HETATM   13  O   UNL     1      -8.068   9.124  71.543  1.00  0.00    -0.337 OA 
HETATM   14  O   UNL     1      -8.564   9.802  69.223  1.00  0.00    -0.134 OA 
HETATM   15  O   UNL     1     -10.980   6.236  67.629  1.00  0.00    -0.314 OA 
HETATM   16  O   UNL     1      -9.280   5.983  69.192  1.00  0.00    -0.125 OA 
HETATM   17  O   UNL     1     -11.594   6.304  69.815  1.00  0.00    -0.436 OA 
ENDBRANCH   6   7
ENDBRANCH   5   6
ENDBRANCH   4   5
TORSDOF 3
ENDMDL
MODEL      116
REMARK 921   NORMALIZED FREE ENERGY PREDICTED BY IDOCK:   -3.21 KCAL/MOL
REMARK 922        TOTAL FREE ENERGY PREDICTED BY IDOCK:   -4.12 KCAL/MOL
REMARK 923 INTER-LIGAND FREE ENERGY PREDICTED BY IDOCK:   -3.60 KCAL/MOL
REMARK 924 INTRA-LIGAND FREE ENERGY PREDICTED BY IDOCK:   -0.52 KCAL/MOL
REMARK 927      BINDING AFFINITY PREDICTED BY RF-SCORE:    0.00 PKD
ROOT
HETATM    1  N   UNL     1      -8.365  11.688  65.710  1.00  0.00    -0.364 NA 
HETATM    2  H2  UNL     1      -7.587  11.257  66.210  1.00  0.00     0.000 HD 
HETATM    3  H1  UNL     1      -8.031  12.341  65.001  1.00  0.00     0.000 HD 
HETATM    4  C   UNL     1      -9.257  10.678  65.159  1.00  0.00    -0.207 C  
ENDROOT
BRANCH   4   5
HETATM    5  C   UNL     1      -9.758   9.699  66.221  1.00  0.00    -0.303 C  
BRANCH   5   6
HETATM    6  C   UNL     1      -9.451  10.136  67.660  1.00  0.00    -0.166 C  
BRANCH   6   7
HETATM    7  C   UNL     1     -10.644  10.709  68.492  1.00  0.00    -0.200 C  
HETATM    8  O   UNL     1     -11.881  10.200  67.870  1.00  0.00    -0.567 OA 
HETATM    9  P   UNL     1     -10.559   9.962  70.161  1.00  0.00    -0.305 P  
HETATM   10  P   UNL     1     -10.831  12.523  68.644  1.00  0.00    -0.222 P  
HETATM   11  H   UNL     1     -12.606  10.549  68.376  1.00  0.00     0.000 HD 
HETATM   12  O   UNL     1     -10.990  14.059  68.774  1.00  0.00    -0.246 OA 
HETATM   13  O   UNL     1     -10.998  12.665  67.016  1.00  0.00    -0.251 OA 
HETATM   14  O   UNL     1      -9.194  12.673  68.700  1.00  0.00    -0.106 OA 
HETATM   15  O   UNL     1     -10.488   9.330  71.572  1.00  0.00    -0.334 OA 
HETATM   16  O   UNL     1     -12.023  10.669  70.454  1.00  0.00    -0.286 OA 
HETATM   17  O   UNL     1     -11.230   8.565  69.566  1.00  0.00    -0.040 OA 
ENDBRANCH   6   7
ENDBRANCH   5   6
ENDBRANCH   4   5
TORSDOF 3
ENDMDL
MODEL      117
REMARK 921   NORMALIZED FREE ENERGY PREDICTED BY IDOCK:   -3.19 KCAL/MOL
REMARK 922        TOTAL FREE ENERGY PREDICTED BY IDOCK:   -4.09 KCAL/MOL
REMARK 923 INTER-LIGAND FREE ENERGY PREDICTED BY IDOCK:   -3.41 KCAL/MOL
REMARK 924 INTRA-LIGAND FREE ENERGY PREDICTED BY IDOCK:   -0.68 KCAL/MOL
REMARK 927      BINDING AFFINITY PREDICTED BY RF-SCORE:    0.00 PKD
ROOT
HETATM    1  N   UNL     1      -7.064   8.735  72.371  1.00  0.00    -0.314 NA 
HETATM    2  H2  UNL     1      -7.486   9.662  72.335  1.00  0.00     0.000 HD 
HETATM    3  H1  UNL     1      -6.049   8.788  72.290  1.00  0.00     0.000 HD 
HETATM    4  C   UNL     1      -7.488   8.011  73.561  1.00  0.00    -0.148 C  
ENDROOT
BRANCH   4   5
HETATM    5  C   UNL     1      -9.010   7.930  73.683  1.00  0.00    -0.337 C  
BRANCH   5   6
HETATM    6  C   UNL     1      -9.657   6.929  72.716  1.00  0.00    -0.166 C  
BRANCH   6   7
HETATM    7  C   UNL     1     -10.413   7.525  71.486  1.00  0.00    -0.204 C  
HETATM    8  O   UNL     1     -10.036   8.949  71.403  1.00  0.00    -0.251 OA 
HETATM    9  P   UNL     1      -9.739   6.724  69.985  1.00  0.00    -0.161 P  
HETATM   10  P   UNL     1     -12.242   7.455  71.446  1.00  0.00    -0.357 P  
HETATM   11  H   UNL     1     -10.496   9.312  70.655  1.00  0.00     0.000 HD 
HETATM   12  O   UNL     1     -13.789   7.396  71.413  1.00  0.00    -0.393 OA 
HETATM   13  O   UNL     1     -12.328   8.363  72.813  1.00  0.00    -0.319 OA 
HETATM   14  O   UNL     1     -12.186   5.983  72.178  1.00  0.00    -0.288 OA 
HETATM   15  O   UNL     1      -9.169   6.047  68.715  1.00  0.00    -0.123 OA 
HETATM   16  O   UNL     1     -10.637   7.803  69.113  1.00  0.00    -0.222 OA 
HETATM   17  O   UNL     1      -8.412   7.718  70.053  1.00  0.00    -0.131 OA 
ENDBRANCH   6   7
ENDBRANCH   5   6
ENDBRANCH   4   5
TORSDOF 3
ENDMDL
MODEL      118
REMARK 921   NORMALIZED FREE ENERGY PREDICTED BY IDOCK:   -3.18 KCAL/MOL
REMARK 922        TOTAL FREE ENERGY PREDICTED BY IDOCK:   -4.08 KCAL/MOL
REMARK 923 INTER-LIGAND FREE ENERGY PREDICTED BY IDOCK:   -4.08 KCAL/MOL
REMARK 924 INTRA-LIGAND FREE ENERGY PREDICTED BY IDOCK:   -0.00 KCAL/MOL
REMARK 927      BINDING AFFINITY PREDICTED BY RF-SCORE:    0.00 PKD
ROOT
HETATM    1  N   UNL     1      -7.386  11.439  69.661  1.00  0.00    -0.359 NA 
HETATM    2  H2  UNL     1      -7.818  10.547  69.422  1.00  0.00     0.000 HD 
HETATM    3  H1  UNL     1      -6.550  11.303  70.229  1.00  0.00     0.000 HD 
HETATM    4  C   UNL     1      -7.124  12.232  68.468  1.00  0.00    -0.099 C  
ENDROOT
BRANCH   4   5
HETATM    5  C   UNL     1      -8.377  12.437  67.617  1.00  0.00    -0.169 C  
BRANCH   5   6
HETATM    6  C   UNL     1      -8.504  13.850  67.032  1.00  0.00    -0.153 C  
BRANCH   6   7
HETATM    7  C   UNL     1      -9.952  14.392  66.806  1.00  0.00    -0.263 C  
HETATM    8  O   UNL     1     -10.059  14.741  65.377  1.00  0.00    -0.350 OA 
HETATM    9  P   UNL     1     -11.109  13.001  67.086  1.00  0.00    -0.297 P  
HETATM   10  P   UNL     1     -10.514  15.852  67.755  1.00  0.00    -0.299 P  
HETATM   11  H   UNL     1     -10.940  15.070  65.240  1.00  0.00     0.000 HD 
HETATM   12  O   UNL     1     -10.989  17.089  68.559  1.00  0.00    -0.335 OA 
HETATM   13  O   UNL     1      -9.326  16.770  67.088  1.00  0.00    -0.223 OA 
HETATM   14  O   UNL     1      -9.659  15.318  69.055  1.00  0.00    -0.212 OA 
HETATM   15  O   UNL     1     -12.086  11.825  67.322  1.00  0.00    -0.595 OA 
HETATM   16  O   UNL     1     -12.303  13.998  66.531  1.00  0.00    -0.457 OA 
HETATM   17  O   UNL     1     -10.754  12.406  65.577  1.00  0.00    -0.266 OA 
ENDBRANCH   6   7
ENDBRANCH   5   6
ENDBRANCH   4   5
TORSDOF 3
ENDMDL
MODEL      119
REMARK 921   NORMALIZED FREE ENERGY PREDICTED BY IDOCK:   -3.16 KCAL/MOL
REMARK 922        TOTAL FREE ENERGY PREDICTED BY IDOCK:   -4.06 KCAL/MOL
REMARK 923 INTER-LIGAND FREE ENERGY PREDICTED BY IDOCK:   -4.02 KCAL/MOL
REMARK 924 INTRA-LIGAND FREE ENERGY PREDICTED BY IDOCK:   -0.04 KCAL/MOL
REMARK 927      BINDING AFFINITY PREDICTED BY RF-SCORE:    0.00 PKD
ROOT
HETATM    1  N   UNL     1      -8.923  10.344  63.329  1.00  0.00    -0.207 NA 
HETATM    2  H2  UNL     1      -7.974  10.620  63.581  1.00  0.00     0.000 HD 
HETATM    3  H1  UNL     1      -8.922   9.495  62.764  1.00  0.00     0.000 HD 
HETATM    4  C   UNL     1      -9.765  10.224  64.510  1.00  0.00    -0.329 C  
ENDROOT
BRANCH   4   5
HETATM    5  C   UNL     1      -9.767  11.497  65.357  1.00  0.00    -0.262 C  
BRANCH   5   6
HETATM    6  C   UNL     1      -9.345  11.271  66.816  1.00  0.00    -0.191 C  
BRANCH   6   7
HETATM    7  C   UNL     1     -10.005  12.194  67.890  1.00  0.00    -0.200 C  
HETATM    8  O   UNL     1      -8.918  12.678  68.763  1.00  0.00    -0.387 OA 
HETATM    9  P   UNL     1     -10.662  13.666  67.022  1.00  0.00    -0.280 P  
HETATM   10  P   UNL     1     -11.300  11.503  68.984  1.00  0.00    -0.334 P  
HETATM   11  H   UNL     1      -9.320  13.239  69.416  1.00  0.00     0.000 HD 
HETATM   12  O   UNL     1     -12.395  10.918  69.909  1.00  0.00    -0.326 OA 
HETATM   13  O   UNL     1     -10.237  10.403  69.583  1.00  0.00    -0.232 OA 
HETATM   14  O   UNL     1     -11.854  10.595  67.729  1.00  0.00    -0.460 OA 
HETATM   15  O   UNL     1     -11.218  14.910  66.287  1.00  0.00    -0.340 OA 
HETATM   16  O   UNL     1     -10.975  14.298  68.516  1.00  0.00    -0.236 OA 
HETATM   17  O   UNL     1      -9.132  14.305  66.951  1.00  0.00    -0.234 OA 
ENDBRANCH   6   7
ENDBRANCH   5   6
ENDBRANCH   4   5
TORSDOF 3
ENDMDL
MODEL      120
REMARK 921   NORMALIZED FREE ENERGY PREDICTED BY IDOCK:   -3.16 KCAL/MOL
REMARK 922        TOTAL FREE ENERGY PREDICTED BY IDOCK:   -4.05 KCAL/MOL
REMARK 923 INTER-LIGAND FREE ENERGY PREDICTED BY IDOCK:   -3.77 KCAL/MOL
REMARK 924 INTRA-LIGAND FREE ENERGY PREDICTED BY IDOCK:   -0.29 KCAL/MOL
REMARK 927      BINDING AFFINITY PREDICTED BY RF-SCORE:    0.00 PKD
ROOT
HETATM    1  N   UNL     1      -6.651  13.263  67.182  1.00  0.00    -0.459 NA 
HETATM    2  H2  UNL     1      -7.450  13.837  67.452  1.00  0.00     0.000 HD 
HETATM    3  H1  UNL     1      -5.773  13.757  67.337  1.00  0.00     0.000 HD 
HETATM    4  C   UNL     1      -6.686  11.970  67.850  1.00  0.00    -0.080 C  
ENDROOT
BRANCH   4   5
HETATM    5  C   UNL     1      -8.002  11.228  67.618  1.00  0.00    -0.118 C  
BRANCH   5   6
HETATM    6  C   UNL     1      -8.918  11.899  66.584  1.00  0.00    -0.198 C  
BRANCH   6   7
HETATM    7  C   UNL     1     -10.419  12.072  66.981  1.00  0.00    -0.221 C  
HETATM    8  O   UNL     1     -11.220  11.575  65.845  1.00  0.00    -0.274 OA 
HETATM    9  P   UNL     1     -10.752  10.939  68.380  1.00  0.00    -0.246 P  
HETATM   10  P   UNL     1     -11.047  13.742  67.386  1.00  0.00    -0.318 P  
HETATM   11  H   UNL     1     -12.133  11.680  66.087  1.00  0.00     0.000 HD 
HETATM   12  O   UNL     1     -11.577  15.157  67.728  1.00  0.00    -0.332 OA 
HETATM   13  O   UNL     1     -10.669  14.274  65.878  1.00  0.00    -0.291 OA 
HETATM   14  O   UNL     1      -9.606  14.094  68.097  1.00  0.00    -0.205 OA 
HETATM   15  O   UNL     1     -11.033   9.982  69.563  1.00  0.00    -0.232 OA 
HETATM   16  O   UNL     1     -12.345  11.340  68.211  1.00  0.00    -0.542 OA 
HETATM   17  O   UNL     1     -10.847   9.664  67.322  1.00  0.00    -0.254 OA 
ENDBRANCH   6   7
ENDBRANCH   5   6
ENDBRANCH   4   5
TORSDOF 3
ENDMDL
MODEL      121
REMARK 921   NORMALIZED FREE ENERGY PREDICTED BY IDOCK:   -3.16 KCAL/MOL
REMARK 922        TOTAL FREE ENERGY PREDICTED BY IDOCK:   -4.05 KCAL/MOL
REMARK 923 INTER-LIGAND FREE ENERGY PREDICTED BY IDOCK:   -4.34 KCAL/MOL
REMARK 924 INTRA-LIGAND FREE ENERGY PREDICTED BY IDOCK:    0.28 KCAL/MOL
REMARK 927      BINDING AFFINITY PREDICTED BY RF-SCORE:    0.00 PKD
ROOT
HETATM    1  N   UNL     1      -9.163  16.949  67.930  1.00  0.00    -0.230 NA 
HETATM    2  H2  UNL     1      -9.896  16.354  68.316  1.00  0.00     0.000 HD 
HETATM    3  H1  UNL     1      -8.688  17.472  68.664  1.00  0.00     0.000 HD 
HETATM    4  C   UNL     1      -8.239  16.177  67.111  1.00  0.00    -0.196 C  
ENDROOT
BRANCH   4   5
HETATM    5  C   UNL     1      -8.951  15.392  66.009  1.00  0.00    -0.201 C  
BRANCH   5   6
HETATM    6  C   UNL     1      -9.256  13.935  66.384  1.00  0.00    -0.174 C  
BRANCH   6   7
HETATM    7  C   UNL     1     -10.214  13.148  65.433  1.00  0.00    -0.290 C  
HETATM    8  O   UNL     1      -9.684  13.310  64.065  1.00  0.00    -0.673 OA 
HETATM    9  P   UNL     1     -10.056  11.371  65.841  1.00  0.00    -0.265 P  
HETATM   10  P   UNL     1     -11.985  13.606  65.377  1.00  0.00    -0.435 P  
HETATM   11  H   UNL     1     -10.267  12.831  63.487  1.00  0.00     0.000 HD 
HETATM   12  O   UNL     1     -13.484  13.994  65.329  1.00  0.00    -0.622 OA 
HETATM   13  O   UNL     1     -11.600  15.120  64.866  1.00  0.00    -0.376 OA 
HETATM   14  O   UNL     1     -11.941  13.914  66.992  1.00  0.00    -0.391 OA 
HETATM   15  O   UNL     1      -9.923   9.868  66.186  1.00  0.00    -0.236 OA 
HETATM   16  O   UNL     1     -10.995  11.074  64.514  1.00  0.00    -0.270 OA 
HETATM   17  O   UNL     1      -8.635  11.303  64.986  1.00  0.00     0.021 OA 
ENDBRANCH   6   7
ENDBRANCH   5   6
ENDBRANCH   4   5
TORSDOF 3
ENDMDL
MODEL      122
REMARK 921   NORMALIZED FREE ENERGY PREDICTED BY IDOCK:   -3.15 KCAL/MOL
REMARK 922        TOTAL FREE ENERGY PREDICTED BY IDOCK:   -4.05 KCAL/MOL
REMARK 923 INTER-LIGAND FREE ENERGY PREDICTED BY IDOCK:   -3.54 KCAL/MOL
REMARK 924 INTRA-LIGAND FREE ENERGY PREDICTED BY IDOCK:   -0.51 KCAL/MOL
REMARK 927      BINDING AFFINITY PREDICTED BY RF-SCORE:    0.00 PKD
ROOT
HETATM    1  N   UNL     1      -7.987   9.216  62.509  1.00  0.00    -0.122 NA 
HETATM    2  H2  UNL     1      -7.130   9.755  62.635  1.00  0.00     0.000 HD 
HETATM    3  H1  UNL     1      -7.983   8.722  61.616  1.00  0.00     0.000 HD 
HETATM    4  C   UNL     1      -8.216   8.324  63.636  1.00  0.00    -0.082 C  
ENDROOT
BRANCH   4   5
HETATM    5  C   UNL     1      -8.221   9.065  64.974  1.00  0.00    -0.154 C  
BRANCH   5   6
HETATM    6  C   UNL     1      -9.605   9.587  65.387  1.00  0.00    -0.342 C  
BRANCH   6   7
HETATM    7  C   UNL     1      -9.749  11.132  65.568  1.00  0.00    -0.228 C  
HETATM    8  O   UNL     1      -8.428  11.721  65.274  1.00  0.00    -0.206 OA 
HETATM    9  P   UNL     1     -10.884  11.734  64.263  1.00  0.00    -0.395 P  
HETATM   10  P   UNL     1     -10.278  11.793  67.190  1.00  0.00    -0.221 P  
HETATM   11  H   UNL     1      -8.516  12.660  65.383  1.00  0.00     0.000 HD 
HETATM   12  O   UNL     1     -10.727  12.353  68.563  1.00  0.00    -0.225 OA 
HETATM   13  O   UNL     1      -8.957  11.138  67.913  1.00  0.00    -0.136 OA 
HETATM   14  O   UNL     1     -11.279  10.501  67.373  1.00  0.00    -0.313 OA 
HETATM   15  O   UNL     1     -11.843  12.242  63.161  1.00  0.00    -0.389 OA 
HETATM   16  O   UNL     1     -10.495  13.262  64.754  1.00  0.00    -0.348 OA 
HETATM   17  O   UNL     1      -9.649  11.657  63.157  1.00  0.00    -0.375 OA 
ENDBRANCH   6   7
ENDBRANCH   5   6
ENDBRANCH   4   5
TORSDOF 3
ENDMDL
MODEL      123
REMARK 921   NORMALIZED FREE ENERGY PREDICTED BY IDOCK:   -3.15 KCAL/MOL
REMARK 922        TOTAL FREE ENERGY PREDICTED BY IDOCK:   -4.05 KCAL/MOL
REMARK 923 INTER-LIGAND FREE ENERGY PREDICTED BY IDOCK:   -3.46 KCAL/MOL
REMARK 924 INTRA-LIGAND FREE ENERGY PREDICTED BY IDOCK:   -0.59 KCAL/MOL
REMARK 927      BINDING AFFINITY PREDICTED BY RF-SCORE:    0.00 PKD
ROOT
HETATM    1  N   UNL     1      -6.753  16.610  68.693  1.00  0.00    -0.155 NA 
HETATM    2  H2  UNL     1      -6.543  15.973  67.925  1.00  0.00     0.000 HD 
HETATM    3  H1  UNL     1      -5.976  16.663  69.351  1.00  0.00     0.000 HD 
HETATM    4  C   UNL     1      -7.150  17.919  68.196  1.00  0.00    -0.224 C  
ENDROOT
BRANCH   4   5
HETATM    5  C   UNL     1      -8.315  17.840  67.210  1.00  0.00    -0.228 C  
BRANCH   5   6
HETATM    6  C   UNL     1      -8.548  16.436  66.635  1.00  0.00    -0.295 C  
BRANCH   6   7
HETATM    7  C   UNL     1      -9.941  15.785  66.910  1.00  0.00    -0.243 C  
HETATM    8  O   UNL     1     -10.900  16.891  67.096  1.00  0.00    -0.227 OA 
HETATM    9  P   UNL     1     -10.450  14.913  65.382  1.00  0.00    -0.428 P  
HETATM   10  P   UNL     1     -10.133  14.664  68.344  1.00  0.00    -0.246 P  
HETATM   11  H   UNL     1     -11.747  16.494  67.263  1.00  0.00     0.000 HD 
HETATM   12  O   UNL     1     -10.296  13.716  69.558  1.00  0.00     0.181 OA 
HETATM   13  O   UNL     1      -9.728  15.878  69.374  1.00  0.00    -0.248 OA 
HETATM   14  O   UNL     1      -8.612  14.095  68.084  1.00  0.00    -0.159 OA 
HETATM   15  O   UNL     1     -10.881  14.177  64.091  1.00  0.00    -0.153 OA 
HETATM   16  O   UNL     1     -11.912  14.671  66.114  1.00  0.00    -0.338 OA 
HETATM   17  O   UNL     1     -10.904  16.362  64.710  1.00  0.00    -0.697 OA 
ENDBRANCH   6   7
ENDBRANCH   5   6
ENDBRANCH   4   5
TORSDOF 3
ENDMDL
MODEL      124
REMARK 921   NORMALIZED FREE ENERGY PREDICTED BY IDOCK:   -3.14 KCAL/MOL
REMARK 922        TOTAL FREE ENERGY PREDICTED BY IDOCK:   -4.03 KCAL/MOL
REMARK 923 INTER-LIGAND FREE ENERGY PREDICTED BY IDOCK:   -3.79 KCAL/MOL
REMARK 924 INTRA-LIGAND FREE ENERGY PREDICTED BY IDOCK:   -0.24 KCAL/MOL
REMARK 927      BINDING AFFINITY PREDICTED BY RF-SCORE:    0.00 PKD
ROOT
HETATM    1  N   UNL     1     -11.302  16.407  63.727  1.00  0.00    -1.362 NA 
HETATM    2  H2  UNL     1     -11.919  15.598  63.657  1.00  0.00     0.000 HD 
HETATM    3  H1  UNL     1     -11.587  17.144  63.082  1.00  0.00     0.000 HD 
HETATM    4  C   UNL     1     -11.208  16.877  65.101  1.00  0.00     0.157 C  
ENDROOT
BRANCH   4   5
HETATM    5  C   UNL     1     -10.780  15.772  66.068  1.00  0.00    -0.311 C  
BRANCH   5   6
HETATM    6  C   UNL     1     -10.080  16.290  67.331  1.00  0.00    -0.260 C  
BRANCH   6   7
HETATM    7  C   UNL     1      -8.532  16.091  67.411  1.00  0.00    -0.168 C  
HETATM    8  O   UNL     1      -8.110  15.514  66.120  1.00  0.00    -0.244 OA 
HETATM    9  P   UNL     1      -7.769  17.752  67.507  1.00  0.00    -0.211 P  
HETATM   10  P   UNL     1      -7.838  15.024  68.725  1.00  0.00    -0.173 P  
HETATM   11  H   UNL     1      -7.168  15.393  66.169  1.00  0.00     0.000 HD 
HETATM   12  O   UNL     1      -7.250  14.121  69.838  1.00  0.00     0.069 OA 
HETATM   13  O   UNL     1      -8.667  13.731  68.144  1.00  0.00    -0.170 OA 
HETATM   14  O   UNL     1      -8.997  15.569  69.758  1.00  0.00    -0.240 OA 
HETATM   15  O   UNL     1      -7.124  19.157  67.588  1.00  0.00    -0.222 OA 
HETATM   16  O   UNL     1      -6.310  16.995  67.340  1.00  0.00    -0.129 OA 
HETATM   17  O   UNL     1      -7.981  17.942  65.871  1.00  0.00    -0.523 OA 
ENDBRANCH   6   7
ENDBRANCH   5   6
ENDBRANCH   4   5
TORSDOF 3
ENDMDL
MODEL      125
REMARK 921   NORMALIZED FREE ENERGY PREDICTED BY IDOCK:   -3.12 KCAL/MOL
REMARK 922        TOTAL FREE ENERGY PREDICTED BY IDOCK:   -4.01 KCAL/MOL
REMARK 923 INTER-LIGAND FREE ENERGY PREDICTED BY IDOCK:   -4.05 KCAL/MOL
REMARK 924 INTRA-LIGAND FREE ENERGY PREDICTED BY IDOCK:    0.04 KCAL/MOL
REMARK 927      BINDING AFFINITY PREDICTED BY RF-SCORE:    0.00 PKD
ROOT
HETATM    1  N   UNL     1     -11.245   6.778  67.726  1.00  0.00    -0.581 NA 
HETATM    2  H2  UNL     1     -11.066   7.668  68.192  1.00  0.00     0.000 HD 
HETATM    3  H1  UNL     1     -11.136   6.864  66.715  1.00  0.00     0.000 HD 
HETATM    4  C   UNL     1     -10.418   5.718  68.285  1.00  0.00    -0.220 C  
ENDROOT
BRANCH   4   5
HETATM    5  C   UNL     1     -10.581   5.589  69.800  1.00  0.00    -0.388 C  
BRANCH   5   6
HETATM    6  C   UNL     1     -11.084   6.870  70.480  1.00  0.00    -0.332 C  
BRANCH   6   7
HETATM    7  C   UNL     1     -10.767   7.030  72.002  1.00  0.00    -0.215 C  
HETATM    8  O   UNL     1     -11.930   7.702  72.612  1.00  0.00    -0.534 OA 
HETATM    9  P   UNL     1     -10.700   5.351  72.729  1.00  0.00    -0.284 P  
HETATM   10  P   UNL     1      -9.282   7.973  72.507  1.00  0.00    -0.269 P  
HETATM   11  H   UNL     1     -11.737   7.798  73.537  1.00  0.00     0.000 HD 
HETATM   12  O   UNL     1      -8.025   8.770  72.935  1.00  0.00    -0.391 OA 
HETATM   13  O   UNL     1      -9.866   9.325  71.782  1.00  0.00    -0.252 OA 
HETATM   14  O   UNL     1      -8.475   7.370  71.206  1.00  0.00    -0.113 OA 
HETATM   15  O   UNL     1     -10.644   3.932  73.343  1.00  0.00    -0.162 OA 
HETATM   16  O   UNL     1     -10.592   6.090  74.203  1.00  0.00    -0.260 OA 
HETATM   17  O   UNL     1     -12.359   5.299  72.754  1.00  0.00    -0.045 OA 
ENDBRANCH   6   7
ENDBRANCH   5   6
ENDBRANCH   4   5
TORSDOF 3
ENDMDL
MODEL      126
REMARK 921   NORMALIZED FREE ENERGY PREDICTED BY IDOCK:   -3.12 KCAL/MOL
REMARK 922        TOTAL FREE ENERGY PREDICTED BY IDOCK:   -4.01 KCAL/MOL
REMARK 923 INTER-LIGAND FREE ENERGY PREDICTED BY IDOCK:   -3.97 KCAL/MOL
REMARK 924 INTRA-LIGAND FREE ENERGY PREDICTED BY IDOCK:   -0.04 KCAL/MOL
REMARK 927      BINDING AFFINITY PREDICTED BY RF-SCORE:    0.00 PKD
ROOT
HETATM    1  N   UNL     1      -8.919  12.719  66.268  1.00  0.00    -0.437 NA 
HETATM    2  H2  UNL     1      -8.614  12.258  67.125  1.00  0.00     0.000 HD 
HETATM    3  H1  UNL     1      -8.738  12.135  65.451  1.00  0.00     0.000 HD 
HETATM    4  C   UNL     1     -10.313  13.127  66.360  1.00  0.00    -0.287 C  
ENDROOT
BRANCH   4   5
HETATM    5  C   UNL     1     -10.585  14.002  67.584  1.00  0.00    -0.249 C  
BRANCH   5   6
HETATM    6  C   UNL     1     -10.877  15.470  67.243  1.00  0.00    -0.313 C  
BRANCH   6   7
HETATM    7  C   UNL     1      -9.852  16.530  67.762  1.00  0.00    -0.240 C  
HETATM    8  O   UNL     1     -10.586  17.415  68.687  1.00  0.00    -0.357 OA 
HETATM    9  P   UNL     1      -8.610  15.644  68.773  1.00  0.00    -0.227 P  
HETATM   10  P   UNL     1      -8.999  17.609  66.555  1.00  0.00    -0.211 P  
HETATM   11  H   UNL     1      -9.963  18.059  69.003  1.00  0.00     0.000 HD 
HETATM   12  O   UNL     1      -8.277  18.522  65.534  1.00  0.00    -0.232 OA 
HETATM   13  O   UNL     1     -10.437  18.229  66.060  1.00  0.00    -0.450 OA 
HETATM   14  O   UNL     1      -8.939  16.351  65.497  1.00  0.00    -0.352 OA 
HETATM   15  O   UNL     1      -7.559  14.895  69.628  1.00  0.00    -0.174 OA 
HETATM   16  O   UNL     1      -8.020  17.130  69.191  1.00  0.00    -0.179 OA 
HETATM   17  O   UNL     1      -9.681  15.591  70.040  1.00  0.00    -0.260 OA 
ENDBRANCH   6   7
ENDBRANCH   5   6
ENDBRANCH   4   5
TORSDOF 3
ENDMDL
MODEL      127
REMARK 921   NORMALIZED FREE ENERGY PREDICTED BY IDOCK:   -3.11 KCAL/MOL
REMARK 922        TOTAL FREE ENERGY PREDICTED BY IDOCK:   -4.00 KCAL/MOL
REMARK 923 INTER-LIGAND FREE ENERGY PREDICTED BY IDOCK:   -3.95 KCAL/MOL
REMARK 924 INTRA-LIGAND FREE ENERGY PREDICTED BY IDOCK:   -0.05 KCAL/MOL
REMARK 927      BINDING AFFINITY PREDICTED BY RF-SCORE:    0.00 PKD
ROOT
HETATM    1  N   UNL     1     -11.307  11.937  65.675  1.00  0.00    -0.313 NA 
HETATM    2  H2  UNL     1     -10.668  12.016  64.884  1.00  0.00     0.000 HD 
HETATM    3  H1  UNL     1     -11.901  11.113  65.587  1.00  0.00     0.000 HD 
HETATM    4  C   UNL     1     -10.583  11.966  66.938  1.00  0.00    -0.230 C  
ENDROOT
BRANCH   4   5
HETATM    5  C   UNL     1      -9.692  13.202  67.071  1.00  0.00    -0.241 C  
BRANCH   5   6
HETATM    6  C   UNL     1      -9.639  13.778  68.493  1.00  0.00    -0.176 C  
BRANCH   6   7
HETATM    7  C   UNL     1     -10.179  15.232  68.684  1.00  0.00    -0.223 C  
HETATM    8  O   UNL     1      -9.093  16.011  69.310  1.00  0.00    -0.246 OA 
HETATM    9  P   UNL     1     -10.431  15.947  67.018  1.00  0.00    -0.288 P  
HETATM   10  P   UNL     1     -11.679  15.498  69.696  1.00  0.00    -0.375 P  
HETATM   11  H   UNL     1      -9.422  16.895  69.426  1.00  0.00     0.000 HD 
HETATM   12  O   UNL     1     -12.950  15.724  70.553  1.00  0.00    -0.454 OA 
HETATM   13  O   UNL     1     -10.930  14.866  71.014  1.00  0.00    -0.165 OA 
HETATM   14  O   UNL     1     -12.303  14.092  69.115  1.00  0.00    -0.313 OA 
HETATM   15  O   UNL     1     -10.645  16.552  65.609  1.00  0.00    -0.364 OA 
HETATM   16  O   UNL     1     -10.731  17.384  67.777  1.00  0.00    -0.373 OA 
HETATM   17  O   UNL     1      -8.800  16.228  66.893  1.00  0.00    -0.189 OA 
ENDBRANCH   6   7
ENDBRANCH   5   6
ENDBRANCH   4   5
TORSDOF 3
ENDMDL
MODEL      128
REMARK 921   NORMALIZED FREE ENERGY PREDICTED BY IDOCK:   -3.11 KCAL/MOL
REMARK 922        TOTAL FREE ENERGY PREDICTED BY IDOCK:   -4.00 KCAL/MOL
REMARK 923 INTER-LIGAND FREE ENERGY PREDICTED BY IDOCK:   -3.85 KCAL/MOL
REMARK 924 INTRA-LIGAND FREE ENERGY PREDICTED BY IDOCK:   -0.15 KCAL/MOL
REMARK 927      BINDING AFFINITY PREDICTED BY RF-SCORE:    0.00 PKD
ROOT
HETATM    1  N   UNL     1     -11.152  14.956  70.812  1.00  0.00    -0.509 NA 
HETATM    2  H2  UNL     1     -11.014  15.863  70.368  1.00  0.00     0.000 HD 
HETATM    3  H1  UNL     1     -11.456  15.061  71.780  1.00  0.00     0.000 HD 
HETATM    4  C   UNL     1     -12.058  14.123  70.033  1.00  0.00    -0.346 C  
ENDROOT
BRANCH   4   5
HETATM    5  C   UNL     1     -11.602  13.964  68.583  1.00  0.00    -0.363 C  
BRANCH   5   6
HETATM    6  C   UNL     1     -10.437  12.981  68.404  1.00  0.00    -0.261 C  
BRANCH   6   7
HETATM    7  C   UNL     1     -10.771  11.606  67.742  1.00  0.00    -0.204 C  
HETATM    8  O   UNL     1     -12.071  11.764  67.062  1.00  0.00    -0.575 OA 
HETATM    9  P   UNL     1      -9.533  11.315  66.425  1.00  0.00    -0.214 P  
HETATM   10  P   UNL     1     -10.899  10.117  68.798  1.00  0.00    -0.203 P  
HETATM   11  H   UNL     1     -12.273  10.928  66.659  1.00  0.00     0.000 HD 
HETATM   12  O   UNL     1     -11.007   8.856  69.692  1.00  0.00    -0.216 OA 
HETATM   13  O   UNL     1     -12.138  10.793  69.639  1.00  0.00    -0.308 OA 
HETATM   14  O   UNL     1      -9.674  10.693  69.732  1.00  0.00    -0.074 OA 
HETATM   15  O   UNL     1      -8.486  11.069  65.312  1.00  0.00    -0.120 OA 
HETATM   16  O   UNL     1     -10.438  10.005  65.985  1.00  0.00    -0.186 OA 
HETATM   17  O   UNL     1     -10.354  12.356  65.426  1.00  0.00    -0.266 OA 
ENDBRANCH   6   7
ENDBRANCH   5   6
ENDBRANCH   4   5
TORSDOF 3
ENDMDL
MODEL      129
REMARK 921   NORMALIZED FREE ENERGY PREDICTED BY IDOCK:   -3.11 KCAL/MOL
REMARK 922        TOTAL FREE ENERGY PREDICTED BY IDOCK:   -4.00 KCAL/MOL
REMARK 923 INTER-LIGAND FREE ENERGY PREDICTED BY IDOCK:   -3.72 KCAL/MOL
REMARK 924 INTRA-LIGAND FREE ENERGY PREDICTED BY IDOCK:   -0.28 KCAL/MOL
REMARK 927      BINDING AFFINITY PREDICTED BY RF-SCORE:    0.00 PKD
ROOT
HETATM    1  N   UNL     1      -8.961  10.928  69.415  1.00  0.00    -0.399 NA 
HETATM    2  H2  UNL     1      -9.552  11.209  70.197  1.00  0.00     0.000 HD 
HETATM    3  H1  UNL     1      -8.666  11.735  68.866  1.00  0.00     0.000 HD 
HETATM    4  C   UNL     1      -7.834  10.126  69.872  1.00  0.00    -0.151 C  
ENDROOT
BRANCH   4   5
HETATM    5  C   UNL     1      -8.275   8.915  70.694  1.00  0.00    -0.183 C  
BRANCH   5   6
HETATM    6  C   UNL     1      -9.728   8.994  71.183  1.00  0.00    -0.369 C  
BRANCH   6   7
HETATM    7  C   UNL     1     -10.704   7.885  70.674  1.00  0.00    -0.228 C  
HETATM    8  O   UNL     1     -11.933   8.569  70.228  1.00  0.00    -0.470 OA 
HETATM    9  P   UNL     1      -9.956   7.141  69.177  1.00  0.00    -0.176 P  
HETATM   10  P   UNL     1     -11.220   6.557  71.822  1.00  0.00    -0.297 P  
HETATM   11  H   UNL     1     -12.525   7.894  69.918  1.00  0.00     0.000 HD 
HETATM   12  O   UNL     1     -11.656   5.432  72.794  1.00  0.00    -0.307 OA 
HETATM   13  O   UNL     1     -11.902   7.661  72.828  1.00  0.00    -0.269 OA 
HETATM   14  O   UNL     1      -9.716   6.569  72.488  1.00  0.00    -0.159 OA 
HETATM   15  O   UNL     1      -9.324   6.512  67.912  1.00  0.00    -0.115 OA 
HETATM   16  O   UNL     1     -11.376   6.319  68.984  1.00  0.00    -0.390 OA 
HETATM   17  O   UNL     1     -10.460   8.444  68.281  1.00  0.00    -0.206 OA 
ENDBRANCH   6   7
ENDBRANCH   5   6
ENDBRANCH   4   5
TORSDOF 3
ENDMDL
MODEL      130
REMARK 921   NORMALIZED FREE ENERGY PREDICTED BY IDOCK:   -3.10 KCAL/MOL
REMARK 922        TOTAL FREE ENERGY PREDICTED BY IDOCK:   -3.99 KCAL/MOL
REMARK 923 INTER-LIGAND FREE ENERGY PREDICTED BY IDOCK:   -3.48 KCAL/MOL
REMARK 924 INTRA-LIGAND FREE ENERGY PREDICTED BY IDOCK:   -0.51 KCAL/MOL
REMARK 927      BINDING AFFINITY PREDICTED BY RF-SCORE:    0.00 PKD
ROOT
HETATM    1  N   UNL     1      -9.034   8.443  67.735  1.00  0.00    -0.136 NA 
HETATM    2  H2  UNL     1      -9.084   9.418  68.030  1.00  0.00     0.000 HD 
HETATM    3  H1  UNL     1      -8.508   8.347  66.866  1.00  0.00     0.000 HD 
HETATM    4  C   UNL     1      -8.506   7.600  68.799  1.00  0.00    -0.129 C  
ENDROOT
BRANCH   4   5
HETATM    5  C   UNL     1      -9.294   7.743  70.101  1.00  0.00    -0.153 C  
BRANCH   5   6
HETATM    6  C   UNL     1     -10.765   8.130  69.897  1.00  0.00    -0.241 C  
BRANCH   6   7
HETATM    7  C   UNL     1     -11.248   9.450  70.579  1.00  0.00    -0.275 C  
HETATM    8  O   UNL     1     -10.069  10.046  71.236  1.00  0.00    -0.069 OA 
HETATM    9  P   UNL     1     -11.738  10.608  69.250  1.00  0.00    -0.181 P  
HETATM   10  P   UNL     1     -12.575   9.368  71.837  1.00  0.00    -0.397 P  
HETATM   11  H   UNL     1     -10.363  10.849  71.651  1.00  0.00     0.000 HD 
HETATM   12  O   UNL     1     -13.698   9.298  72.901  1.00  0.00    -0.327 OA 
HETATM   13  O   UNL     1     -11.645   8.403  72.787  1.00  0.00    -0.358 OA 
HETATM   14  O   UNL     1     -13.300   8.171  70.972  1.00  0.00    -0.068 OA 
HETATM   15  O   UNL     1     -12.152  11.588  68.125  1.00  0.00    -0.604 OA 
HETATM   16  O   UNL     1     -11.898  11.754  70.428  1.00  0.00    -0.343 OA 
HETATM   17  O   UNL     1     -10.140  10.961  68.971  1.00  0.00    -0.200 OA 
ENDBRANCH   6   7
ENDBRANCH   5   6
ENDBRANCH   4   5
TORSDOF 3
ENDMDL
MODEL      131
REMARK 921   NORMALIZED FREE ENERGY PREDICTED BY IDOCK:   -3.10 KCAL/MOL
REMARK 922        TOTAL FREE ENERGY PREDICTED BY IDOCK:   -3.98 KCAL/MOL
REMARK 923 INTER-LIGAND FREE ENERGY PREDICTED BY IDOCK:   -3.93 KCAL/MOL
REMARK 924 INTRA-LIGAND FREE ENERGY PREDICTED BY IDOCK:   -0.05 KCAL/MOL
REMARK 927      BINDING AFFINITY PREDICTED BY RF-SCORE:    0.00 PKD
ROOT
HETATM    1  N   UNL     1     -11.070   5.361  73.799  1.00  0.00    -0.421 NA 
HETATM    2  H2  UNL     1     -10.361   6.059  74.023  1.00  0.00     0.000 HD 
HETATM    3  H1  UNL     1     -11.735   5.252  74.564  1.00  0.00     0.000 HD 
HETATM    4  C   UNL     1     -11.723   5.665  72.534  1.00  0.00    -0.197 C  
ENDROOT
BRANCH   4   5
HETATM    5  C   UNL     1     -10.725   5.827  71.386  1.00  0.00    -0.319 C  
BRANCH   5   6
HETATM    6  C   UNL     1     -11.288   6.591  70.179  1.00  0.00    -0.463 C  
BRANCH   6   7
HETATM    7  C   UNL     1     -10.503   7.862  69.722  1.00  0.00    -0.233 C  
HETATM    8  O   UNL     1     -11.496   8.939  69.553  1.00  0.00    -0.428 OA 
HETATM    9  P   UNL     1      -9.423   8.369  71.110  1.00  0.00    -0.216 P  
HETATM   10  P   UNL     1      -9.522   7.795  68.179  1.00  0.00    -0.149 P  
HETATM   11  H   UNL     1     -11.019   9.712  69.275  1.00  0.00     0.000 HD 
HETATM   12  O   UNL     1      -8.691   7.738  66.872  1.00  0.00    -0.125 OA 
HETATM   13  O   UNL     1     -10.875   7.473  67.306  1.00  0.00    -0.299 OA 
HETATM   14  O   UNL     1      -9.119   6.237  68.521  1.00  0.00    -0.126 OA 
HETATM   15  O   UNL     1      -8.510   8.798  72.284  1.00  0.00    -0.375 OA 
HETATM   16  O   UNL     1      -9.080   9.726  70.231  1.00  0.00    -0.237 OA 
HETATM   17  O   UNL     1     -10.727   9.059  71.870  1.00  0.00    -0.347 OA 
ENDBRANCH   6   7
ENDBRANCH   5   6
ENDBRANCH   4   5
TORSDOF 3
ENDMDL
MODEL      132
REMARK 921   NORMALIZED FREE ENERGY PREDICTED BY IDOCK:   -3.08 KCAL/MOL
REMARK 922        TOTAL FREE ENERGY PREDICTED BY IDOCK:   -3.96 KCAL/MOL
REMARK 923 INTER-LIGAND FREE ENERGY PREDICTED BY IDOCK:   -3.93 KCAL/MOL
REMARK 924 INTRA-LIGAND FREE ENERGY PREDICTED BY IDOCK:   -0.03 KCAL/MOL
REMARK 927      BINDING AFFINITY PREDICTED BY RF-SCORE:    0.00 PKD
ROOT
HETATM    1  N   UNL     1     -12.913   9.852  70.673  1.00  0.00    -0.573 NA 
HETATM    2  H2  UNL     1     -12.176   9.464  71.260  1.00  0.00     0.000 HD 
HETATM    3  H1  UNL     1     -13.775   9.983  71.202  1.00  0.00     0.000 HD 
HETATM    4  C   UNL     1     -12.473  11.076  70.018  1.00  0.00    -0.250 C  
ENDROOT
BRANCH   4   5
HETATM    5  C   UNL     1     -11.181  10.880  69.224  1.00  0.00    -0.327 C  
BRANCH   5   6
HETATM    6  C   UNL     1     -11.397  10.765  67.708  1.00  0.00    -0.354 C  
BRANCH   6   7
HETATM    7  C   UNL     1     -10.620  11.778  66.808  1.00  0.00    -0.238 C  
HETATM    8  O   UNL     1     -11.592  12.323  65.842  1.00  0.00    -0.367 OA 
HETATM    9  P   UNL     1     -10.108  13.178  67.870  1.00  0.00    -0.242 P  
HETATM   10  P   UNL     1      -9.182  11.188  65.842  1.00  0.00    -0.204 P  
HETATM   11  H   UNL     1     -11.119  12.939  65.294  1.00  0.00     0.000 HD 
HETATM   12  O   UNL     1      -7.964  10.689  65.024  1.00  0.00    -0.119 OA 
HETATM   13  O   UNL     1     -10.137  10.133  65.022  1.00  0.00    -0.330 OA 
HETATM   14  O   UNL     1      -8.779  10.185  67.081  1.00  0.00    -0.129 OA 
HETATM   15  O   UNL     1      -9.676  14.361  68.769  1.00  0.00    -0.218 OA 
HETATM   16  O   UNL     1      -9.615  13.933  66.487  1.00  0.00    -0.274 OA 
HETATM   17  O   UNL     1     -11.646  13.797  67.791  1.00  0.00    -0.306 OA 
ENDBRANCH   6   7
ENDBRANCH   5   6
ENDBRANCH   4   5
TORSDOF 3
ENDMDL
MODEL      133
REMARK 921   NORMALIZED FREE ENERGY PREDICTED BY IDOCK:   -3.05 KCAL/MOL
REMARK 922        TOTAL FREE ENERGY PREDICTED BY IDOCK:   -3.93 KCAL/MOL
REMARK 923 INTER-LIGAND FREE ENERGY PREDICTED BY IDOCK:   -3.99 KCAL/MOL
REMARK 924 INTRA-LIGAND FREE ENERGY PREDICTED BY IDOCK:    0.06 KCAL/MOL
REMARK 927      BINDING AFFINITY PREDICTED BY RF-SCORE:    0.00 PKD
ROOT
HETATM    1  N   UNL     1     -11.205   6.244  68.121  1.00  0.00    -0.475 NA 
HETATM    2  H2  UNL     1     -11.310   6.721  69.016  1.00  0.00     0.000 HD 
HETATM    3  H1  UNL     1     -12.001   5.635  67.931  1.00  0.00     0.000 HD 
HETATM    4  C   UNL     1     -10.965   7.195  67.045  1.00  0.00    -0.234 C  
ENDROOT
BRANCH   4   5
HETATM    5  C   UNL     1      -9.771   8.107  67.328  1.00  0.00    -0.233 C  
BRANCH   5   6
HETATM    6  C   UNL     1      -9.430   8.237  68.819  1.00  0.00    -0.148 C  
BRANCH   6   7
HETATM    7  C   UNL     1      -9.998   9.488  69.564  1.00  0.00    -0.194 C  
HETATM    8  O   UNL     1      -8.848  10.357  69.877  1.00  0.00    -0.384 OA 
HETATM    9  P   UNL     1     -11.035  10.413  68.372  1.00  0.00    -0.250 P  
HETATM   10  P   UNL     1     -10.927   9.249  71.123  1.00  0.00    -0.393 P  
HETATM   11  H   UNL     1      -9.194  11.117  70.330  1.00  0.00     0.000 HD 
HETATM   12  O   UNL     1     -11.712   9.047  72.442  1.00  0.00    -0.290 OA 
HETATM   13  O   UNL     1      -9.609   8.569  71.829  1.00  0.00    -0.213 OA 
HETATM   14  O   UNL     1     -11.572   7.866  70.510  1.00  0.00    -0.247 OA 
HETATM   15  O   UNL     1     -11.911  11.196  67.365  1.00  0.00    -0.532 OA 
HETATM   16  O   UNL     1     -11.139  11.598  69.519  1.00  0.00    -0.233 OA 
HETATM   17  O   UNL     1      -9.667  11.050  67.681  1.00  0.00    -0.166 OA 
ENDBRANCH   6   7
ENDBRANCH   5   6
ENDBRANCH   4   5
TORSDOF 3
ENDMDL
MODEL      134
REMARK 921   NORMALIZED FREE ENERGY PREDICTED BY IDOCK:   -3.05 KCAL/MOL
REMARK 922        TOTAL FREE ENERGY PREDICTED BY IDOCK:   -3.93 KCAL/MOL
REMARK 923 INTER-LIGAND FREE ENERGY PREDICTED BY IDOCK:   -3.90 KCAL/MOL
REMARK 924 INTRA-LIGAND FREE ENERGY PREDICTED BY IDOCK:   -0.02 KCAL/MOL
REMARK 927      BINDING AFFINITY PREDICTED BY RF-SCORE:    0.00 PKD
ROOT
HETATM    1  N   UNL     1     -12.443   7.409  72.135  1.00  0.00    -0.479 NA 
HETATM    2  H2  UNL     1     -11.656   7.158  72.732  1.00  0.00     0.000 HD 
HETATM    3  H1  UNL     1     -13.289   7.564  72.684  1.00  0.00     0.000 HD 
HETATM    4  C   UNL     1     -12.116   8.548  71.288  1.00  0.00    -0.286 C  
ENDROOT
BRANCH   4   5
HETATM    5  C   UNL     1     -10.849   8.317  70.464  1.00  0.00    -0.245 C  
BRANCH   5   6
HETATM    6  C   UNL     1     -10.183   9.611  69.975  1.00  0.00    -0.296 C  
BRANCH   6   7
HETATM    7  C   UNL     1     -10.104   9.821  68.429  1.00  0.00    -0.166 C  
HETATM    8  O   UNL     1      -8.678   9.997  68.095  1.00  0.00    -0.120 OA 
HETATM    9  P   UNL     1     -10.631   8.259  67.634  1.00  0.00    -0.056 P  
HETATM   10  P   UNL     1     -11.005  11.224  67.675  1.00  0.00    -0.297 P  
HETATM   11  H   UNL     1      -8.630  10.125  67.155  1.00  0.00     0.000 HD 
HETATM   12  O   UNL     1     -11.768  12.411  67.036  1.00  0.00    -0.381 OA 
HETATM   13  O   UNL     1     -10.126  12.293  68.559  1.00  0.00    -0.216 OA 
HETATM   14  O   UNL     1     -12.222  11.006  68.760  1.00  0.00    -0.546 OA 
HETATM   15  O   UNL     1     -11.077   6.938  66.962  1.00  0.00    -0.389 OA 
HETATM   16  O   UNL     1     -10.160   8.932  66.201  1.00  0.00    -0.291 OA 
HETATM   17  O   UNL     1      -9.138   7.601  67.942  1.00  0.00    -0.134 OA 
ENDBRANCH   6   7
ENDBRANCH   5   6
ENDBRANCH   4   5
TORSDOF 3
ENDMDL
MODEL      135
REMARK 921   NORMALIZED FREE ENERGY PREDICTED BY IDOCK:   -3.04 KCAL/MOL
REMARK 922        TOTAL FREE ENERGY PREDICTED BY IDOCK:   -3.91 KCAL/MOL
REMARK 923 INTER-LIGAND FREE ENERGY PREDICTED BY IDOCK:   -3.28 KCAL/MOL
REMARK 924 INTRA-LIGAND FREE ENERGY PREDICTED BY IDOCK:   -0.63 KCAL/MOL
REMARK 927      BINDING AFFINITY PREDICTED BY RF-SCORE:    0.00 PKD
ROOT
HETATM    1  N   UNL     1      -8.362   9.593  70.766  1.00  0.00    -0.371 NA 
HETATM    2  H2  UNL     1      -9.124   9.964  71.334  1.00  0.00     0.000 HD 
HETATM    3  H1  UNL     1      -7.972  10.314  70.158  1.00  0.00     0.000 HD 
HETATM    4  C   UNL     1      -7.349   8.960  71.597  1.00  0.00    -0.019 C  
ENDROOT
BRANCH   4   5
HETATM    5  C   UNL     1      -7.932   7.880  72.508  1.00  0.00    -0.157 C  
BRANCH   5   6
HETATM    6  C   UNL     1      -8.628   6.740  71.751  1.00  0.00    -0.121 C  
BRANCH   6   7
HETATM    7  C   UNL     1     -10.185   6.670  71.858  1.00  0.00    -0.186 C  
HETATM    8  O   UNL     1     -10.640   7.996  72.318  1.00  0.00    -0.245 OA 
HETATM    9  P   UNL     1     -10.843   6.459  70.163  1.00  0.00    -0.361 P  
HETATM   10  P   UNL     1     -10.947   5.430  72.967  1.00  0.00    -0.312 P  
HETATM   11  H   UNL     1     -11.587   7.954  72.383  1.00  0.00     0.000 HD 
HETATM   12  O   UNL     1     -11.592   4.380  73.905  1.00  0.00    -0.147 OA 
HETATM   13  O   UNL     1     -10.199   6.100  74.267  1.00  0.00    -0.277 OA 
HETATM   14  O   UNL     1      -9.758   4.365  72.568  1.00  0.00    -0.142 OA 
HETATM   15  O   UNL     1     -11.399   6.281  68.729  1.00  0.00    -0.356 OA 
HETATM   16  O   UNL     1     -12.346   6.674  70.814  1.00  0.00    -0.352 OA 
HETATM   17  O   UNL     1     -10.616   8.078  69.875  1.00  0.00    -0.236 OA 
ENDBRANCH   6   7
ENDBRANCH   5   6
ENDBRANCH   4   5
TORSDOF 3
ENDMDL
MODEL      136
REMARK 921   NORMALIZED FREE ENERGY PREDICTED BY IDOCK:   -3.01 KCAL/MOL
REMARK 922        TOTAL FREE ENERGY PREDICTED BY IDOCK:   -3.88 KCAL/MOL
REMARK 923 INTER-LIGAND FREE ENERGY PREDICTED BY IDOCK:   -3.70 KCAL/MOL
REMARK 924 INTRA-LIGAND FREE ENERGY PREDICTED BY IDOCK:   -0.18 KCAL/MOL
REMARK 927      BINDING AFFINITY PREDICTED BY RF-SCORE:    0.00 PKD
ROOT
HETATM    1  N   UNL     1     -10.943   4.766  65.488  1.00  0.00    -0.867 NA 
HETATM    2  H2  UNL     1     -11.234   5.630  65.032  1.00  0.00     0.000 HD 
HETATM    3  H1  UNL     1     -10.577   4.097  64.810  1.00  0.00     0.000 HD 
HETATM    4  C   UNL     1     -10.002   5.034  66.567  1.00  0.00    -0.224 C  
ENDROOT
BRANCH   4   5
HETATM    5  C   UNL     1     -10.550   6.036  67.583  1.00  0.00    -0.336 C  
BRANCH   5   6
HETATM    6  C   UNL     1      -9.466   6.884  68.263  1.00  0.00    -0.126 C  
BRANCH   6   7
HETATM    7  C   UNL     1      -9.774   8.404  68.448  1.00  0.00    -0.156 C  
HETATM    8  O   UNL     1     -11.133   8.632  67.919  1.00  0.00    -0.481 OA 
HETATM    9  P   UNL     1      -9.860   8.733  70.247  1.00  0.00    -0.196 P  
HETATM   10  P   UNL     1      -8.680   9.638  67.655  1.00  0.00    -0.124 P  
HETATM   11  H   UNL     1     -11.320   9.556  68.032  1.00  0.00     0.000 HD 
HETATM   12  O   UNL     1      -7.753  10.682  66.983  1.00  0.00    -0.110 OA 
HETATM   13  O   UNL     1      -9.045   9.039  66.170  1.00  0.00    -0.170 OA 
HETATM   14  O   UNL     1      -7.388   8.666  67.960  1.00  0.00    -0.089 OA 
HETATM   15  O   UNL     1      -9.933   9.010  71.768  1.00  0.00    -0.325 OA 
HETATM   16  O   UNL     1     -10.388  10.248  69.856  1.00  0.00    -0.255 OA 
HETATM   17  O   UNL     1     -11.390   8.091  70.289  1.00  0.00    -0.243 OA 
ENDBRANCH   6   7
ENDBRANCH   5   6
ENDBRANCH   4   5
TORSDOF 3
ENDMDL
MODEL      137
REMARK 921   NORMALIZED FREE ENERGY PREDICTED BY IDOCK:   -3.01 KCAL/MOL
REMARK 922        TOTAL FREE ENERGY PREDICTED BY IDOCK:   -3.88 KCAL/MOL
REMARK 923 INTER-LIGAND FREE ENERGY PREDICTED BY IDOCK:   -3.70 KCAL/MOL
REMARK 924 INTRA-LIGAND FREE ENERGY PREDICTED BY IDOCK:   -0.17 KCAL/MOL
REMARK 927      BINDING AFFINITY PREDICTED BY RF-SCORE:    0.00 PKD
ROOT
HETATM    1  N   UNL     1      -7.183  19.255  66.130  1.00  0.00    -0.253 NA 
HETATM    2  H2  UNL     1      -7.525  19.608  67.024  1.00  0.00     0.000 HD 
HETATM    3  H1  UNL     1      -6.859  20.016  65.534  1.00  0.00     0.000 HD 
HETATM    4  C   UNL     1      -6.167  18.231  66.324  1.00  0.00    -0.199 C  
ENDROOT
BRANCH   4   5
HETATM    5  C   UNL     1      -6.653  17.089  67.218  1.00  0.00    -0.195 C  
BRANCH   5   6
HETATM    6  C   UNL     1      -7.946  16.424  66.726  1.00  0.00    -0.295 C  
BRANCH   6   7
HETATM    7  C   UNL     1      -9.092  16.250  67.774  1.00  0.00    -0.195 C  
HETATM    8  O   UNL     1      -8.452  16.211  69.102  1.00  0.00    -0.247 OA 
HETATM    9  P   UNL     1     -10.107  17.773  67.735  1.00  0.00    -0.380 P  
HETATM   10  P   UNL     1     -10.184  14.786  67.664  1.00  0.00    -0.233 P  
HETATM   11  H   UNL     1      -9.149  16.106  69.740  1.00  0.00     0.000 HD 
HETATM   12  O   UNL     1     -11.108  13.547  67.571  1.00  0.00    -0.262 OA 
HETATM   13  O   UNL     1      -8.900  13.785  67.878  1.00  0.00    -0.167 OA 
HETATM   14  O   UNL     1     -10.110  14.872  66.023  1.00  0.00    -0.277 OA 
HETATM   15  O   UNL     1     -10.965  19.061  67.702  1.00  0.00    -0.407 OA 
HETATM   16  O   UNL     1     -10.900  17.172  69.054  1.00  0.00    -0.274 OA 
HETATM   17  O   UNL     1      -8.961  18.557  68.644  1.00  0.00    -0.322 OA 
ENDBRANCH   6   7
ENDBRANCH   5   6
ENDBRANCH   4   5
TORSDOF 3
ENDMDL
MODEL      138
REMARK 921   NORMALIZED FREE ENERGY PREDICTED BY IDOCK:   -3.00 KCAL/MOL
REMARK 922        TOTAL FREE ENERGY PREDICTED BY IDOCK:   -3.88 KCAL/MOL
REMARK 923 INTER-LIGAND FREE ENERGY PREDICTED BY IDOCK:   -3.41 KCAL/MOL
REMARK 924 INTRA-LIGAND FREE ENERGY PREDICTED BY IDOCK:   -0.47 KCAL/MOL
REMARK 927      BINDING AFFINITY PREDICTED BY RF-SCORE:    0.00 PKD
ROOT
HETATM    1  N   UNL     1     -11.573   6.503  67.971  1.00  0.00    -0.527 NA 
HETATM    2  H2  UNL     1     -12.065   7.392  67.890  1.00  0.00     0.000 HD 
HETATM    3  H1  UNL     1     -12.227   5.729  68.089  1.00  0.00     0.000 HD 
HETATM    4  C   UNL     1     -10.669   6.300  66.848  1.00  0.00    -0.339 C  
ENDROOT
BRANCH   4   5
HETATM    5  C   UNL     1      -9.688   7.459  66.671  1.00  0.00    -0.262 C  
BRANCH   5   6
HETATM    6  C   UNL     1     -10.289   8.834  66.994  1.00  0.00    -0.353 C  
BRANCH   6   7
HETATM    7  C   UNL     1      -9.649   9.622  68.181  1.00  0.00    -0.143 C  
HETATM    8  O   UNL     1      -8.664   8.721  68.809  1.00  0.00    -0.135 OA 
HETATM    9  P   UNL     1      -8.695  11.012  67.468  1.00  0.00    -0.130 P  
HETATM   10  P   UNL     1     -10.729  10.247  69.520  1.00  0.00    -0.277 P  
HETATM   11  H   UNL     1      -8.274   9.200  69.531  1.00  0.00     0.000 HD 
HETATM   12  O   UNL     1     -11.643  10.775  70.654  1.00  0.00    -0.322 OA 
HETATM   13  O   UNL     1     -11.199   8.716  69.886  1.00  0.00    -0.177 OA 
HETATM   14  O   UNL     1     -11.898  10.564  68.408  1.00  0.00    -0.380 OA 
HETATM   15  O   UNL     1      -7.889  12.187  66.864  1.00  0.00    -0.146 OA 
HETATM   16  O   UNL     1      -8.126  11.289  68.994  1.00  0.00    -0.127 OA 
HETATM   17  O   UNL     1      -7.466   9.967  67.080  1.00  0.00    -0.091 OA 
ENDBRANCH   6   7
ENDBRANCH   5   6
ENDBRANCH   4   5
TORSDOF 3
ENDMDL
MODEL      139
REMARK 921   NORMALIZED FREE ENERGY PREDICTED BY IDOCK:   -3.00 KCAL/MOL
REMARK 922        TOTAL FREE ENERGY PREDICTED BY IDOCK:   -3.87 KCAL/MOL
REMARK 923 INTER-LIGAND FREE ENERGY PREDICTED BY IDOCK:   -3.70 KCAL/MOL
REMARK 924 INTRA-LIGAND FREE ENERGY PREDICTED BY IDOCK:   -0.17 KCAL/MOL
REMARK 927      BINDING AFFINITY PREDICTED BY RF-SCORE:    0.00 PKD
ROOT
HETATM    1  N   UNL     1      -9.426  11.430  62.467  1.00  0.00    -0.510 NA 
HETATM    2  H2  UNL     1      -8.930  12.169  62.965  1.00  0.00     0.000 HD 
HETATM    3  H1  UNL     1      -9.096  11.348  61.506  1.00  0.00     0.000 HD 
HETATM    4  C   UNL     1      -9.351  10.169  63.190  1.00  0.00    -0.298 C  
ENDROOT
BRANCH   4   5
HETATM    5  C   UNL     1      -9.846  10.292  64.631  1.00  0.00    -0.396 C  
BRANCH   5   6
HETATM    6  C   UNL     1      -9.726  11.709  65.209  1.00  0.00    -0.255 C  
BRANCH   6   7
HETATM    7  C   UNL     1      -9.636  11.830  66.764  1.00  0.00    -0.200 C  
HETATM    8  O   UNL     1      -9.676  10.457  67.302  1.00  0.00    -0.160 OA 
HETATM    9  P   UNL     1      -7.978  12.494  67.168  1.00  0.00    -0.036 P  
HETATM   10  P   UNL     1     -10.912  12.790  67.658  1.00  0.00    -0.269 P  
HETATM   11  H   UNL     1      -9.620  10.531  68.248  1.00  0.00     0.000 HD 
HETATM   12  O   UNL     1     -11.992  13.603  68.414  1.00  0.00    -0.355 OA 
HETATM   13  O   UNL     1     -12.086  11.777  67.115  1.00  0.00    -0.592 OA 
HETATM   14  O   UNL     1     -10.963  13.858  66.407  1.00  0.00    -0.299 OA 
HETATM   15  O   UNL     1      -6.577  13.056  67.509  1.00  0.00    -0.151 OA 
HETATM   16  O   UNL     1      -8.344  12.201  68.752  1.00  0.00    -0.062 OA 
HETATM   17  O   UNL     1      -7.320  10.990  66.928  1.00  0.00    -0.118 OA 
ENDBRANCH   6   7
ENDBRANCH   5   6
ENDBRANCH   4   5
TORSDOF 3
ENDMDL
MODEL      140
REMARK 921   NORMALIZED FREE ENERGY PREDICTED BY IDOCK:   -3.00 KCAL/MOL
REMARK 922        TOTAL FREE ENERGY PREDICTED BY IDOCK:   -3.87 KCAL/MOL
REMARK 923 INTER-LIGAND FREE ENERGY PREDICTED BY IDOCK:   -3.91 KCAL/MOL
REMARK 924 INTRA-LIGAND FREE ENERGY PREDICTED BY IDOCK:    0.05 KCAL/MOL
REMARK 927      BINDING AFFINITY PREDICTED BY RF-SCORE:    0.00 PKD
ROOT
HETATM    1  N   UNL     1     -11.711  15.333  64.242  1.00  0.00    -0.723 NA 
HETATM    2  H2  UNL     1     -10.806  15.713  64.518  1.00  0.00     0.000 HD 
HETATM    3  H1  UNL     1     -11.923  15.556  63.270  1.00  0.00     0.000 HD 
HETATM    4  C   UNL     1     -11.783  13.904  64.512  1.00  0.00    -0.410 C  
ENDROOT
BRANCH   4   5
HETATM    5  C   UNL     1     -11.465  13.569  65.970  1.00  0.00    -0.345 C  
BRANCH   5   6
HETATM    6  C   UNL     1     -10.140  12.818  66.158  1.00  0.00    -0.274 C  
BRANCH   6   7
HETATM    7  C   UNL     1      -9.840  12.266  67.589  1.00  0.00    -0.196 C  
HETATM    8  O   UNL     1     -10.667  13.046  68.529  1.00  0.00    -0.243 OA 
HETATM    9  P   UNL     1     -10.465  10.547  67.656  1.00  0.00    -0.274 P  
HETATM   10  P   UNL     1      -8.123  12.317  68.221  1.00  0.00    -0.137 P  
HETATM   11  H   UNL     1     -10.485  12.710  69.398  1.00  0.00     0.000 HD 
HETATM   12  O   UNL     1      -6.670  12.359  68.756  1.00  0.00    -0.081 OA 
HETATM   13  O   UNL     1      -8.103  13.955  68.098  1.00  0.00    -0.130 OA 
HETATM   14  O   UNL     1      -7.572  11.988  66.706  1.00  0.00    -0.102 OA 
HETATM   15  O   UNL     1     -10.993   9.093  67.713  1.00  0.00    -0.160 OA 
HETATM   16  O   UNL     1     -10.128  10.582  69.273  1.00  0.00    -0.213 OA 
HETATM   17  O   UNL     1     -12.010  11.119  67.854  1.00  0.00    -0.624 OA 
ENDBRANCH   6   7
ENDBRANCH   5   6
ENDBRANCH   4   5
TORSDOF 3
ENDMDL
MODEL      141
REMARK 921   NORMALIZED FREE ENERGY PREDICTED BY IDOCK:   -2.99 KCAL/MOL
REMARK 922        TOTAL FREE ENERGY PREDICTED BY IDOCK:   -3.86 KCAL/MOL
REMARK 923 INTER-LIGAND FREE ENERGY PREDICTED BY IDOCK:   -3.65 KCAL/MOL
REMARK 924 INTRA-LIGAND FREE ENERGY PREDICTED BY IDOCK:   -0.21 KCAL/MOL
REMARK 927      BINDING AFFINITY PREDICTED BY RF-SCORE:    0.00 PKD
ROOT
HETATM    1  N   UNL     1      -9.733   9.150  65.263  1.00  0.00    -0.443 NA 
HETATM    2  H2  UNL     1     -10.107  10.098  65.293  1.00  0.00     0.000 HD 
HETATM    3  H1  UNL     1      -9.024   9.057  64.536  1.00  0.00     0.000 HD 
HETATM    4  C   UNL     1      -9.245   8.737  66.571  1.00  0.00    -0.179 C  
ENDROOT
BRANCH   4   5
HETATM    5  C   UNL     1     -10.309   8.876  67.660  1.00  0.00    -0.313 C  
BRANCH   5   6
HETATM    6  C   UNL     1      -9.782   8.612  69.078  1.00  0.00    -0.173 C  
BRANCH   6   7
HETATM    7  C   UNL     1     -10.459   7.453  69.876  1.00  0.00    -0.231 C  
HETATM    8  O   UNL     1     -11.542   6.924  69.025  1.00  0.00    -0.548 OA 
HETATM    9  P   UNL     1      -9.229   6.107  70.041  1.00  0.00    -0.151 P  
HETATM   10  P   UNL     1     -11.194   7.810  71.514  1.00  0.00    -0.261 P  
HETATM   11  H   UNL     1     -11.954   6.219  69.511  1.00  0.00     0.000 HD 
HETATM   12  O   UNL     1     -11.817   8.113  72.899  1.00  0.00    -0.352 OA 
HETATM   13  O   UNL     1     -12.241   8.879  70.835  1.00  0.00    -0.252 OA 
HETATM   14  O   UNL     1      -9.975   8.873  71.812  1.00  0.00    -0.300 OA 
HETATM   15  O   UNL     1      -8.189   4.969  70.180  1.00  0.00    -0.079 OA 
HETATM   16  O   UNL     1     -10.449   5.189  70.672  1.00  0.00    -0.250 OA 
HETATM   17  O   UNL     1      -9.536   5.638  68.479  1.00  0.00    -0.121 OA 
ENDBRANCH   6   7
ENDBRANCH   5   6
ENDBRANCH   4   5
TORSDOF 3
ENDMDL
MODEL      142
REMARK 921   NORMALIZED FREE ENERGY PREDICTED BY IDOCK:   -2.99 KCAL/MOL
REMARK 922        TOTAL FREE ENERGY PREDICTED BY IDOCK:   -3.85 KCAL/MOL
REMARK 923 INTER-LIGAND FREE ENERGY PREDICTED BY IDOCK:   -3.60 KCAL/MOL
REMARK 924 INTRA-LIGAND FREE ENERGY PREDICTED BY IDOCK:   -0.26 KCAL/MOL
REMARK 927      BINDING AFFINITY PREDICTED BY RF-SCORE:    0.00 PKD
ROOT
HETATM    1  N   UNL     1      -5.974  13.334  70.427  1.00  0.00    -0.287 NA 
HETATM    2  H2  UNL     1      -6.174  12.543  71.038  1.00  0.00     0.000 HD 
HETATM    3  H1  UNL     1      -5.140  13.834  70.735  1.00  0.00     0.000 HD 
HETATM    4  C   UNL     1      -5.887  12.913  69.036  1.00  0.00    -0.079 C  
ENDROOT
BRANCH   4   5
HETATM    5  C   UNL     1      -7.137  12.163  68.575  1.00  0.00    -0.099 C  
BRANCH   5   6
HETATM    6  C   UNL     1      -7.814  12.784  67.345  1.00  0.00    -0.172 C  
BRANCH   6   7
HETATM    7  C   UNL     1      -9.066  13.681  67.607  1.00  0.00    -0.207 C  
HETATM    8  O   UNL     1      -9.057  14.015  69.044  1.00  0.00    -0.389 OA 
HETATM    9  P   UNL     1      -8.812  15.256  66.710  1.00  0.00    -0.284 P  
HETATM   10  P   UNL     1     -10.729  13.022  67.223  1.00  0.00    -0.255 P  
HETATM   11  H   UNL     1      -9.819  14.561  69.204  1.00  0.00     0.000 HD 
HETATM   12  O   UNL     1     -12.137  12.464  66.898  1.00  0.00    -0.564 OA 
HETATM   13  O   UNL     1     -10.520  11.802  68.303  1.00  0.00    -0.192 OA 
HETATM   14  O   UNL     1     -10.104  12.249  65.913  1.00  0.00    -0.241 OA 
HETATM   15  O   UNL     1      -8.597  16.587  65.951  1.00  0.00    -0.441 OA 
HETATM   16  O   UNL     1     -10.169  15.807  67.473  1.00  0.00    -0.255 OA 
HETATM   17  O   UNL     1      -7.792  15.774  67.913  1.00  0.00    -0.132 OA 
ENDBRANCH   6   7
ENDBRANCH   5   6
ENDBRANCH   4   5
TORSDOF 3
ENDMDL
MODEL      143
REMARK 921   NORMALIZED FREE ENERGY PREDICTED BY IDOCK:   -2.96 KCAL/MOL
REMARK 922        TOTAL FREE ENERGY PREDICTED BY IDOCK:   -3.82 KCAL/MOL
REMARK 923 INTER-LIGAND FREE ENERGY PREDICTED BY IDOCK:   -3.57 KCAL/MOL
REMARK 924 INTRA-LIGAND FREE ENERGY PREDICTED BY IDOCK:   -0.25 KCAL/MOL
REMARK 927      BINDING AFFINITY PREDICTED BY RF-SCORE:    0.00 PKD
ROOT
HETATM    1  N   UNL     1      -8.423  10.391  69.504  1.00  0.00    -0.315 NA 
HETATM    2  H2  UNL     1      -9.042  11.086  69.921  1.00  0.00     0.000 HD 
HETATM    3  H1  UNL     1      -7.743  10.829  68.882  1.00  0.00     0.000 HD 
HETATM    4  C   UNL     1      -7.792   9.570  70.527  1.00  0.00    -0.157 C  
ENDROOT
BRANCH   4   5
HETATM    5  C   UNL     1      -8.811   8.913  71.458  1.00  0.00    -0.253 C  
BRANCH   5   6
HETATM    6  C   UNL     1      -9.024   7.417  71.189  1.00  0.00    -0.143 C  
BRANCH   6   7
HETATM    7  C   UNL     1     -10.488   6.954  70.901  1.00  0.00    -0.211 C  
HETATM    8  O   UNL     1     -10.720   5.744  71.713  1.00  0.00    -0.234 OA 
HETATM    9  P   UNL     1     -11.610   8.240  71.561  1.00  0.00    -0.314 P  
HETATM   10  P   UNL     1     -10.972   6.545  69.184  1.00  0.00    -0.306 P  
HETATM   11  H   UNL     1     -11.610   5.463  71.538  1.00  0.00     0.000 HD 
HETATM   12  O   UNL     1     -11.381   6.199  67.731  1.00  0.00    -0.201 OA 
HETATM   13  O   UNL     1      -9.850   5.346  69.130  1.00  0.00    -0.149 OA 
HETATM   14  O   UNL     1     -10.006   7.760  68.639  1.00  0.00    -0.171 OA 
HETATM   15  O   UNL     1     -12.559   9.328  72.120  1.00  0.00    -0.374 OA 
HETATM   16  O   UNL     1     -12.852   7.204  71.225  1.00  0.00    -0.380 OA 
HETATM   17  O   UNL     1     -11.385   7.647  73.095  1.00  0.00    -0.360 OA 
ENDBRANCH   6   7
ENDBRANCH   5   6
ENDBRANCH   4   5
TORSDOF 3
ENDMDL
MODEL      144
REMARK 921   NORMALIZED FREE ENERGY PREDICTED BY IDOCK:   -2.96 KCAL/MOL
REMARK 922        TOTAL FREE ENERGY PREDICTED BY IDOCK:   -3.82 KCAL/MOL
REMARK 923 INTER-LIGAND FREE ENERGY PREDICTED BY IDOCK:   -3.82 KCAL/MOL
REMARK 924 INTRA-LIGAND FREE ENERGY PREDICTED BY IDOCK:   -0.01 KCAL/MOL
REMARK 927      BINDING AFFINITY PREDICTED BY RF-SCORE:    0.00 PKD
ROOT
HETATM    1  N   UNL     1     -10.334  19.645  69.332  1.00  0.00    -0.565 NA 
HETATM    2  H2  UNL     1     -10.110  19.198  70.221  1.00  0.00     0.000 HD 
HETATM    3  H1  UNL     1     -10.419  20.656  69.440  1.00  0.00     0.000 HD 
HETATM    4  C   UNL     1      -9.373  19.276  68.303  1.00  0.00    -0.351 C  
ENDROOT
BRANCH   4   5
HETATM    5  C   UNL     1      -9.245  17.761  68.141  1.00  0.00    -0.277 C  
BRANCH   5   6
HETATM    6  C   UNL     1     -10.570  17.059  67.810  1.00  0.00    -0.350 C  
BRANCH   6   7
HETATM    7  C   UNL     1     -10.566  15.497  67.839  1.00  0.00    -0.274 C  
HETATM    8  O   UNL     1     -11.375  15.046  66.691  1.00  0.00    -0.344 OA 
HETATM    9  P   UNL     1      -8.852  14.946  67.509  1.00  0.00    -0.210 P  
HETATM   10  P   UNL     1     -11.210  14.633  69.318  1.00  0.00    -0.307 P  
HETATM   11  H   UNL     1     -11.372  14.097  66.709  1.00  0.00     0.000 HD 
HETATM   12  O   UNL     1     -11.755  13.902  70.570  1.00  0.00    -0.260 OA 
HETATM   13  O   UNL     1     -12.690  15.312  69.097  1.00  0.00     0.125 OA 
HETATM   14  O   UNL     1     -10.577  15.818  70.268  1.00  0.00    -0.314 OA 
HETATM   15  O   UNL     1      -7.402  14.480  67.230  1.00  0.00    -0.189 OA 
HETATM   16  O   UNL     1      -9.454  13.410  67.432  1.00  0.00    -0.208 OA 
HETATM   17  O   UNL     1      -9.074  15.232  65.890  1.00  0.00    -0.291 OA 
ENDBRANCH   6   7
ENDBRANCH   5   6
ENDBRANCH   4   5
TORSDOF 3
ENDMDL
MODEL      145
REMARK 921   NORMALIZED FREE ENERGY PREDICTED BY IDOCK:   -2.96 KCAL/MOL
REMARK 922        TOTAL FREE ENERGY PREDICTED BY IDOCK:   -3.82 KCAL/MOL
REMARK 923 INTER-LIGAND FREE ENERGY PREDICTED BY IDOCK:   -3.75 KCAL/MOL
REMARK 924 INTRA-LIGAND FREE ENERGY PREDICTED BY IDOCK:   -0.07 KCAL/MOL
REMARK 927      BINDING AFFINITY PREDICTED BY RF-SCORE:    0.00 PKD
ROOT
HETATM    1  N   UNL     1      -8.641   8.418  66.368  1.00  0.00    -0.121 NA 
HETATM    2  H2  UNL     1      -7.965   9.004  66.858  1.00  0.00     0.000 HD 
HETATM    3  H1  UNL     1      -8.668   7.478  66.761  1.00  0.00     0.000 HD 
HETATM    4  C   UNL     1      -9.954   9.046  66.338  1.00  0.00    -0.300 C  
ENDROOT
BRANCH   4   5
HETATM    5  C   UNL     1      -9.914  10.455  65.747  1.00  0.00    -0.334 C  
BRANCH   5   6
HETATM    6  C   UNL     1     -10.924  11.422  66.382  1.00  0.00    -0.315 C  
BRANCH   6   7
HETATM    7  C   UNL     1     -10.370  12.798  66.871  1.00  0.00    -0.238 C  
HETATM    8  O   UNL     1     -10.942  13.037  68.210  1.00  0.00    -0.239 OA 
HETATM    9  P   UNL     1      -8.565  12.611  67.108  1.00  0.00    -0.156 P  
HETATM   10  P   UNL     1     -10.702  14.297  65.874  1.00  0.00    -0.330 P  
HETATM   11  H   UNL     1     -10.604  13.874  68.507  1.00  0.00     0.000 HD 
HETATM   12  O   UNL     1     -10.983  15.565  65.030  1.00  0.00    -0.402 OA 
HETATM   13  O   UNL     1     -12.320  14.098  66.074  1.00  0.00    -0.444 OA 
HETATM   14  O   UNL     1     -10.549  13.400  64.503  1.00  0.00    -0.392 OA 
HETATM   15  O   UNL     1      -7.038  12.452  67.308  1.00  0.00    -0.147 OA 
HETATM   16  O   UNL     1      -8.585  14.121  67.777  1.00  0.00    -0.162 OA 
HETATM   17  O   UNL     1      -8.836  11.845  68.555  1.00  0.00    -0.169 OA 
ENDBRANCH   6   7
ENDBRANCH   5   6
ENDBRANCH   4   5
TORSDOF 3
ENDMDL
MODEL      146
REMARK 921   NORMALIZED FREE ENERGY PREDICTED BY IDOCK:   -2.96 KCAL/MOL
REMARK 922        TOTAL FREE ENERGY PREDICTED BY IDOCK:   -3.82 KCAL/MOL
REMARK 923 INTER-LIGAND FREE ENERGY PREDICTED BY IDOCK:   -3.77 KCAL/MOL
REMARK 924 INTRA-LIGAND FREE ENERGY PREDICTED BY IDOCK:   -0.05 KCAL/MOL
REMARK 927      BINDING AFFINITY PREDICTED BY RF-SCORE:    0.00 PKD
ROOT
HETATM    1  N   UNL     1     -11.349   4.170  64.838  1.00  0.00    -0.967 NA 
HETATM    2  H2  UNL     1     -12.162   4.770  64.976  1.00  0.00     0.000 HD 
HETATM    3  H1  UNL     1     -11.182   3.998  63.847  1.00  0.00     0.000 HD 
HETATM    4  C   UNL     1     -10.178   4.712  65.512  1.00  0.00    -0.195 C  
ENDROOT
BRANCH   4   5
HETATM    5  C   UNL     1     -10.427   4.970  66.999  1.00  0.00    -0.208 C  
BRANCH   5   6
HETATM    6  C   UNL     1     -10.957   6.378  67.303  1.00  0.00    -0.474 C  
BRANCH   6   7
HETATM    7  C   UNL     1     -10.273   7.149  68.477  1.00  0.00    -0.175 C  
HETATM    8  O   UNL     1     -11.349   7.578  69.390  1.00  0.00    -0.451 OA 
HETATM    9  P   UNL     1      -9.256   5.944  69.407  1.00  0.00    -0.132 P  
HETATM   10  P   UNL     1      -9.269   8.633  68.101  1.00  0.00    -0.136 P  
HETATM   11  H   UNL     1     -10.932   8.047  70.104  1.00  0.00     0.000 HD 
HETATM   12  O   UNL     1      -8.419   9.888  67.784  1.00  0.00    -0.117 OA 
HETATM   13  O   UNL     1     -10.580   9.384  67.458  1.00  0.00    -0.262 OA 
HETATM   14  O   UNL     1      -8.744   7.910  66.720  1.00  0.00    -0.125 OA 
HETATM   15  O   UNL     1      -8.397   4.925  70.194  1.00  0.00    -0.078 OA 
HETATM   16  O   UNL     1      -9.014   7.141  70.520  1.00  0.00    -0.153 OA 
HETATM   17  O   UNL     1     -10.623   5.374  70.157  1.00  0.00    -0.296 OA 
ENDBRANCH   6   7
ENDBRANCH   5   6
ENDBRANCH   4   5
TORSDOF 3
ENDMDL
MODEL      147
REMARK 921   NORMALIZED FREE ENERGY PREDICTED BY IDOCK:   -2.95 KCAL/MOL
REMARK 922        TOTAL FREE ENERGY PREDICTED BY IDOCK:   -3.82 KCAL/MOL
REMARK 923 INTER-LIGAND FREE ENERGY PREDICTED BY IDOCK:   -3.70 KCAL/MOL
REMARK 924 INTRA-LIGAND FREE ENERGY PREDICTED BY IDOCK:   -0.11 KCAL/MOL
REMARK 927      BINDING AFFINITY PREDICTED BY RF-SCORE:    0.00 PKD
ROOT
HETATM    1  N   UNL     1      -6.670  12.775  70.037  1.00  0.00    -0.332 NA 
HETATM    2  H2  UNL     1      -7.150  11.920  69.756  1.00  0.00     0.000 HD 
HETATM    3  H1  UNL     1      -5.763  12.567  70.456  1.00  0.00     0.000 HD 
HETATM    4  C   UNL     1      -6.565  13.708  68.925  1.00  0.00    -0.105 C  
ENDROOT
BRANCH   4   5
HETATM    5  C   UNL     1      -7.924  14.021  68.296  1.00  0.00    -0.146 C  
BRANCH   5   6
HETATM    6  C   UNL     1      -8.412  15.452  68.556  1.00  0.00    -0.163 C  
BRANCH   6   7
HETATM    7  C   UNL     1      -9.888  15.776  68.156  1.00  0.00    -0.209 C  
HETATM    8  O   UNL     1     -10.411  14.587  67.458  1.00  0.00    -0.251 OA 
HETATM    9  P   UNL     1     -10.854  15.934  69.703  1.00  0.00    -0.372 P  
HETATM   10  P   UNL     1     -10.222  17.217  67.079  1.00  0.00    -0.302 P  
HETATM   11  H   UNL     1     -11.308  14.784  67.215  1.00  0.00     0.000 HD 
HETATM   12  O   UNL     1     -10.505  18.437  66.167  1.00  0.00    -0.422 OA 
HETATM   13  O   UNL     1      -9.314  16.559  65.879  1.00  0.00    -0.435 OA 
HETATM   14  O   UNL     1      -9.011  18.040  67.829  1.00  0.00    -0.250 OA 
HETATM   15  O   UNL     1     -11.672  16.067  71.011  1.00  0.00    -0.391 OA 
HETATM   16  O   UNL     1     -12.200  16.020  68.749  1.00  0.00    -0.136 OA 
HETATM   17  O   UNL     1     -10.916  14.280  69.830  1.00  0.00    -0.188 OA 
ENDBRANCH   6   7
ENDBRANCH   5   6
ENDBRANCH   4   5
TORSDOF 3
ENDMDL
MODEL      148
REMARK 921   NORMALIZED FREE ENERGY PREDICTED BY IDOCK:   -2.95 KCAL/MOL
REMARK 922        TOTAL FREE ENERGY PREDICTED BY IDOCK:   -3.81 KCAL/MOL
REMARK 923 INTER-LIGAND FREE ENERGY PREDICTED BY IDOCK:   -3.57 KCAL/MOL
REMARK 924 INTRA-LIGAND FREE ENERGY PREDICTED BY IDOCK:   -0.23 KCAL/MOL
REMARK 927      BINDING AFFINITY PREDICTED BY RF-SCORE:    0.00 PKD
ROOT
HETATM    1  N   UNL     1     -11.306   4.741  65.565  1.00  0.00    -0.947 NA 
HETATM    2  H2  UNL     1     -12.107   5.283  65.244  1.00  0.00     0.000 HD 
HETATM    3  H1  UNL     1     -10.832   4.286  64.785  1.00  0.00     0.000 HD 
HETATM    4  C   UNL     1     -10.403   5.561  66.361  1.00  0.00    -0.219 C  
ENDROOT
BRANCH   4   5
HETATM    5  C   UNL     1     -11.112   6.243  67.531  1.00  0.00    -0.379 C  
BRANCH   5   6
HETATM    6  C   UNL     1     -10.505   7.598  67.919  1.00  0.00    -0.270 C  
BRANCH   6   7
HETATM    7  C   UNL     1      -9.776   7.674  69.299  1.00  0.00    -0.164 C  
HETATM    8  O   UNL     1      -9.624   6.287  69.778  1.00  0.00    -0.150 OA 
HETATM    9  P   UNL     1      -8.084   8.302  68.992  1.00  0.00    -0.119 P  
HETATM   10  P   UNL     1     -10.543   8.627  70.660  1.00  0.00    -0.233 P  
HETATM   11  H   UNL     1      -9.180   6.333  70.616  1.00  0.00     0.000 HD 
HETATM   12  O   UNL     1     -11.192   9.434  71.812  1.00  0.00    -0.376 OA 
HETATM   13  O   UNL     1     -11.861   7.647  70.633  1.00  0.00    -0.251 OA 
HETATM   14  O   UNL     1     -11.081   9.730  69.564  1.00  0.00    -0.232 OA 
HETATM   15  O   UNL     1      -6.654   8.833  68.733  1.00  0.00    -0.052 OA 
HETATM   16  O   UNL     1      -7.768   7.970  70.579  1.00  0.00    -0.081 OA 
HETATM   17  O   UNL     1      -7.622   6.796  68.471  1.00  0.00    -0.099 OA 
ENDBRANCH   6   7
ENDBRANCH   5   6
ENDBRANCH   4   5
TORSDOF 3
ENDMDL
MODEL      149
REMARK 921   NORMALIZED FREE ENERGY PREDICTED BY IDOCK:   -2.94 KCAL/MOL
REMARK 922        TOTAL FREE ENERGY PREDICTED BY IDOCK:   -3.80 KCAL/MOL
REMARK 923 INTER-LIGAND FREE ENERGY PREDICTED BY IDOCK:   -3.70 KCAL/MOL
REMARK 924 INTRA-LIGAND FREE ENERGY PREDICTED BY IDOCK:   -0.10 KCAL/MOL
REMARK 927      BINDING AFFINITY PREDICTED BY RF-SCORE:    0.00 PKD
ROOT
HETATM    1  N   UNL     1     -10.132  19.525  68.957  1.00  0.00    -0.592 NA 
HETATM    2  H2  UNL     1      -9.394  18.868  69.210  1.00  0.00     0.000 HD 
HETATM    3  H1  UNL     1      -9.960  20.445  69.362  1.00  0.00     0.000 HD 
HETATM    4  C   UNL     1     -10.315  19.578  67.514  1.00  0.00    -0.444 C  
ENDROOT
BRANCH   4   5
HETATM    5  C   UNL     1     -10.573  18.199  66.907  1.00  0.00    -0.326 C  
BRANCH   5   6
HETATM    6  C   UNL     1     -11.014  17.144  67.931  1.00  0.00    -0.208 C  
BRANCH   6   7
HETATM    7  C   UNL     1     -10.417  15.709  67.765  1.00  0.00    -0.273 C  
HETATM    8  O   UNL     1     -11.447  14.762  68.232  1.00  0.00    -0.289 OA 
HETATM    9  P   UNL     1     -10.210  15.404  65.972  1.00  0.00    -0.380 P  
HETATM   10  P   UNL     1      -8.867  15.284  68.639  1.00  0.00    -0.212 P  
HETATM   11  H   UNL     1     -11.084  13.890  68.131  1.00  0.00     0.000 HD 
HETATM   12  O   UNL     1      -7.554  14.924  69.379  1.00  0.00    -0.170 OA 
HETATM   13  O   UNL     1      -9.581  15.567  70.091  1.00  0.00    -0.140 OA 
HETATM   14  O   UNL     1      -8.317  16.812  68.376  1.00  0.00    -0.204 OA 
HETATM   15  O   UNL     1     -10.036  15.146  64.456  1.00  0.00     0.013 OA 
HETATM   16  O   UNL     1      -9.830  13.847  66.371  1.00  0.00    -0.278 OA 
HETATM   17  O   UNL     1     -11.835  15.089  65.841  1.00  0.00    -0.193 OA 
ENDBRANCH   6   7
ENDBRANCH   5   6
ENDBRANCH   4   5
TORSDOF 3
ENDMDL
MODEL      150
REMARK 921   NORMALIZED FREE ENERGY PREDICTED BY IDOCK:   -2.94 KCAL/MOL
REMARK 922        TOTAL FREE ENERGY PREDICTED BY IDOCK:   -3.80 KCAL/MOL
REMARK 923 INTER-LIGAND FREE ENERGY PREDICTED BY IDOCK:   -3.75 KCAL/MOL
REMARK 924 INTRA-LIGAND FREE ENERGY PREDICTED BY IDOCK:   -0.05 KCAL/MOL
REMARK 927      BINDING AFFINITY PREDICTED BY RF-SCORE:    0.00 PKD
ROOT
HETATM    1  N   UNL     1     -11.510   4.799  65.340  1.00  0.00    -1.023 NA 
HETATM    2  H2  UNL     1     -11.670   5.707  64.906  1.00  0.00     0.000 HD 
HETATM    3  H1  UNL     1     -11.257   4.097  64.645  1.00  0.00     0.000 HD 
HETATM    4  C   UNL     1     -10.531   4.895  66.413  1.00  0.00    -0.280 C  
ENDROOT
BRANCH   4   5
HETATM    5  C   UNL     1     -10.910   5.946  67.457  1.00  0.00    -0.335 C  
BRANCH   5   6
HETATM    6  C   UNL     1      -9.880   6.101  68.583  1.00  0.00    -0.160 C  
BRANCH   6   7
HETATM    7  C   UNL     1      -9.541   7.559  69.033  1.00  0.00    -0.153 C  
HETATM    8  O   UNL     1      -8.071   7.648  69.122  1.00  0.00    -0.121 OA 
HETATM    9  P   UNL     1     -10.045   8.682  67.677  1.00  0.00    -0.245 P  
HETATM   10  P   UNL     1     -10.210   8.180  70.619  1.00  0.00    -0.202 P  
HETATM   11  H   UNL     1      -7.866   8.535  69.394  1.00  0.00     0.000 HD 
HETATM   12  O   UNL     1     -10.777   8.705  71.962  1.00  0.00    -0.311 OA 
HETATM   13  O   UNL     1      -9.410   7.005  71.441  1.00  0.00    -0.156 OA 
HETATM   14  O   UNL     1     -11.596   7.336  70.347  1.00  0.00    -0.279 OA 
HETATM   15  O   UNL     1     -10.470   9.632  66.532  1.00  0.00    -0.216 OA 
HETATM   16  O   UNL     1      -9.306   9.893  68.525  1.00  0.00    -0.139 OA 
HETATM   17  O   UNL     1      -8.670   8.282  66.838  1.00  0.00    -0.128 OA 
ENDBRANCH   6   7
ENDBRANCH   5   6
ENDBRANCH   4   5
TORSDOF 3
ENDMDL
MODEL      151
REMARK 921   NORMALIZED FREE ENERGY PREDICTED BY IDOCK:   -2.93 KCAL/MOL
REMARK 922        TOTAL FREE ENERGY PREDICTED BY IDOCK:   -3.79 KCAL/MOL
REMARK 923 INTER-LIGAND FREE ENERGY PREDICTED BY IDOCK:   -3.70 KCAL/MOL
REMARK 924 INTRA-LIGAND FREE ENERGY PREDICTED BY IDOCK:   -0.09 KCAL/MOL
REMARK 927      BINDING AFFINITY PREDICTED BY RF-SCORE:    0.00 PKD
ROOT
HETATM    1  N   UNL     1      -6.522  12.348  66.856  1.00  0.00    -0.457 NA 
HETATM    2  H2  UNL     1      -7.004  11.618  66.333  1.00  0.00     0.000 HD 
HETATM    3  H1  UNL     1      -5.762  12.753  66.310  1.00  0.00     0.000 HD 
HETATM    4  C   UNL     1      -7.459  13.355  67.335  1.00  0.00    -0.123 C  
ENDROOT
BRANCH   4   5
HETATM    5  C   UNL     1      -8.599  12.749  68.154  1.00  0.00    -0.185 C  
BRANCH   5   6
HETATM    6  C   UNL     1      -9.030  11.354  67.680  1.00  0.00    -0.140 C  
BRANCH   6   7
HETATM    7  C   UNL     1     -10.279  11.284  66.744  1.00  0.00    -0.226 C  
HETATM    8  O   UNL     1     -11.264  10.413  67.413  1.00  0.00    -0.301 OA 
HETATM    9  P   UNL     1     -11.021  12.957  66.691  1.00  0.00    -0.293 P  
HETATM   10  P   UNL     1     -10.079  10.651  65.038  1.00  0.00    -0.283 P  
HETATM   11  H   UNL     1     -12.024  10.371  66.844  1.00  0.00     0.000 HD 
HETATM   12  O   UNL     1      -9.910  10.116  63.595  1.00  0.00    -0.232 OA 
HETATM   13  O   UNL     1      -9.569   9.199  65.613  1.00  0.00    -0.262 OA 
HETATM   14  O   UNL     1      -8.604  11.374  64.959  1.00  0.00     0.104 OA 
HETATM   15  O   UNL     1     -11.648  14.371  66.646  1.00  0.00    -0.357 OA 
HETATM   16  O   UNL     1     -12.275  12.278  65.857  1.00  0.00    -0.634 OA 
HETATM   17  O   UNL     1     -11.719  12.691  68.173  1.00  0.00    -0.315 OA 
ENDBRANCH   6   7
ENDBRANCH   5   6
ENDBRANCH   4   5
TORSDOF 3
ENDMDL
MODEL      152
REMARK 921   NORMALIZED FREE ENERGY PREDICTED BY IDOCK:   -2.93 KCAL/MOL
REMARK 922        TOTAL FREE ENERGY PREDICTED BY IDOCK:   -3.78 KCAL/MOL
REMARK 923 INTER-LIGAND FREE ENERGY PREDICTED BY IDOCK:   -3.19 KCAL/MOL
REMARK 924 INTRA-LIGAND FREE ENERGY PREDICTED BY IDOCK:   -0.59 KCAL/MOL
REMARK 927      BINDING AFFINITY PREDICTED BY RF-SCORE:    0.00 PKD
ROOT
HETATM    1  N   UNL     1      -8.648  10.788  68.475  1.00  0.00    -0.141 NA 
HETATM    2  H2  UNL     1      -9.463  11.326  68.768  1.00  0.00     0.000 HD 
HETATM    3  H1  UNL     1      -8.646   9.860  68.900  1.00  0.00     0.000 HD 
HETATM    4  C   UNL     1      -8.550  10.733  67.023  1.00  0.00    -0.130 C  
ENDROOT
BRANCH   4   5
HETATM    5  C   UNL     1      -8.552  12.122  66.386  1.00  0.00    -0.002 C  
BRANCH   5   6
HETATM    6  C   UNL     1      -9.925  12.807  66.396  1.00  0.00    -0.268 C  
BRANCH   6   7
HETATM    7  C   UNL     1     -10.113  13.994  67.394  1.00  0.00    -0.244 C  
HETATM    8  O   UNL     1      -8.906  14.034  68.241  1.00  0.00    -0.175 OA 
HETATM    9  P   UNL     1     -10.109  15.541  66.415  1.00  0.00    -0.330 P  
HETATM   10  P   UNL     1     -11.555  13.990  68.521  1.00  0.00    -0.362 P  
HETATM   11  H   UNL     1      -9.021  14.757  68.848  1.00  0.00     0.000 HD 
HETATM   12  O   UNL     1     -12.776  13.986  69.474  1.00  0.00    -0.109 OA 
HETATM   13  O   UNL     1     -11.042  12.589  69.208  1.00  0.00    -0.220 OA 
HETATM   14  O   UNL     1     -12.466  13.315  67.328  1.00  0.00    -0.163 OA 
HETATM   15  O   UNL     1     -10.104  16.849  65.588  1.00  0.00    -0.546 OA 
HETATM   16  O   UNL     1     -10.096  16.349  67.856  1.00  0.00    -0.239 OA 
HETATM   17  O   UNL     1      -8.453  15.470  66.315  1.00  0.00    -0.262 OA 
ENDBRANCH   6   7
ENDBRANCH   5   6
ENDBRANCH   4   5
TORSDOF 3
ENDMDL
MODEL      153
REMARK 921   NORMALIZED FREE ENERGY PREDICTED BY IDOCK:   -2.91 KCAL/MOL
REMARK 922        TOTAL FREE ENERGY PREDICTED BY IDOCK:   -3.76 KCAL/MOL
REMARK 923 INTER-LIGAND FREE ENERGY PREDICTED BY IDOCK:   -3.45 KCAL/MOL
REMARK 924 INTRA-LIGAND FREE ENERGY PREDICTED BY IDOCK:   -0.31 KCAL/MOL
REMARK 927      BINDING AFFINITY PREDICTED BY RF-SCORE:    0.00 PKD
ROOT
HETATM    1  N   UNL     1      -6.478  16.433  69.704  1.00  0.00    -0.215 NA 
HETATM    2  H2  UNL     1      -7.436  16.563  70.027  1.00  0.00     0.000 HD 
HETATM    3  H1  UNL     1      -5.823  16.428  70.485  1.00  0.00     0.000 HD 
HETATM    4  C   UNL     1      -6.362  15.242  68.874  1.00  0.00    -0.095 C  
ENDROOT
BRANCH   4   5
HETATM    5  C   UNL     1      -7.344  15.249  67.702  1.00  0.00    -0.201 C  
BRANCH   5   6
HETATM    6  C   UNL     1      -8.818  15.237  68.129  1.00  0.00    -0.171 C  
BRANCH   6   7
HETATM    7  C   UNL     1      -9.755  16.289  67.453  1.00  0.00    -0.234 C  
HETATM    8  O   UNL     1     -10.594  16.862  68.523  1.00  0.00    -0.327 OA 
HETATM    9  P   UNL     1      -8.698  17.653  66.841  1.00  0.00    -0.262 P  
HETATM   10  P   UNL     1     -10.886  15.749  66.120  1.00  0.00    -0.111 P  
HETATM   11  H   UNL     1     -11.163  17.503  68.112  1.00  0.00     0.000 HD 
HETATM   12  O   UNL     1     -11.843  15.291  64.992  1.00  0.00    -0.232 OA 
HETATM   13  O   UNL     1     -11.643  14.717  67.150  1.00  0.00    -0.370 OA 
HETATM   14  O   UNL     1      -9.734  14.703  65.587  1.00  0.00    -0.328 OA 
HETATM   15  O   UNL     1      -7.804  18.805  66.323  1.00  0.00    -0.274 OA 
HETATM   16  O   UNL     1     -10.095  18.464  66.497  1.00  0.00    -0.344 OA 
HETATM   17  O   UNL     1      -8.595  18.262  68.382  1.00  0.00    -0.288 OA 
ENDBRANCH   6   7
ENDBRANCH   5   6
ENDBRANCH   4   5
TORSDOF 3
ENDMDL
MODEL      154
REMARK 921   NORMALIZED FREE ENERGY PREDICTED BY IDOCK:   -2.91 KCAL/MOL
REMARK 922        TOTAL FREE ENERGY PREDICTED BY IDOCK:   -3.76 KCAL/MOL
REMARK 923 INTER-LIGAND FREE ENERGY PREDICTED BY IDOCK:   -3.50 KCAL/MOL
REMARK 924 INTRA-LIGAND FREE ENERGY PREDICTED BY IDOCK:   -0.26 KCAL/MOL
REMARK 927      BINDING AFFINITY PREDICTED BY RF-SCORE:    0.00 PKD
ROOT
HETATM    1  N   UNL     1      -6.450  19.929  64.209  1.00  0.00    -0.305 NA 
HETATM    2  H2  UNL     1      -6.509  20.831  64.681  1.00  0.00     0.000 HD 
HETATM    3  H1  UNL     1      -6.378  20.047  63.198  1.00  0.00     0.000 HD 
HETATM    4  C   UNL     1      -5.367  19.123  64.752  1.00  0.00    -0.198 C  
ENDROOT
BRANCH   4   5
HETATM    5  C   UNL     1      -5.475  18.945  66.267  1.00  0.00    -0.175 C  
BRANCH   5   6
HETATM    6  C   UNL     1      -5.771  17.503  66.702  1.00  0.00    -0.225 C  
BRANCH   6   7
HETATM    7  C   UNL     1      -7.039  17.281  67.587  1.00  0.00    -0.164 C  
HETATM    8  O   UNL     1      -7.378  18.588  68.183  1.00  0.00    -0.247 OA 
HETATM    9  P   UNL     1      -8.422  16.851  66.467  1.00  0.00    -0.299 P  
HETATM   10  P   UNL     1      -6.967  16.073  68.959  1.00  0.00    -0.186 P  
HETATM   11  H   UNL     1      -8.150  18.453  68.720  1.00  0.00     0.000 HD 
HETATM   12  O   UNL     1      -6.906  15.049  70.120  1.00  0.00    -0.164 OA 
HETATM   13  O   UNL     1      -5.768  16.931  69.682  1.00  0.00    -0.178 OA 
HETATM   14  O   UNL     1      -6.006  15.107  68.038  1.00  0.00    -0.126 OA 
HETATM   15  O   UNL     1      -9.590  16.488  65.520  1.00  0.00    -0.502 OA 
HETATM   16  O   UNL     1      -9.409  16.965  67.786  1.00  0.00    -0.231 OA 
HETATM   17  O   UNL     1      -8.591  18.453  66.065  1.00  0.00    -0.501 OA 
ENDBRANCH   6   7
ENDBRANCH   5   6
ENDBRANCH   4   5
TORSDOF 3
ENDMDL
MODEL      155
REMARK 921   NORMALIZED FREE ENERGY PREDICTED BY IDOCK:   -2.90 KCAL/MOL
REMARK 922        TOTAL FREE ENERGY PREDICTED BY IDOCK:   -3.75 KCAL/MOL
REMARK 923 INTER-LIGAND FREE ENERGY PREDICTED BY IDOCK:   -3.14 KCAL/MOL
REMARK 924 INTRA-LIGAND FREE ENERGY PREDICTED BY IDOCK:   -0.61 KCAL/MOL
REMARK 927      BINDING AFFINITY PREDICTED BY RF-SCORE:    0.00 PKD
ROOT
HETATM    1  N   UNL     1      -7.682  10.128  68.941  1.00  0.00    -0.086 NA 
HETATM    2  H2  UNL     1      -7.298   9.676  69.770  1.00  0.00     0.000 HD 
HETATM    3  H1  UNL     1      -7.219  11.018  68.757  1.00  0.00     0.000 HD 
HETATM    4  C   UNL     1      -7.643   9.234  67.791  1.00  0.00    -0.084 C  
ENDROOT
BRANCH   4   5
HETATM    5  C   UNL     1      -8.339   7.901  68.065  1.00  0.00    -0.123 C  
BRANCH   5   6
HETATM    6  C   UNL     1      -8.656   7.660  69.548  1.00  0.00    -0.132 C  
BRANCH   6   7
HETATM    7  C   UNL     1     -10.166   7.639  69.950  1.00  0.00    -0.215 C  
HETATM    8  O   UNL     1     -10.935   7.433  68.708  1.00  0.00    -0.412 OA 
HETATM    9  P   UNL     1     -10.439   6.150  70.979  1.00  0.00    -0.250 P  
HETATM   10  P   UNL     1     -10.885   9.099  70.787  1.00  0.00    -0.323 P  
HETATM   11  H   UNL     1     -11.853   7.419  68.953  1.00  0.00     0.000 HD 
HETATM   12  O   UNL     1     -11.493  10.334  71.496  1.00  0.00    -0.215 OA 
HETATM   13  O   UNL     1     -10.533  10.043  69.490  1.00  0.00    -0.207 OA 
HETATM   14  O   UNL     1      -9.468   9.316  71.593  1.00  0.00    -0.294 OA 
HETATM   15  O   UNL     1     -10.670   4.890  71.849  1.00  0.00    -0.163 OA 
HETATM   16  O   UNL     1     -12.052   6.498  70.899  1.00  0.00    -0.355 OA 
HETATM   17  O   UNL     1     -10.462   5.211  69.610  1.00  0.00    -0.280 OA 
ENDBRANCH   6   7
ENDBRANCH   5   6
ENDBRANCH   4   5
TORSDOF 3
ENDMDL
MODEL      156
REMARK 921   NORMALIZED FREE ENERGY PREDICTED BY IDOCK:   -2.89 KCAL/MOL
REMARK 922        TOTAL FREE ENERGY PREDICTED BY IDOCK:   -3.74 KCAL/MOL
REMARK 923 INTER-LIGAND FREE ENERGY PREDICTED BY IDOCK:   -3.60 KCAL/MOL
REMARK 924 INTRA-LIGAND FREE ENERGY PREDICTED BY IDOCK:   -0.14 KCAL/MOL
REMARK 927      BINDING AFFINITY PREDICTED BY RF-SCORE:    0.00 PKD
ROOT
HETATM    1  N   UNL     1     -12.007  12.462  66.362  1.00  0.00    -0.607 NA 
HETATM    2  H2  UNL     1     -11.673  12.247  65.423  1.00  0.00     0.000 HD 
HETATM    3  H1  UNL     1     -12.673  11.761  66.686  1.00  0.00     0.000 HD 
HETATM    4  C   UNL     1     -10.895  12.639  67.285  1.00  0.00    -0.248 C  
ENDROOT
BRANCH   4   5
HETATM    5  C   UNL     1      -9.896  13.690  66.801  1.00  0.00    -0.271 C  
BRANCH   5   6
HETATM    6  C   UNL     1      -9.507  14.717  67.874  1.00  0.00    -0.210 C  
BRANCH   6   7
HETATM    7  C   UNL     1      -8.439  15.784  67.473  1.00  0.00    -0.168 C  
HETATM    8  O   UNL     1      -8.357  15.774  66.000  1.00  0.00    -0.299 OA 
HETATM    9  P   UNL     1      -9.099  17.425  67.941  1.00  0.00    -0.267 P  
HETATM   10  P   UNL     1      -6.729  15.612  68.102  1.00  0.00    -0.149 P  
HETATM   11  H   UNL     1      -7.708  16.423  65.756  1.00  0.00     0.000 HD 
HETATM   12  O   UNL     1      -5.282  15.467  68.635  1.00  0.00    -0.089 OA 
HETATM   13  O   UNL     1      -6.571  14.164  67.343  1.00  0.00    -0.282 OA 
HETATM   14  O   UNL     1      -7.326  15.039  69.524  1.00  0.00    -0.185 OA 
HETATM   15  O   UNL     1      -9.658  18.813  68.338  1.00  0.00    -0.328 OA 
HETATM   16  O   UNL     1      -7.805  18.075  67.147  1.00  0.00    -0.210 OA 
HETATM   17  O   UNL     1     -10.065  17.420  66.591  1.00  0.00    -0.292 OA 
ENDBRANCH   6   7
ENDBRANCH   5   6
ENDBRANCH   4   5
TORSDOF 3
ENDMDL
MODEL      157
REMARK 921   NORMALIZED FREE ENERGY PREDICTED BY IDOCK:   -2.88 KCAL/MOL
REMARK 922        TOTAL FREE ENERGY PREDICTED BY IDOCK:   -3.73 KCAL/MOL
REMARK 923 INTER-LIGAND FREE ENERGY PREDICTED BY IDOCK:   -3.20 KCAL/MOL
REMARK 924 INTRA-LIGAND FREE ENERGY PREDICTED BY IDOCK:   -0.53 KCAL/MOL
REMARK 927      BINDING AFFINITY PREDICTED BY RF-SCORE:    0.00 PKD
ROOT
HETATM    1  N   UNL     1     -10.275  12.445  69.068  1.00  0.00    -0.427 NA 
HETATM    2  H2  UNL     1      -9.855  11.937  69.846  1.00  0.00     0.000 HD 
HETATM    3  H1  UNL     1      -9.697  13.239  68.791  1.00  0.00     0.000 HD 
HETATM    4  C   UNL     1     -10.562  11.554  67.953  1.00  0.00    -0.191 C  
ENDROOT
BRANCH   4   5
HETATM    5  C   UNL     1     -11.429  10.364  68.367  1.00  0.00    -0.227 C  
BRANCH   5   6
HETATM    6  C   UNL     1     -10.624   9.119  68.766  1.00  0.00    -0.208 C  
BRANCH   6   7
HETATM    7  C   UNL     1     -10.282   8.959  70.282  1.00  0.00    -0.201 C  
HETATM    8  O   UNL     1     -10.757  10.181  70.959  1.00  0.00    -0.322 OA 
HETATM    9  P   UNL     1     -11.297   7.582  70.932  1.00  0.00    -0.277 P  
HETATM   10  P   UNL     1      -8.537   8.718  70.779  1.00  0.00    -0.223 P  
HETATM   11  H   UNL     1     -10.548  10.083  71.880  1.00  0.00     0.000 HD 
HETATM   12  O   UNL     1      -7.060   8.514  71.200  1.00  0.00    -0.058 OA 
HETATM   13  O   UNL     1      -8.129  10.172  70.133  1.00  0.00    -0.146 OA 
HETATM   14  O   UNL     1      -8.292   7.813  69.428  1.00  0.00    -0.129 OA 
HETATM   15  O   UNL     1     -12.156   6.417  71.482  1.00  0.00    -0.328 OA 
HETATM   16  O   UNL     1     -10.749   8.002  72.433  1.00  0.00    -0.269 OA 
HETATM   17  O   UNL     1     -12.613   8.591  71.009  1.00  0.00    -0.197 OA 
ENDBRANCH   6   7
ENDBRANCH   5   6
ENDBRANCH   4   5
TORSDOF 3
ENDMDL
MODEL      158
REMARK 921   NORMALIZED FREE ENERGY PREDICTED BY IDOCK:   -2.87 KCAL/MOL
REMARK 922        TOTAL FREE ENERGY PREDICTED BY IDOCK:   -3.72 KCAL/MOL
REMARK 923 INTER-LIGAND FREE ENERGY PREDICTED BY IDOCK:   -3.65 KCAL/MOL
REMARK 924 INTRA-LIGAND FREE ENERGY PREDICTED BY IDOCK:   -0.07 KCAL/MOL
REMARK 927      BINDING AFFINITY PREDICTED BY RF-SCORE:    0.00 PKD
ROOT
HETATM    1  N   UNL     1     -11.712  14.699  71.247  1.00  0.00    -0.464 NA 
HETATM    2  H2  UNL     1     -11.636  15.713  71.179  1.00  0.00     0.000 HD 
HETATM    3  H1  UNL     1     -12.289  14.425  72.042  1.00  0.00     0.000 HD 
HETATM    4  C   UNL     1     -12.183  14.123  69.995  1.00  0.00    -0.357 C  
ENDROOT
BRANCH   4   5
HETATM    5  C   UNL     1     -11.319  14.533  68.803  1.00  0.00    -0.298 C  
BRANCH   5   6
HETATM    6  C   UNL     1     -11.427  16.020  68.441  1.00  0.00    -0.331 C  
BRANCH   6   7
HETATM    7  C   UNL     1     -10.094  16.834  68.400  1.00  0.00    -0.285 C  
HETATM    8  O   UNL     1     -10.036  17.621  69.647  1.00  0.00    -0.008 OA 
HETATM    9  P   UNL     1      -8.715  15.633  68.484  1.00  0.00    -0.207 P  
HETATM   10  P   UNL     1      -9.804  18.000  67.020  1.00  0.00    -0.354 P  
HETATM   11  H   UNL     1      -9.225  18.116  69.622  1.00  0.00     0.000 HD 
HETATM   12  O   UNL     1      -9.559  18.987  65.851  1.00  0.00    -0.460 OA 
HETATM   13  O   UNL     1     -11.128  18.872  67.449  1.00  0.00    -0.359 OA 
HETATM   14  O   UNL     1     -10.564  16.957  65.999  1.00  0.00    -0.304 OA 
HETATM   15  O   UNL     1      -7.549  14.618  68.556  1.00  0.00    -0.107 OA 
HETATM   16  O   UNL     1      -7.708  16.934  68.634  1.00  0.00    -0.212 OA 
HETATM   17  O   UNL     1      -8.946  15.485  70.121  1.00  0.00     0.098 OA 
ENDBRANCH   6   7
ENDBRANCH   5   6
ENDBRANCH   4   5
TORSDOF 3
ENDMDL
MODEL      159
REMARK 921   NORMALIZED FREE ENERGY PREDICTED BY IDOCK:   -2.87 KCAL/MOL
REMARK 922        TOTAL FREE ENERGY PREDICTED BY IDOCK:   -3.72 KCAL/MOL
REMARK 923 INTER-LIGAND FREE ENERGY PREDICTED BY IDOCK:   -3.53 KCAL/MOL
REMARK 924 INTRA-LIGAND FREE ENERGY PREDICTED BY IDOCK:   -0.19 KCAL/MOL
REMARK 927      BINDING AFFINITY PREDICTED BY RF-SCORE:    0.00 PKD
ROOT
HETATM    1  N   UNL     1     -11.595  14.279  70.254  1.00  0.00    -0.414 NA 
HETATM    2  H2  UNL     1     -10.649  13.947  70.438  1.00  0.00     0.000 HD 
HETATM    3  H1  UNL     1     -12.044  14.604  71.110  1.00  0.00     0.000 HD 
HETATM    4  C   UNL     1     -11.602  15.290  69.206  1.00  0.00    -0.332 C  
ENDROOT
BRANCH   4   5
HETATM    5  C   UNL     1     -10.930  14.803  67.922  1.00  0.00    -0.282 C  
BRANCH   5   6
HETATM    6  C   UNL     1     -10.744  13.281  67.858  1.00  0.00    -0.252 C  
BRANCH   6   7
HETATM    7  C   UNL     1      -9.615  12.748  66.918  1.00  0.00    -0.235 C  
HETATM    8  O   UNL     1      -8.924  13.930  66.368  1.00  0.00    -0.452 OA 
HETATM    9  P   UNL     1      -8.393  11.877  67.966  1.00  0.00    -0.175 P  
HETATM   10  P   UNL     1     -10.068  11.686  65.498  1.00  0.00    -0.264 P  
HETATM   11  H   UNL     1      -8.238  13.605  65.797  1.00  0.00     0.000 HD 
HETATM   12  O   UNL     1     -10.450  10.787  64.296  1.00  0.00    -0.367 OA 
HETATM   13  O   UNL     1     -10.981  12.892  64.859  1.00  0.00    -0.284 OA 
HETATM   14  O   UNL     1     -11.247  10.993  66.411  1.00  0.00    -0.156 OA 
HETATM   15  O   UNL     1      -7.359  11.141  68.852  1.00  0.00    -0.094 OA 
HETATM   16  O   UNL     1      -7.445  11.769  66.617  1.00  0.00    -0.095 OA 
HETATM   17  O   UNL     1      -7.755  13.337  68.431  1.00  0.00    -0.128 OA 
ENDBRANCH   6   7
ENDBRANCH   5   6
ENDBRANCH   4   5
TORSDOF 3
ENDMDL
MODEL      160
REMARK 921   NORMALIZED FREE ENERGY PREDICTED BY IDOCK:   -2.84 KCAL/MOL
REMARK 922        TOTAL FREE ENERGY PREDICTED BY IDOCK:   -3.69 KCAL/MOL
REMARK 923 INTER-LIGAND FREE ENERGY PREDICTED BY IDOCK:   -3.44 KCAL/MOL
REMARK 924 INTRA-LIGAND FREE ENERGY PREDICTED BY IDOCK:   -0.25 KCAL/MOL
REMARK 927      BINDING AFFINITY PREDICTED BY RF-SCORE:    0.00 PKD
ROOT
HETATM    1  N   UNL     1     -12.553   9.567  70.561  1.00  0.00    -0.497 NA 
HETATM    2  H2  UNL     1     -12.655   9.291  69.585  1.00  0.00     0.000 HD 
HETATM    3  H1  UNL     1     -13.237   9.092  71.151  1.00  0.00     0.000 HD 
HETATM    4  C   UNL     1     -11.187   9.366  71.022  1.00  0.00    -0.342 C  
ENDROOT
BRANCH   4   5
HETATM    5  C   UNL     1     -10.162  10.077  70.138  1.00  0.00    -0.297 C  
BRANCH   5   6
HETATM    6  C   UNL     1      -9.919   9.383  68.791  1.00  0.00    -0.191 C  
BRANCH   6   7
HETATM    7  C   UNL     1      -9.816  10.304  67.533  1.00  0.00    -0.173 C  
HETATM    8  O   UNL     1     -10.651   9.689  66.484  1.00  0.00    -0.174 OA 
HETATM    9  P   UNL     1     -10.610  11.899  67.954  1.00  0.00    -0.221 P  
HETATM   10  P   UNL     1      -8.173  10.618  66.791  1.00  0.00    -0.140 P  
HETATM   11  H   UNL     1     -10.588  10.249  65.719  1.00  0.00     0.000 HD 
HETATM   12  O   UNL     1      -6.782  10.884  66.164  1.00  0.00    -0.130 OA 
HETATM   13  O   UNL     1      -7.980   9.016  66.486  1.00  0.00    -0.102 OA 
HETATM   14  O   UNL     1      -7.511  10.625  68.297  1.00  0.00    -0.086 OA 
HETATM   15  O   UNL     1     -11.281  13.248  68.310  1.00  0.00    -0.248 OA 
HETATM   16  O   UNL     1     -10.431  12.307  66.363  1.00  0.00    -0.230 OA 
HETATM   17  O   UNL     1     -12.104  11.214  67.724  1.00  0.00    -0.606 OA 
ENDBRANCH   6   7
ENDBRANCH   5   6
ENDBRANCH   4   5
TORSDOF 3
ENDMDL
MODEL      161
REMARK 921   NORMALIZED FREE ENERGY PREDICTED BY IDOCK:   -2.84 KCAL/MOL
REMARK 922        TOTAL FREE ENERGY PREDICTED BY IDOCK:   -3.68 KCAL/MOL
REMARK 923 INTER-LIGAND FREE ENERGY PREDICTED BY IDOCK:   -4.07 KCAL/MOL
REMARK 924 INTRA-LIGAND FREE ENERGY PREDICTED BY IDOCK:    0.38 KCAL/MOL
REMARK 927      BINDING AFFINITY PREDICTED BY RF-SCORE:    0.00 PKD
ROOT
HETATM    1  N   UNL     1     -12.039  14.700  69.703  1.00  0.00    -0.372 NA 
HETATM    2  H2  UNL     1     -11.667  13.781  69.943  1.00  0.00     0.000 HD 
HETATM    3  H1  UNL     1     -12.971  14.834  70.093  1.00  0.00     0.000 HD 
HETATM    4  C   UNL     1     -11.117  15.757  70.093  1.00  0.00    -0.352 C  
ENDROOT
BRANCH   4   5
HETATM    5  C   UNL     1      -9.718  15.557  69.508  1.00  0.00    -0.282 C  
BRANCH   5   6
HETATM    6  C   UNL     1      -8.984  16.868  69.196  1.00  0.00    -0.080 C  
BRANCH   6   7
HETATM    7  C   UNL     1      -8.970  17.329  67.703  1.00  0.00    -0.224 C  
HETATM    8  O   UNL     1      -7.626  17.024  67.175  1.00  0.00    -0.155 OA 
HETATM    9  P   UNL     1     -10.138  16.258  66.787  1.00  0.00    -0.296 P  
HETATM   10  P   UNL     1      -9.312  19.083  67.309  1.00  0.00    -0.319 P  
HETATM   11  H   UNL     1      -7.618  17.304  66.267  1.00  0.00     0.000 HD 
HETATM   12  O   UNL     1      -9.602  20.568  66.976  1.00  0.00    -0.423 OA 
HETATM   13  O   UNL     1      -8.007  19.558  68.187  1.00  0.00    -0.300 OA 
HETATM   14  O   UNL     1     -10.412  19.127  68.531  1.00  0.00    -0.326 OA 
HETATM   15  O   UNL     1     -11.126  15.353  66.012  1.00  0.00    -0.313 OA 
HETATM   16  O   UNL     1      -9.573  16.972  65.408  1.00  0.00    -0.393 OA 
HETATM   17  O   UNL     1      -9.002  15.048  66.756  1.00  0.00    -0.233 OA 
ENDBRANCH   6   7
ENDBRANCH   5   6
ENDBRANCH   4   5
TORSDOF 3
ENDMDL
MODEL      162
REMARK 921   NORMALIZED FREE ENERGY PREDICTED BY IDOCK:   -2.83 KCAL/MOL
REMARK 922        TOTAL FREE ENERGY PREDICTED BY IDOCK:   -3.68 KCAL/MOL
REMARK 923 INTER-LIGAND FREE ENERGY PREDICTED BY IDOCK:   -3.37 KCAL/MOL
REMARK 924 INTRA-LIGAND FREE ENERGY PREDICTED BY IDOCK:   -0.31 KCAL/MOL
REMARK 927      BINDING AFFINITY PREDICTED BY RF-SCORE:    0.00 PKD
ROOT
HETATM    1  N   UNL     1     -11.313   5.794  72.397  1.00  0.00    -0.293 NA 
HETATM    2  H2  UNL     1     -10.653   5.567  71.654  1.00  0.00     0.000 HD 
HETATM    3  H1  UNL     1     -11.386   5.032  73.071  1.00  0.00     0.000 HD 
HETATM    4  C   UNL     1     -10.977   7.062  73.028  1.00  0.00    -0.292 C  
ENDROOT
BRANCH   4   5
HETATM    5  C   UNL     1     -10.868   8.205  72.019  1.00  0.00    -0.349 C  
BRANCH   5   6
HETATM    6  C   UNL     1     -11.346   7.834  70.608  1.00  0.00    -0.275 C  
BRANCH   6   7
HETATM    7  C   UNL     1     -10.345   8.090  69.436  1.00  0.00    -0.217 C  
HETATM    8  O   UNL     1     -11.049   8.932  68.450  1.00  0.00    -0.455 OA 
HETATM    9  P   UNL     1      -8.973   9.107  70.097  1.00  0.00    -0.236 P  
HETATM   10  P   UNL     1      -9.659   6.660  68.523  1.00  0.00    -0.125 P  
HETATM   11  H   UNL     1     -10.440   9.088  67.738  1.00  0.00     0.000 HD 
HETATM   12  O   UNL     1      -9.078   5.450  67.751  1.00  0.00    -0.109 OA 
HETATM   13  O   UNL     1     -11.166   6.209  68.052  1.00  0.00    -0.310 OA 
HETATM   14  O   UNL     1      -9.614   5.804  69.927  1.00  0.00    -0.151 OA 
HETATM   15  O   UNL     1      -7.814   9.967  70.655  1.00  0.00    -0.278 OA 
HETATM   16  O   UNL     1      -8.438   9.238  68.539  1.00  0.00    -0.121 OA 
HETATM   17  O   UNL     1      -9.931  10.459  69.997  1.00  0.00    -0.156 OA 
ENDBRANCH   6   7
ENDBRANCH   5   6
ENDBRANCH   4   5
TORSDOF 3
ENDMDL
MODEL      163
REMARK 921   NORMALIZED FREE ENERGY PREDICTED BY IDOCK:   -2.82 KCAL/MOL
REMARK 922        TOTAL FREE ENERGY PREDICTED BY IDOCK:   -3.66 KCAL/MOL
REMARK 923 INTER-LIGAND FREE ENERGY PREDICTED BY IDOCK:   -3.39 KCAL/MOL
REMARK 924 INTRA-LIGAND FREE ENERGY PREDICTED BY IDOCK:   -0.27 KCAL/MOL
REMARK 927      BINDING AFFINITY PREDICTED BY RF-SCORE:    0.00 PKD
ROOT
HETATM    1  N   UNL     1     -10.090  12.875  64.350  1.00  0.00    -0.594 NA 
HETATM    2  H2  UNL     1      -9.346  12.915  65.047  1.00  0.00     0.000 HD 
HETATM    3  H1  UNL     1     -10.025  13.655  63.697  1.00  0.00     0.000 HD 
HETATM    4  C   UNL     1     -10.107  11.585  63.675  1.00  0.00    -0.388 C  
ENDROOT
BRANCH   4   5
HETATM    5  C   UNL     1     -10.206  10.415  64.655  1.00  0.00    -0.305 C  
BRANCH   5   6
HETATM    6  C   UNL     1     -10.622  10.828  66.073  1.00  0.00    -0.224 C  
BRANCH   6   7
HETATM    7  C   UNL     1      -9.840  10.172  67.256  1.00  0.00    -0.183 C  
HETATM    8  O   UNL     1     -10.842   9.780  68.265  1.00  0.00    -0.301 OA 
HETATM    9  P   UNL     1      -9.103   8.617  66.631  1.00  0.00    -0.191 P  
HETATM   10  P   UNL     1      -8.559  11.147  68.126  1.00  0.00    -0.151 P  
HETATM   11  H   UNL     1     -10.366   9.381  68.984  1.00  0.00     0.000 HD 
HETATM   12  O   UNL     1      -7.475  11.972  68.863  1.00  0.00    -0.108 OA 
HETATM   13  O   UNL     1      -9.681  12.258  68.578  1.00  0.00    -0.203 OA 
HETATM   14  O   UNL     1      -8.139  11.843  66.697  1.00  0.00    -0.151 OA 
HETATM   15  O   UNL     1      -8.480   7.302  66.103  1.00  0.00    -0.128 OA 
HETATM   16  O   UNL     1      -8.671   8.297  68.193  1.00  0.00    -0.135 OA 
HETATM   17  O   UNL     1     -10.577   7.865  66.769  1.00  0.00    -0.326 OA 
ENDBRANCH   6   7
ENDBRANCH   5   6
ENDBRANCH   4   5
TORSDOF 3
ENDMDL
MODEL      164
REMARK 921   NORMALIZED FREE ENERGY PREDICTED BY IDOCK:   -2.81 KCAL/MOL
REMARK 922        TOTAL FREE ENERGY PREDICTED BY IDOCK:   -3.65 KCAL/MOL
REMARK 923 INTER-LIGAND FREE ENERGY PREDICTED BY IDOCK:   -3.48 KCAL/MOL
REMARK 924 INTRA-LIGAND FREE ENERGY PREDICTED BY IDOCK:   -0.17 KCAL/MOL
REMARK 927      BINDING AFFINITY PREDICTED BY RF-SCORE:    0.00 PKD
ROOT
HETATM    1  N   UNL     1      -7.114  12.639  69.638  1.00  0.00    -0.312 NA 
HETATM    2  H2  UNL     1      -7.780  11.968  70.021  1.00  0.00     0.000 HD 
HETATM    3  H1  UNL     1      -6.349  12.811  70.290  1.00  0.00     0.000 HD 
HETATM    4  C   UNL     1      -6.642  12.219  68.327  1.00  0.00    -0.058 C  
ENDROOT
BRANCH   4   5
HETATM    5  C   UNL     1      -7.788  11.962  67.348  1.00  0.00    -0.158 C  
BRANCH   5   6
HETATM    6  C   UNL     1      -8.611  13.214  67.015  1.00  0.00    -0.168 C  
BRANCH   6   7
HETATM    7  C   UNL     1     -10.166  13.063  67.047  1.00  0.00    -0.245 C  
HETATM    8  O   UNL     1     -10.644  13.280  65.668  1.00  0.00    -0.274 OA 
HETATM    9  P   UNL     1     -10.541  11.318  67.454  1.00  0.00    -0.254 P  
HETATM   10  P   UNL     1     -11.145  14.166  68.131  1.00  0.00    -0.284 P  
HETATM   11  H   UNL     1     -11.590  13.187  65.688  1.00  0.00     0.000 HD 
HETATM   12  O   UNL     1     -11.974  15.099  69.048  1.00  0.00    -0.309 OA 
HETATM   13  O   UNL     1     -10.600  15.485  67.318  1.00  0.00    -0.287 OA 
HETATM   14  O   UNL     1      -9.945  14.102  69.254  1.00  0.00    -0.045 OA 
HETATM   15  O   UNL     1     -10.857   9.843  67.799  1.00  0.00    -0.268 OA 
HETATM   16  O   UNL     1     -12.122  11.676  67.139  1.00  0.00    -0.575 OA 
HETATM   17  O   UNL     1     -10.212  10.884  65.886  1.00  0.00    -0.242 OA 
ENDBRANCH   6   7
ENDBRANCH   5   6
ENDBRANCH   4   5
TORSDOF 3
ENDMDL
MODEL      165
REMARK 921   NORMALIZED FREE ENERGY PREDICTED BY IDOCK:   -2.81 KCAL/MOL
REMARK 922        TOTAL FREE ENERGY PREDICTED BY IDOCK:   -3.65 KCAL/MOL
REMARK 923 INTER-LIGAND FREE ENERGY PREDICTED BY IDOCK:   -3.70 KCAL/MOL
REMARK 924 INTRA-LIGAND FREE ENERGY PREDICTED BY IDOCK:    0.05 KCAL/MOL
REMARK 927      BINDING AFFINITY PREDICTED BY RF-SCORE:    0.00 PKD
ROOT
HETATM    1  N   UNL     1     -13.275  10.115  69.913  1.00  0.00    -0.301 NA 
HETATM    2  H2  UNL     1     -13.227   9.299  69.305  1.00  0.00     0.000 HD 
HETATM    3  H1  UNL     1     -14.036  10.028  70.587  1.00  0.00     0.000 HD 
HETATM    4  C   UNL     1     -11.992  10.368  70.554  1.00  0.00    -0.334 C  
ENDROOT
BRANCH   4   5
HETATM    5  C   UNL     1     -10.852  10.500  69.544  1.00  0.00    -0.298 C  
BRANCH   5   6
HETATM    6  C   UNL     1     -10.816  11.855  68.823  1.00  0.00    -0.270 C  
BRANCH   6   7
HETATM    7  C   UNL     1     -10.216  11.869  67.380  1.00  0.00    -0.196 C  
HETATM    8  O   UNL     1     -10.624  10.606  66.736  1.00  0.00    -0.248 OA 
HETATM    9  P   UNL     1     -11.045  13.212  66.454  1.00  0.00    -0.305 P  
HETATM   10  P   UNL     1      -8.404  12.013  67.171  1.00  0.00    -0.171 P  
HETATM   11  H   UNL     1     -10.260  10.615  65.859  1.00  0.00     0.000 HD 
HETATM   12  O   UNL     1      -6.870  12.135  66.994  1.00  0.00    -0.137 OA 
HETATM   13  O   UNL     1      -8.175  10.611  67.996  1.00  0.00    -0.110 OA 
HETATM   14  O   UNL     1      -8.350  13.027  68.465  1.00  0.00    -0.139 OA 
HETATM   15  O   UNL     1     -11.747  14.348  65.670  1.00  0.00    -0.347 OA 
HETATM   16  O   UNL     1     -10.272  12.643  65.109  1.00  0.00    -0.287 OA 
HETATM   17  O   UNL     1     -12.373  12.239  66.236  1.00  0.00    -0.556 OA 
ENDBRANCH   6   7
ENDBRANCH   5   6
ENDBRANCH   4   5
TORSDOF 3
ENDMDL
MODEL      166
REMARK 921   NORMALIZED FREE ENERGY PREDICTED BY IDOCK:   -2.80 KCAL/MOL
REMARK 922        TOTAL FREE ENERGY PREDICTED BY IDOCK:   -3.63 KCAL/MOL
REMARK 923 INTER-LIGAND FREE ENERGY PREDICTED BY IDOCK:   -3.36 KCAL/MOL
REMARK 924 INTRA-LIGAND FREE ENERGY PREDICTED BY IDOCK:   -0.27 KCAL/MOL
REMARK 927      BINDING AFFINITY PREDICTED BY RF-SCORE:    0.00 PKD
ROOT
HETATM    1  N   UNL     1      -7.452  10.892  65.436  1.00  0.00    -0.362 NA 
HETATM    2  H2  UNL     1      -8.075  11.536  64.948  1.00  0.00     0.000 HD 
HETATM    3  H1  UNL     1      -6.786  10.465  64.793  1.00  0.00     0.000 HD 
HETATM    4  C   UNL     1      -6.797  11.548  66.559  1.00  0.00    -0.016 C  
ENDROOT
BRANCH   4   5
HETATM    5  C   UNL     1      -7.794  12.188  67.524  1.00  0.00    -0.162 C  
BRANCH   5   6
HETATM    6  C   UNL     1      -8.253  11.254  68.652  1.00  0.00    -0.146 C  
BRANCH   6   7
HETATM    7  C   UNL     1      -9.736  10.765  68.603  1.00  0.00    -0.186 C  
HETATM    8  O   UNL     1     -10.339  11.103  69.907  1.00  0.00    -0.407 OA 
HETATM    9  P   UNL     1     -10.607  11.780  67.354  1.00  0.00    -0.246 P  
HETATM   10  P   UNL     1     -10.080   8.994  68.299  1.00  0.00    -0.206 P  
HETATM   11  H   UNL     1     -11.241  10.806  69.877  1.00  0.00     0.000 HD 
HETATM   12  O   UNL     1     -10.372   7.495  68.041  1.00  0.00    -0.190 OA 
HETATM   13  O   UNL     1      -9.265   8.578  69.663  1.00  0.00    -0.154 OA 
HETATM   14  O   UNL     1      -8.801   8.939  67.266  1.00  0.00    -0.127 OA 
HETATM   15  O   UNL     1     -11.344  12.638  66.297  1.00  0.00    -0.295 OA 
HETATM   16  O   UNL     1     -12.001  11.058  67.869  1.00  0.00    -0.620 OA 
HETATM   17  O   UNL     1     -10.719  13.025  68.446  1.00  0.00    -0.241 OA 
ENDBRANCH   6   7
ENDBRANCH   5   6
ENDBRANCH   4   5
TORSDOF 3
ENDMDL
MODEL      167
REMARK 921   NORMALIZED FREE ENERGY PREDICTED BY IDOCK:   -2.76 KCAL/MOL
REMARK 922        TOTAL FREE ENERGY PREDICTED BY IDOCK:   -3.58 KCAL/MOL
REMARK 923 INTER-LIGAND FREE ENERGY PREDICTED BY IDOCK:   -2.92 KCAL/MOL
REMARK 924 INTRA-LIGAND FREE ENERGY PREDICTED BY IDOCK:   -0.66 KCAL/MOL
REMARK 927      BINDING AFFINITY PREDICTED BY RF-SCORE:    0.00 PKD
ROOT
HETATM    1  N   UNL     1      -9.949   2.596  71.640  1.00  0.00    -0.145 NA 
HETATM    2  H2  UNL     1      -9.492   3.429  71.271  1.00  0.00     0.000 HD 
HETATM    3  H1  UNL     1      -9.336   1.782  71.578  1.00  0.00     0.000 HD 
HETATM    4  C   UNL     1     -10.437   2.821  72.993  1.00  0.00    -0.159 C  
ENDROOT
BRANCH   4   5
HETATM    5  C   UNL     1     -11.356   4.039  73.086  1.00  0.00    -0.176 C  
BRANCH   5   6
HETATM    6  C   UNL     1     -10.607   5.370  73.244  1.00  0.00    -0.288 C  
BRANCH   6   7
HETATM    7  C   UNL     1     -10.405   6.222  71.950  1.00  0.00    -0.204 C  
HETATM    8  O   UNL     1     -10.975   5.444  70.834  1.00  0.00    -0.184 OA 
HETATM    9  P   UNL     1     -11.439   7.723  72.114  1.00  0.00    -0.357 P  
HETATM   10  P   UNL     1      -8.709   6.700  71.455  1.00  0.00    -0.129 P  
HETATM   11  H   UNL     1     -10.853   5.962  70.047  1.00  0.00     0.000 HD 
HETATM   12  O   UNL     1      -7.274   7.106  71.036  1.00  0.00    -0.071 OA 
HETATM   13  O   UNL     1      -8.282   5.121  71.311  1.00  0.00    -0.112 OA 
HETATM   14  O   UNL     1      -8.313   6.880  73.041  1.00  0.00    -0.113 OA 
HETATM   15  O   UNL     1     -12.314   8.992  72.252  1.00  0.00    -0.364 OA 
HETATM   16  O   UNL     1     -11.047   8.057  70.544  1.00  0.00    -0.251 OA 
HETATM   17  O   UNL     1     -12.783   6.839  71.705  1.00  0.00    -0.366 OA 
ENDBRANCH   6   7
ENDBRANCH   5   6
ENDBRANCH   4   5
TORSDOF 3
ENDMDL
MODEL      168
REMARK 921   NORMALIZED FREE ENERGY PREDICTED BY IDOCK:   -2.75 KCAL/MOL
REMARK 922        TOTAL FREE ENERGY PREDICTED BY IDOCK:   -3.57 KCAL/MOL
REMARK 923 INTER-LIGAND FREE ENERGY PREDICTED BY IDOCK:   -3.50 KCAL/MOL
REMARK 924 INTRA-LIGAND FREE ENERGY PREDICTED BY IDOCK:   -0.07 KCAL/MOL
REMARK 927      BINDING AFFINITY PREDICTED BY RF-SCORE:    0.00 PKD
ROOT
HETATM    1  N   UNL     1      -7.533  10.558  70.226  1.00  0.00    -0.455 NA 
HETATM    2  H2  UNL     1      -6.759  10.546  70.889  1.00  0.00     0.000 HD 
HETATM    3  H1  UNL     1      -7.403  11.285  69.522  1.00  0.00     0.000 HD 
HETATM    4  C   UNL     1      -7.739   9.244  69.636  1.00  0.00    -0.087 C  
ENDROOT
BRANCH   4   5
HETATM    5  C   UNL     1      -7.935   8.154  70.691  1.00  0.00    -0.096 C  
BRANCH   5   6
HETATM    6  C   UNL     1      -9.282   7.427  70.588  1.00  0.00    -0.157 C  
BRANCH   6   7
HETATM    7  C   UNL     1     -10.081   7.234  71.917  1.00  0.00    -0.178 C  
HETATM    8  O   UNL     1     -10.382   5.794  72.029  1.00  0.00    -0.196 OA 
HETATM    9  P   UNL     1      -8.951   7.633  73.301  1.00  0.00    -0.261 P  
HETATM   10  P   UNL     1     -11.662   8.128  72.144  1.00  0.00    -0.405 P  
HETATM   11  H   UNL     1     -10.867   5.677  72.837  1.00  0.00     0.000 HD 
HETATM   12  O   UNL     1     -13.000   8.885  72.335  1.00  0.00    -0.405 OA 
HETATM   13  O   UNL     1     -12.305   7.365  70.839  1.00  0.00    -0.285 OA 
HETATM   14  O   UNL     1     -11.030   9.417  71.341  1.00  0.00    -0.335 OA 
HETATM   15  O   UNL     1      -7.995   7.971  74.470  1.00  0.00    -0.215 OA 
HETATM   16  O   UNL     1     -10.133   7.077  74.311  1.00  0.00    -0.314 OA 
HETATM   17  O   UNL     1      -8.234   6.144  73.142  1.00  0.00    -0.114 OA 
ENDBRANCH   6   7
ENDBRANCH   5   6
ENDBRANCH   4   5
TORSDOF 3
ENDMDL
MODEL      169
REMARK 921   NORMALIZED FREE ENERGY PREDICTED BY IDOCK:   -2.73 KCAL/MOL
REMARK 922        TOTAL FREE ENERGY PREDICTED BY IDOCK:   -3.55 KCAL/MOL
REMARK 923 INTER-LIGAND FREE ENERGY PREDICTED BY IDOCK:   -2.91 KCAL/MOL
REMARK 924 INTRA-LIGAND FREE ENERGY PREDICTED BY IDOCK:   -0.64 KCAL/MOL
REMARK 927      BINDING AFFINITY PREDICTED BY RF-SCORE:    0.00 PKD
ROOT
HETATM    1  N   UNL     1     -11.809  14.759  68.838  1.00  0.00    -0.395 NA 
HETATM    2  H2  UNL     1     -10.837  14.784  69.143  1.00  0.00     0.000 HD 
HETATM    3  H1  UNL     1     -12.320  15.578  69.168  1.00  0.00     0.000 HD 
HETATM    4  C   UNL     1     -11.901  14.591  67.395  1.00  0.00    -0.388 C  
ENDROOT
BRANCH   4   5
HETATM    5  C   UNL     1     -11.136  13.364  66.900  1.00  0.00    -0.309 C  
BRANCH   5   6
HETATM    6  C   UNL     1      -9.658  13.638  66.588  1.00  0.00    -0.289 C  
BRANCH   6   7
HETATM    7  C   UNL     1      -8.617  13.190  67.663  1.00  0.00    -0.193 C  
HETATM    8  O   UNL     1      -9.373  12.514  68.735  1.00  0.00    -0.401 OA 
HETATM    9  P   UNL     1      -7.554  11.911  66.898  1.00  0.00     0.028 P  
HETATM   10  P   UNL     1      -7.567  14.454  68.467  1.00  0.00    -0.139 P  
HETATM   11  H   UNL     1      -8.740  12.241  69.388  1.00  0.00     0.000 HD 
HETATM   12  O   UNL     1      -6.678  15.525  69.148  1.00  0.00    -0.126 OA 
HETATM   13  O   UNL     1      -8.897  15.206  69.072  1.00  0.00    -0.195 OA 
HETATM   14  O   UNL     1      -7.492  15.276  67.044  1.00  0.00    -0.198 OA 
HETATM   15  O   UNL     1      -6.655  10.830  66.251  1.00  0.00    -0.116 OA 
HETATM   16  O   UNL     1      -6.901  11.681  68.398  1.00  0.00    -0.063 OA 
HETATM   17  O   UNL     1      -8.750  10.783  67.125  1.00  0.00    -0.130 OA 
ENDBRANCH   6   7
ENDBRANCH   5   6
ENDBRANCH   4   5
TORSDOF 3
ENDMDL
MODEL      170
REMARK 921   NORMALIZED FREE ENERGY PREDICTED BY IDOCK:   -2.73 KCAL/MOL
REMARK 922        TOTAL FREE ENERGY PREDICTED BY IDOCK:   -3.55 KCAL/MOL
REMARK 923 INTER-LIGAND FREE ENERGY PREDICTED BY IDOCK:   -3.38 KCAL/MOL
REMARK 924 INTRA-LIGAND FREE ENERGY PREDICTED BY IDOCK:   -0.17 KCAL/MOL
REMARK 927      BINDING AFFINITY PREDICTED BY RF-SCORE:    0.00 PKD
ROOT
HETATM    1  N   UNL     1     -10.833   5.060  65.598  1.00  0.00    -0.702 NA 
HETATM    2  H2  UNL     1     -10.168   5.314  64.867  1.00  0.00     0.000 HD 
HETATM    3  H1  UNL     1     -11.140   4.093  65.497  1.00  0.00     0.000 HD 
HETATM    4  C   UNL     1     -10.288   5.334  66.920  1.00  0.00    -0.255 C  
ENDROOT
BRANCH   4   5
HETATM    5  C   UNL     1      -9.828   6.784  67.073  1.00  0.00    -0.217 C  
BRANCH   5   6
HETATM    6  C   UNL     1     -10.329   7.461  68.356  1.00  0.00    -0.224 C  
BRANCH   6   7
HETATM    7  C   UNL     1      -9.643   8.807  68.755  1.00  0.00    -0.158 C  
HETATM    8  O   UNL     1      -8.771   9.192  67.629  1.00  0.00    -0.120 OA 
HETATM    9  P   UNL     1     -10.953  10.082  68.853  1.00  0.00    -0.136 P  
HETATM   10  P   UNL     1      -8.618   8.870  70.270  1.00  0.00    -0.206 P  
HETATM   11  H   UNL     1      -8.355  10.011  67.872  1.00  0.00     0.000 HD 
HETATM   12  O   UNL     1      -7.750   8.923  71.551  1.00  0.00    -0.222 OA 
HETATM   13  O   UNL     1      -7.600   7.737  69.653  1.00  0.00    -0.088 OA 
HETATM   14  O   UNL     1      -9.664   7.833  71.002  1.00  0.00    -0.163 OA 
HETATM   15  O   UNL     1     -12.061  11.161  68.935  1.00  0.00    -0.475 OA 
HETATM   16  O   UNL     1      -9.740  11.188  69.043  1.00  0.00    -0.181 OA 
HETATM   17  O   UNL     1     -10.954  10.205  67.197  1.00  0.00    -0.235 OA 
ENDBRANCH   6   7
ENDBRANCH   5   6
ENDBRANCH   4   5
TORSDOF 3
ENDMDL
MODEL      171
REMARK 921   NORMALIZED FREE ENERGY PREDICTED BY IDOCK:   -2.71 KCAL/MOL
REMARK 922        TOTAL FREE ENERGY PREDICTED BY IDOCK:   -3.53 KCAL/MOL
REMARK 923 INTER-LIGAND FREE ENERGY PREDICTED BY IDOCK:   -3.05 KCAL/MOL
REMARK 924 INTRA-LIGAND FREE ENERGY PREDICTED BY IDOCK:   -0.47 KCAL/MOL
REMARK 927      BINDING AFFINITY PREDICTED BY RF-SCORE:    0.00 PKD
ROOT
HETATM    1  N   UNL     1      -6.985  10.571  64.015  1.00  0.00    -0.344 NA 
HETATM    2  H2  UNL     1      -6.211  10.754  64.653  1.00  0.00     0.000 HD 
HETATM    3  H1  UNL     1      -6.719  10.765  63.049  1.00  0.00     0.000 HD 
HETATM    4  C   UNL     1      -7.500   9.221  64.189  1.00  0.00    -0.110 C  
ENDROOT
BRANCH   4   5
HETATM    5  C   UNL     1      -7.899   8.930  65.636  1.00  0.00    -0.096 C  
BRANCH   5   6
HETATM    6  C   UNL     1      -8.278  10.183  66.438  1.00  0.00    -0.122 C  
BRANCH   6   7
HETATM    7  C   UNL     1      -9.795  10.552  66.492  1.00  0.00    -0.206 C  
HETATM    8  O   UNL     1     -10.516   9.505  65.743  1.00  0.00    -0.140 OA 
HETATM    9  P   UNL     1     -10.334  10.404  68.235  1.00  0.00    -0.199 P  
HETATM   10  P   UNL     1     -10.344  12.163  65.819  1.00  0.00    -0.276 P  
HETATM   11  H   UNL     1     -11.439   9.729  65.777  1.00  0.00     0.000 HD 
HETATM   12  O   UNL     1     -10.809  13.526  65.249  1.00  0.00    -0.291 OA 
HETATM   13  O   UNL     1      -9.790  11.753  64.328  1.00  0.00    -0.247 OA 
HETATM   14  O   UNL     1      -8.957  12.851  66.375  1.00  0.00    -0.142 OA 
HETATM   15  O   UNL     1     -10.790  10.278  69.709  1.00  0.00    -0.247 OA 
HETATM   16  O   UNL     1     -11.874  10.644  67.687  1.00  0.00    -0.411 OA 
HETATM   17  O   UNL     1     -10.415   8.754  68.067  1.00  0.00    -0.223 OA 
ENDBRANCH   6   7
ENDBRANCH   5   6
ENDBRANCH   4   5
TORSDOF 3
ENDMDL
MODEL      172
REMARK 921   NORMALIZED FREE ENERGY PREDICTED BY IDOCK:   -2.70 KCAL/MOL
REMARK 922        TOTAL FREE ENERGY PREDICTED BY IDOCK:   -3.51 KCAL/MOL
REMARK 923 INTER-LIGAND FREE ENERGY PREDICTED BY IDOCK:   -3.25 KCAL/MOL
REMARK 924 INTRA-LIGAND FREE ENERGY PREDICTED BY IDOCK:   -0.27 KCAL/MOL
REMARK 927      BINDING AFFINITY PREDICTED BY RF-SCORE:    0.00 PKD
ROOT
HETATM    1  N   UNL     1      -7.485  10.282  63.538  1.00  0.00    -0.245 NA 
HETATM    2  H2  UNL     1      -7.277  11.075  64.144  1.00  0.00     0.000 HD 
HETATM    3  H1  UNL     1      -6.629   9.865  63.170  1.00  0.00     0.000 HD 
HETATM    4  C   UNL     1      -8.328   9.309  64.217  1.00  0.00    -0.177 C  
ENDROOT
BRANCH   4   5
HETATM    5  C   UNL     1      -9.611   9.932  64.768  1.00  0.00    -0.339 C  
BRANCH   5   6
HETATM    6  C   UNL     1      -9.957   9.480  66.193  1.00  0.00    -0.342 C  
BRANCH   6   7
HETATM    7  C   UNL     1      -9.680  10.500  67.343  1.00  0.00    -0.164 C  
HETATM    8  O   UNL     1      -9.246  11.757  66.703  1.00  0.00    -0.187 OA 
HETATM    9  P   UNL     1     -11.281  10.861  68.155  1.00  0.00    -0.296 P  
HETATM   10  P   UNL     1      -8.430  10.090  68.615  1.00  0.00    -0.131 P  
HETATM   11  H   UNL     1      -9.078  12.377  67.403  1.00  0.00     0.000 HD 
HETATM   12  O   UNL     1      -7.372   9.743  69.692  1.00  0.00    -0.077 OA 
HETATM   13  O   UNL     1      -7.256  10.012  67.469  1.00  0.00    -0.087 OA 
HETATM   14  O   UNL     1      -8.896   8.514  68.544  1.00  0.00    -0.138 OA 
HETATM   15  O   UNL     1     -12.634  11.167  68.841  1.00  0.00    -0.358 OA 
HETATM   16  O   UNL     1     -10.484  12.030  69.008  1.00  0.00    -0.166 OA 
HETATM   17  O   UNL     1     -11.678  11.885  66.911  1.00  0.00    -0.541 OA 
ENDBRANCH   6   7
ENDBRANCH   5   6
ENDBRANCH   4   5
TORSDOF 3
ENDMDL
MODEL      173
REMARK 921   NORMALIZED FREE ENERGY PREDICTED BY IDOCK:   -2.68 KCAL/MOL
REMARK 922        TOTAL FREE ENERGY PREDICTED BY IDOCK:   -3.50 KCAL/MOL
REMARK 923 INTER-LIGAND FREE ENERGY PREDICTED BY IDOCK:   -2.86 KCAL/MOL
REMARK 924 INTRA-LIGAND FREE ENERGY PREDICTED BY IDOCK:   -0.64 KCAL/MOL
REMARK 927      BINDING AFFINITY PREDICTED BY RF-SCORE:    0.00 PKD
ROOT
HETATM    1  N   UNL     1     -12.139  11.728  67.558  1.00  0.00    -0.550 NA 
HETATM    2  H2  UNL     1     -12.276  12.532  68.170  1.00  0.00     0.000 HD 
HETATM    3  H1  UNL     1     -13.019  11.240  67.388  1.00  0.00     0.000 HD 
HETATM    4  C   UNL     1     -11.472  12.116  66.324  1.00  0.00    -0.374 C  
ENDROOT
BRANCH   4   5
HETATM    5  C   UNL     1     -10.154  12.847  66.578  1.00  0.00    -0.263 C  
BRANCH   5   6
HETATM    6  C   UNL     1      -8.928  11.923  66.602  1.00  0.00    -0.198 C  
BRANCH   6   7
HETATM    7  C   UNL     1      -8.365  11.537  68.007  1.00  0.00    -0.146 C  
HETATM    8  O   UNL     1      -9.393  11.911  68.996  1.00  0.00    -0.404 OA 
HETATM    9  P   UNL     1      -8.235   9.712  68.064  1.00  0.00    -0.109 P  
HETATM   10  P   UNL     1      -6.789  12.278  68.569  1.00  0.00    -0.093 P  
HETATM   11  H   UNL     1      -9.050  11.676  69.851  1.00  0.00     0.000 HD 
HETATM   12  O   UNL     1      -5.454  12.905  69.044  1.00  0.00    -0.067 OA 
HETATM   13  O   UNL     1      -7.439  13.783  68.480  1.00  0.00    -0.108 OA 
HETATM   14  O   UNL     1      -6.222  12.204  67.026  1.00  0.00    -0.156 OA 
HETATM   15  O   UNL     1      -8.126   8.168  68.112  1.00  0.00    -0.124 OA 
HETATM   16  O   UNL     1      -7.868   9.876  69.666  1.00  0.00    -0.119 OA 
HETATM   17  O   UNL     1      -9.869   9.606  68.337  1.00  0.00    -0.148 OA 
ENDBRANCH   6   7
ENDBRANCH   5   6
ENDBRANCH   4   5
TORSDOF 3
ENDMDL
MODEL      174
REMARK 921   NORMALIZED FREE ENERGY PREDICTED BY IDOCK:   -2.67 KCAL/MOL
REMARK 922        TOTAL FREE ENERGY PREDICTED BY IDOCK:   -3.48 KCAL/MOL
REMARK 923 INTER-LIGAND FREE ENERGY PREDICTED BY IDOCK:   -3.39 KCAL/MOL
REMARK 924 INTRA-LIGAND FREE ENERGY PREDICTED BY IDOCK:   -0.09 KCAL/MOL
REMARK 927      BINDING AFFINITY PREDICTED BY RF-SCORE:    0.00 PKD
ROOT
HETATM    1  N   UNL     1     -12.153  11.584  68.004  1.00  0.00    -0.598 NA 
HETATM    2  H2  UNL     1     -13.121  11.265  67.984  1.00  0.00     0.000 HD 
HETATM    3  H1  UNL     1     -12.027  12.418  67.431  1.00  0.00     0.000 HD 
HETATM    4  C   UNL     1     -11.694  11.777  69.373  1.00  0.00    -0.341 C  
ENDROOT
BRANCH   4   5
HETATM    5  C   UNL     1     -11.882  10.527  70.233  1.00  0.00    -0.418 C  
BRANCH   5   6
HETATM    6  C   UNL     1     -10.571   9.801  70.567  1.00  0.00    -0.376 C  
BRANCH   6   7
HETATM    7  C   UNL     1      -9.928   8.949  69.427  1.00  0.00    -0.192 C  
HETATM    8  O   UNL     1     -10.741   9.172  68.216  1.00  0.00    -0.353 OA 
HETATM    9  P   UNL     1      -8.276   9.657  69.076  1.00  0.00    -0.129 P  
HETATM   10  P   UNL     1      -9.781   7.138  69.644  1.00  0.00    -0.158 P  
HETATM   11  H   UNL     1     -10.349   8.654  67.523  1.00  0.00     0.000 HD 
HETATM   12  O   UNL     1      -9.656   5.605  69.828  1.00  0.00    -0.148 OA 
HETATM   13  O   UNL     1     -11.413   6.998  69.768  1.00  0.00    -0.217 OA 
HETATM   14  O   UNL     1      -9.469   7.370  71.242  1.00  0.00    -0.154 OA 
HETATM   15  O   UNL     1      -6.880  10.256  68.780  1.00  0.00    -0.056 OA 
HETATM   16  O   UNL     1      -8.204   8.624  67.789  1.00  0.00    -0.116 OA 
HETATM   17  O   UNL     1      -8.987  10.875  68.200  1.00  0.00    -0.134 OA 
ENDBRANCH   6   7
ENDBRANCH   5   6
ENDBRANCH   4   5
TORSDOF 3
ENDMDL
MODEL      175
REMARK 921   NORMALIZED FREE ENERGY PREDICTED BY IDOCK:   -2.66 KCAL/MOL
REMARK 922        TOTAL FREE ENERGY PREDICTED BY IDOCK:   -3.47 KCAL/MOL
REMARK 923 INTER-LIGAND FREE ENERGY PREDICTED BY IDOCK:   -2.95 KCAL/MOL
REMARK 924 INTRA-LIGAND FREE ENERGY PREDICTED BY IDOCK:   -0.52 KCAL/MOL
REMARK 927      BINDING AFFINITY PREDICTED BY RF-SCORE:    0.00 PKD
ROOT
HETATM    1  N   UNL     1      -6.679  10.139  71.262  1.00  0.00    -0.215 NA 
HETATM    2  H2  UNL     1      -6.380   9.168  71.349  1.00  0.00     0.000 HD 
HETATM    3  H1  UNL     1      -6.254  10.722  71.983  1.00  0.00     0.000 HD 
HETATM    4  C   UNL     1      -6.431  10.645  69.920  1.00  0.00    -0.124 C  
ENDROOT
BRANCH   4   5
HETATM    5  C   UNL     1      -7.070   9.772  68.840  1.00  0.00    -0.067 C  
BRANCH   5   6
HETATM    6  C   UNL     1      -8.605   9.775  68.867  1.00  0.00    -0.134 C  
BRANCH   6   7
HETATM    7  C   UNL     1      -9.303   8.452  69.319  1.00  0.00    -0.154 C  
HETATM    8  O   UNL     1      -8.242   7.561  69.825  1.00  0.00    -0.124 OA 
HETATM    9  P   UNL     1     -10.367   8.855  70.753  1.00  0.00    -0.272 P  
HETATM   10  P   UNL     1     -10.267   7.492  68.095  1.00  0.00    -0.188 P  
HETATM   11  H   UNL     1      -8.668   6.757  70.100  1.00  0.00     0.000 HD 
HETATM   12  O   UNL     1     -11.083   6.680  67.059  1.00  0.00    -0.403 OA 
HETATM   13  O   UNL     1      -8.925   7.280  67.172  1.00  0.00    -0.122 OA 
HETATM   14  O   UNL     1     -10.771   8.900  67.409  1.00  0.00    -0.272 OA 
HETATM   15  O   UNL     1     -11.266   9.195  71.966  1.00  0.00    -0.364 OA 
HETATM   16  O   UNL     1     -10.614   7.229  70.914  1.00  0.00    -0.217 OA 
HETATM   17  O   UNL     1      -9.032   8.861  71.739  1.00  0.00    -0.297 OA 
ENDBRANCH   6   7
ENDBRANCH   5   6
ENDBRANCH   4   5
TORSDOF 3
ENDMDL
MODEL      176
REMARK 921   NORMALIZED FREE ENERGY PREDICTED BY IDOCK:   -2.62 KCAL/MOL
REMARK 922        TOTAL FREE ENERGY PREDICTED BY IDOCK:   -3.43 KCAL/MOL
REMARK 923 INTER-LIGAND FREE ENERGY PREDICTED BY IDOCK:   -3.40 KCAL/MOL
REMARK 924 INTRA-LIGAND FREE ENERGY PREDICTED BY IDOCK:   -0.02 KCAL/MOL
REMARK 927      BINDING AFFINITY PREDICTED BY RF-SCORE:    0.00 PKD
ROOT
HETATM    1  N   UNL     1     -10.756   5.113  66.487  1.00  0.00    -0.442 NA 
HETATM    2  H2  UNL     1     -11.137   5.955  66.056  1.00  0.00     0.000 HD 
HETATM    3  H1  UNL     1     -10.123   4.628  65.850  1.00  0.00     0.000 HD 
HETATM    4  C   UNL     1     -10.131   5.416  67.767  1.00  0.00    -0.171 C  
ENDROOT
BRANCH   4   5
HETATM    5  C   UNL     1     -11.079   6.142  68.721  1.00  0.00    -0.398 C  
BRANCH   5   6
HETATM    6  C   UNL     1     -10.725   7.620  68.941  1.00  0.00    -0.117 C  
BRANCH   6   7
HETATM    7  C   UNL     1     -10.469   8.071  70.415  1.00  0.00    -0.218 C  
HETATM    8  O   UNL     1     -11.200   9.338  70.607  1.00  0.00    -0.248 OA 
HETATM    9  P   UNL     1     -11.268   6.843  71.512  1.00  0.00    -0.284 P  
HETATM   10  P   UNL     1      -8.749   8.358  70.972  1.00  0.00    -0.189 P  
HETATM   11  H   UNL     1     -11.044   9.612  71.503  1.00  0.00     0.000 HD 
HETATM   12  O   UNL     1      -7.294   8.601  71.443  1.00  0.00    -0.087 OA 
HETATM   13  O   UNL     1      -8.560   9.542  69.849  1.00  0.00    -0.165 OA 
HETATM   14  O   UNL     1      -8.252   7.100  70.035  1.00  0.00    -0.131 OA 
HETATM   15  O   UNL     1     -11.945   5.805  72.440  1.00  0.00    -0.275 OA 
HETATM   16  O   UNL     1     -10.912   7.861  72.764  1.00  0.00    -0.344 OA 
HETATM   17  O   UNL     1     -12.744   7.544  71.217  1.00  0.00    -0.335 OA 
ENDBRANCH   6   7
ENDBRANCH   5   6
ENDBRANCH   4   5
TORSDOF 3
ENDMDL
MODEL      177
REMARK 921   NORMALIZED FREE ENERGY PREDICTED BY IDOCK:   -2.62 KCAL/MOL
REMARK 922        TOTAL FREE ENERGY PREDICTED BY IDOCK:   -3.42 KCAL/MOL
REMARK 923 INTER-LIGAND FREE ENERGY PREDICTED BY IDOCK:   -3.25 KCAL/MOL
REMARK 924 INTRA-LIGAND FREE ENERGY PREDICTED BY IDOCK:   -0.17 KCAL/MOL
REMARK 927      BINDING AFFINITY PREDICTED BY RF-SCORE:    0.00 PKD
ROOT
HETATM    1  N   UNL     1      -8.450   8.004  66.604  1.00  0.00    -0.128 NA 
HETATM    2  H2  UNL     1      -8.246   8.463  67.491  1.00  0.00     0.000 HD 
HETATM    3  H1  UNL     1      -7.986   7.097  66.543  1.00  0.00     0.000 HD 
HETATM    4  C   UNL     1      -9.886   7.908  66.382  1.00  0.00    -0.147 C  
ENDROOT
BRANCH   4   5
HETATM    5  C   UNL     1     -10.582   9.266  66.472  1.00  0.00    -0.117 C  
BRANCH   5   6
HETATM    6  C   UNL     1     -10.062  10.154  67.611  1.00  0.00    -0.231 C  
BRANCH   6   7
HETATM    7  C   UNL     1     -10.732  11.557  67.771  1.00  0.00    -0.207 C  
HETATM    8  O   UNL     1     -11.849  11.609  66.809  1.00  0.00    -0.557 OA 
HETATM    9  P   UNL     1     -11.484  11.620  69.438  1.00  0.00    -0.315 P  
HETATM   10  P   UNL     1      -9.724  13.060  67.499  1.00  0.00    -0.219 P  
HETATM   11  H   UNL     1     -12.256  12.462  66.906  1.00  0.00     0.000 HD 
HETATM   12  O   UNL     1      -8.870  14.332  67.269  1.00  0.00    -0.192 OA 
HETATM   13  O   UNL     1      -9.433  12.611  65.946  1.00  0.00    -0.202 OA 
HETATM   14  O   UNL     1      -8.434  12.300  68.181  1.00  0.00    -0.163 OA 
HETATM   15  O   UNL     1     -12.120  11.674  70.848  1.00  0.00    -0.341 OA 
HETATM   16  O   UNL     1     -12.160  13.057  68.982  1.00  0.00    -0.280 OA 
HETATM   17  O   UNL     1     -12.765  10.718  68.892  1.00  0.00    -0.153 OA 
ENDBRANCH   6   7
ENDBRANCH   5   6
ENDBRANCH   4   5
TORSDOF 3
ENDMDL
MODEL      178
REMARK 921   NORMALIZED FREE ENERGY PREDICTED BY IDOCK:   -2.61 KCAL/MOL
REMARK 922        TOTAL FREE ENERGY PREDICTED BY IDOCK:   -3.41 KCAL/MOL
REMARK 923 INTER-LIGAND FREE ENERGY PREDICTED BY IDOCK:   -2.89 KCAL/MOL
REMARK 924 INTRA-LIGAND FREE ENERGY PREDICTED BY IDOCK:   -0.52 KCAL/MOL
REMARK 927      BINDING AFFINITY PREDICTED BY RF-SCORE:    0.00 PKD
ROOT
HETATM    1  N   UNL     1     -11.019   5.567  73.215  1.00  0.00    -0.310 NA 
HETATM    2  H2  UNL     1     -10.352   6.261  73.552  1.00  0.00     0.000 HD 
HETATM    3  H1  UNL     1     -11.306   4.938  73.965  1.00  0.00     0.000 HD 
HETATM    4  C   UNL     1     -12.152   6.203  72.560  1.00  0.00    -0.061 C  
ENDROOT
BRANCH   4   5
HETATM    5  C   UNL     1     -11.723   7.146  71.436  1.00  0.00    -0.330 C  
BRANCH   5   6
HETATM    6  C   UNL     1     -11.621   6.467  70.063  1.00  0.00    -0.455 C  
BRANCH   6   7
HETATM    7  C   UNL     1     -10.194   6.355  69.437  1.00  0.00    -0.192 C  
HETATM    8  O   UNL     1      -9.259   6.980  70.392  1.00  0.00    -0.156 OA 
HETATM    9  P   UNL     1      -9.758   4.578  69.378  1.00  0.00    -0.146 P  
HETATM   10  P   UNL     1      -9.876   7.116  67.803  1.00  0.00    -0.164 P  
HETATM   11  H   UNL     1      -8.391   6.912  70.011  1.00  0.00     0.000 HD 
HETATM   12  O   UNL     1      -9.606   7.760  66.420  1.00  0.00    -0.203 OA 
HETATM   13  O   UNL     1     -10.250   8.601  68.397  1.00  0.00    -0.190 OA 
HETATM   14  O   UNL     1     -11.392   6.693  67.328  1.00  0.00    -0.324 OA 
HETATM   15  O   UNL     1      -9.390   3.076  69.328  1.00  0.00    -0.147 OA 
HETATM   16  O   UNL     1      -8.246   5.055  68.914  1.00  0.00    -0.084 OA 
HETATM   17  O   UNL     1      -9.393   4.616  70.996  1.00  0.00    -0.131 OA 
ENDBRANCH   6   7
ENDBRANCH   5   6
ENDBRANCH   4   5
TORSDOF 3
ENDMDL
MODEL      179
REMARK 921   NORMALIZED FREE ENERGY PREDICTED BY IDOCK:   -2.58 KCAL/MOL
REMARK 922        TOTAL FREE ENERGY PREDICTED BY IDOCK:   -3.38 KCAL/MOL
REMARK 923 INTER-LIGAND FREE ENERGY PREDICTED BY IDOCK:   -3.79 KCAL/MOL
REMARK 924 INTRA-LIGAND FREE ENERGY PREDICTED BY IDOCK:    0.41 KCAL/MOL
REMARK 927      BINDING AFFINITY PREDICTED BY RF-SCORE:    0.00 PKD
ROOT
HETATM    1  N   UNL     1     -12.002  14.602  69.544  1.00  0.00    -0.320 NA 
HETATM    2  H2  UNL     1     -11.526  13.855  70.049  1.00  0.00     0.000 HD 
HETATM    3  H1  UNL     1     -12.973  14.689  69.844  1.00  0.00     0.000 HD 
HETATM    4  C   UNL     1     -11.272  15.857  69.653  1.00  0.00    -0.331 C  
ENDROOT
BRANCH   4   5
HETATM    5  C   UNL     1      -9.817  15.726  69.203  1.00  0.00    -0.247 C  
BRANCH   5   6
HETATM    6  C   UNL     1      -9.290  16.953  68.445  1.00  0.00    -0.255 C  
BRANCH   6   7
HETATM    7  C   UNL     1      -7.791  16.918  68.004  1.00  0.00    -0.179 C  
HETATM    8  O   UNL     1      -7.009  17.517  69.102  1.00  0.00    -0.246 OA 
HETATM    9  P   UNL     1      -7.287  15.161  67.910  1.00  0.00    -0.173 P  
HETATM   10  P   UNL     1      -7.296  17.778  66.466  1.00  0.00    -0.299 P  
HETATM   11  H   UNL     1      -6.098  17.495  68.834  1.00  0.00     0.000 HD 
HETATM   12  O   UNL     1      -6.877  18.505  65.165  1.00  0.00    -0.528 OA 
HETATM   13  O   UNL     1      -7.797  19.216  67.083  1.00  0.00    -0.246 OA 
HETATM   14  O   UNL     1      -8.724  17.337  65.778  1.00  0.00    -0.531 OA 
HETATM   15  O   UNL     1      -6.861  13.675  67.831  1.00  0.00    -0.117 OA 
HETATM   16  O   UNL     1      -5.747  15.707  67.670  1.00  0.00    -0.154 OA 
HETATM   17  O   UNL     1      -7.133  15.119  69.562  1.00  0.00    -0.168 OA 
ENDBRANCH   6   7
ENDBRANCH   5   6
ENDBRANCH   4   5
TORSDOF 3
ENDMDL
MODEL      180
REMARK 921   NORMALIZED FREE ENERGY PREDICTED BY IDOCK:   -2.56 KCAL/MOL
REMARK 922        TOTAL FREE ENERGY PREDICTED BY IDOCK:   -3.35 KCAL/MOL
REMARK 923 INTER-LIGAND FREE ENERGY PREDICTED BY IDOCK:   -2.85 KCAL/MOL
REMARK 924 INTRA-LIGAND FREE ENERGY PREDICTED BY IDOCK:   -0.50 KCAL/MOL
REMARK 927      BINDING AFFINITY PREDICTED BY RF-SCORE:    0.00 PKD
ROOT
HETATM    1  N   UNL     1     -10.910   5.368  72.474  1.00  0.00    -0.239 NA 
HETATM    2  H2  UNL     1     -10.070   5.206  71.918  1.00  0.00     0.000 HD 
HETATM    3  H1  UNL     1     -10.886   4.833  73.342  1.00  0.00     0.000 HD 
HETATM    4  C   UNL     1     -11.120   6.790  72.704  1.00  0.00    -0.265 C  
ENDROOT
BRANCH   4   5
HETATM    5  C   UNL     1     -11.156   7.593  71.403  1.00  0.00    -0.265 C  
BRANCH   5   6
HETATM    6  C   UNL     1      -9.873   7.479  70.568  1.00  0.00    -0.183 C  
BRANCH   6   7
HETATM    7  C   UNL     1     -10.023   6.911  69.120  1.00  0.00    -0.162 C  
HETATM    8  O   UNL     1     -11.468   6.752  68.871  1.00  0.00    -0.561 OA 
HETATM    9  P   UNL     1      -9.439   8.201  67.961  1.00  0.00    -0.148 P  
HETATM   10  P   UNL     1      -9.232   5.314  68.704  1.00  0.00    -0.127 P  
HETATM   11  H   UNL     1     -11.559   6.407  67.991  1.00  0.00     0.000 HD 
HETATM   12  O   UNL     1      -8.562   3.962  68.352  1.00  0.00    -0.090 OA 
HETATM   13  O   UNL     1     -10.135   4.545  69.840  1.00  0.00    -0.234 OA 
HETATM   14  O   UNL     1      -7.964   5.706  69.676  1.00  0.00    -0.092 OA 
HETATM   15  O   UNL     1      -8.945   9.293  66.981  1.00  0.00    -0.125 OA 
HETATM   16  O   UNL     1     -10.001   7.237  66.743  1.00  0.00    -0.209 OA 
HETATM   17  O   UNL     1     -10.879   9.008  68.136  1.00  0.00    -0.151 OA 
ENDBRANCH   6   7
ENDBRANCH   5   6
ENDBRANCH   4   5
TORSDOF 3
ENDMDL
MODEL      181
REMARK 921   NORMALIZED FREE ENERGY PREDICTED BY IDOCK:   -2.55 KCAL/MOL
REMARK 922        TOTAL FREE ENERGY PREDICTED BY IDOCK:   -3.35 KCAL/MOL
REMARK 923 INTER-LIGAND FREE ENERGY PREDICTED BY IDOCK:   -3.32 KCAL/MOL
REMARK 924 INTRA-LIGAND FREE ENERGY PREDICTED BY IDOCK:   -0.03 KCAL/MOL
REMARK 927      BINDING AFFINITY PREDICTED BY RF-SCORE:    0.00 PKD
ROOT
HETATM    1  N   UNL     1      -6.604  14.675  68.308  1.00  0.00    -0.106 NA 
HETATM    2  H2  UNL     1      -6.723  13.668  68.410  1.00  0.00     0.000 HD 
HETATM    3  H1  UNL     1      -5.980  14.895  67.531  1.00  0.00     0.000 HD 
HETATM    4  C   UNL     1      -7.891  15.347  68.194  1.00  0.00    -0.124 C  
ENDROOT
BRANCH   4   5
HETATM    5  C   UNL     1      -8.825  15.018  69.359  1.00  0.00    -0.115 C  
BRANCH   5   6
HETATM    6  C   UNL     1     -10.255  15.545  69.174  1.00  0.00    -0.240 C  
BRANCH   6   7
HETATM    7  C   UNL     1     -11.407  14.490  69.222  1.00  0.00    -0.285 C  
HETATM    8  O   UNL     1     -12.285  14.765  68.069  1.00  0.00    -0.581 OA 
HETATM    9  P   UNL     1     -10.659  12.847  68.921  1.00  0.00     0.030 P  
HETATM   10  P   UNL     1     -12.479  14.410  70.702  1.00  0.00    -0.381 P  
HETATM   11  H   UNL     1     -12.985  14.123  68.098  1.00  0.00     0.000 HD 
HETATM   12  O   UNL     1     -13.388  14.343  71.955  1.00  0.00    -0.331 OA 
HETATM   13  O   UNL     1     -12.975  15.957  70.454  1.00  0.00    -0.383 OA 
HETATM   14  O   UNL     1     -11.178  14.757  71.646  1.00  0.00    -0.168 OA 
HETATM   15  O   UNL     1     -10.026  11.457  68.666  1.00  0.00    -0.202 OA 
HETATM   16  O   UNL     1     -12.200  12.256  68.854  1.00  0.00    -0.187 OA 
HETATM   17  O   UNL     1     -10.597  13.175  67.295  1.00  0.00    -0.244 OA 
ENDBRANCH   6   7
ENDBRANCH   5   6
ENDBRANCH   4   5
TORSDOF 3
ENDMDL
MODEL      182
REMARK 921   NORMALIZED FREE ENERGY PREDICTED BY IDOCK:   -2.55 KCAL/MOL
REMARK 922        TOTAL FREE ENERGY PREDICTED BY IDOCK:   -3.34 KCAL/MOL
REMARK 923 INTER-LIGAND FREE ENERGY PREDICTED BY IDOCK:   -3.09 KCAL/MOL
REMARK 924 INTRA-LIGAND FREE ENERGY PREDICTED BY IDOCK:   -0.24 KCAL/MOL
REMARK 927      BINDING AFFINITY PREDICTED BY RF-SCORE:    0.00 PKD
ROOT
HETATM    1  N   UNL     1      -7.388  10.613  70.212  1.00  0.00    -0.456 NA 
HETATM    2  H2  UNL     1      -6.668  10.525  70.929  1.00  0.00     0.000 HD 
HETATM    3  H1  UNL     1      -7.166  11.363  69.557  1.00  0.00     0.000 HD 
HETATM    4  C   UNL     1      -7.618   9.341  69.541  1.00  0.00    -0.081 C  
ENDROOT
BRANCH   4   5
HETATM    5  C   UNL     1      -7.951   8.216  70.521  1.00  0.00    -0.095 C  
BRANCH   5   6
HETATM    6  C   UNL     1      -9.378   7.670  70.376  1.00  0.00    -0.160 C  
BRANCH   6   7
HETATM    7  C   UNL     1     -10.269   7.679  71.660  1.00  0.00    -0.185 C  
HETATM    8  O   UNL     1      -9.580   8.527  72.651  1.00  0.00    -0.280 OA 
HETATM    9  P   UNL     1     -11.828   8.542  71.239  1.00  0.00    -0.283 P  
HETATM   10  P   UNL     1     -10.654   6.094  72.488  1.00  0.00    -0.239 P  
HETATM   11  H   UNL     1     -10.123   8.533  73.431  1.00  0.00     0.000 HD 
HETATM   12  O   UNL     1     -10.979   4.752  73.190  1.00  0.00    -0.250 OA 
HETATM   13  O   UNL     1      -9.057   5.825  72.764  1.00  0.00    -0.134 OA 
HETATM   14  O   UNL     1     -10.738   5.363  71.017  1.00  0.00    -0.233 OA 
HETATM   15  O   UNL     1     -13.146   9.271  70.883  1.00  0.00    -0.163 OA 
HETATM   16  O   UNL     1     -12.203   8.462  72.846  1.00  0.00    -0.274 OA 
HETATM   17  O   UNL     1     -11.055  10.004  71.379  1.00  0.00    -0.259 OA 
ENDBRANCH   6   7
ENDBRANCH   5   6
ENDBRANCH   4   5
TORSDOF 3
ENDMDL
MODEL      183
REMARK 921   NORMALIZED FREE ENERGY PREDICTED BY IDOCK:   -2.54 KCAL/MOL
REMARK 922        TOTAL FREE ENERGY PREDICTED BY IDOCK:   -3.33 KCAL/MOL
REMARK 923 INTER-LIGAND FREE ENERGY PREDICTED BY IDOCK:   -2.70 KCAL/MOL
REMARK 924 INTRA-LIGAND FREE ENERGY PREDICTED BY IDOCK:   -0.64 KCAL/MOL
REMARK 927      BINDING AFFINITY PREDICTED BY RF-SCORE:    0.00 PKD
ROOT
HETATM    1  N   UNL     1      -9.892   5.073  72.944  1.00  0.00    -0.151 NA 
HETATM    2  H2  UNL     1      -9.179   5.668  72.523  1.00  0.00     0.000 HD 
HETATM    3  H1  UNL     1      -9.612   4.762  73.874  1.00  0.00     0.000 HD 
HETATM    4  C   UNL     1     -11.190   5.734  72.947  1.00  0.00    -0.276 C  
ENDROOT
BRANCH   4   5
HETATM    5  C   UNL     1     -11.611   6.200  71.554  1.00  0.00    -0.304 C  
BRANCH   5   6
HETATM    6  C   UNL     1     -10.925   7.495  71.099  1.00  0.00    -0.264 C  
BRANCH   6   7
HETATM    7  C   UNL     1      -9.727   7.347  70.107  1.00  0.00    -0.175 C  
HETATM    8  O   UNL     1      -9.583   5.906  69.825  1.00  0.00    -0.147 OA 
HETATM    9  P   UNL     1     -10.219   8.135  68.530  1.00  0.00    -0.180 P  
HETATM   10  P   UNL     1      -8.076   7.960  70.606  1.00  0.00    -0.106 P  
HETATM   11  H   UNL     1      -8.855   5.816  69.221  1.00  0.00     0.000 HD 
HETATM   12  O   UNL     1      -6.679   8.479  71.029  1.00  0.00    -0.044 OA 
HETATM   13  O   UNL     1      -8.049   6.918  71.876  1.00  0.00    -0.100 OA 
HETATM   14  O   UNL     1      -8.795   9.218  71.384  1.00  0.00    -0.313 OA 
HETATM   15  O   UNL     1     -10.635   8.801  67.196  1.00  0.00    -0.291 OA 
HETATM   16  O   UNL     1      -8.826   7.519  67.890  1.00  0.00    -0.127 OA 
HETATM   17  O   UNL     1     -11.119   6.795  68.144  1.00  0.00    -0.218 OA 
ENDBRANCH   6   7
ENDBRANCH   5   6
ENDBRANCH   4   5
TORSDOF 3
ENDMDL
MODEL      184
REMARK 921   NORMALIZED FREE ENERGY PREDICTED BY IDOCK:   -2.54 KCAL/MOL
REMARK 922        TOTAL FREE ENERGY PREDICTED BY IDOCK:   -3.33 KCAL/MOL
REMARK 923 INTER-LIGAND FREE ENERGY PREDICTED BY IDOCK:   -2.76 KCAL/MOL
REMARK 924 INTRA-LIGAND FREE ENERGY PREDICTED BY IDOCK:   -0.57 KCAL/MOL
REMARK 927      BINDING AFFINITY PREDICTED BY RF-SCORE:    0.00 PKD
ROOT
HETATM    1  N   UNL     1      -9.275  10.629  68.610  1.00  0.00    -0.172 NA 
HETATM    2  H2  UNL     1      -9.946  10.906  69.326  1.00  0.00     0.000 HD 
HETATM    3  H1  UNL     1      -9.407  11.168  67.753  1.00  0.00     0.000 HD 
HETATM    4  C   UNL     1      -7.910  10.709  69.110  1.00  0.00    -0.142 C  
ENDROOT
BRANCH   4   5
HETATM    5  C   UNL     1      -7.711   9.902  70.394  1.00  0.00    -0.094 C  
BRANCH   5   6
HETATM    6  C   UNL     1      -8.179   8.444  70.287  1.00  0.00    -0.121 C  
BRANCH   6   7
HETATM    7  C   UNL     1      -9.467   8.057  71.084  1.00  0.00    -0.153 C  
HETATM    8  O   UNL     1     -10.261   9.291  71.236  1.00  0.00    -0.303 OA 
HETATM    9  P   UNL     1     -10.453   6.936  70.026  1.00  0.00    -0.226 P  
HETATM   10  P   UNL     1      -9.294   7.326  72.753  1.00  0.00    -0.172 P  
HETATM   11  H   UNL     1     -11.044   9.056  71.720  1.00  0.00     0.000 HD 
HETATM   12  O   UNL     1      -9.148   6.707  74.165  1.00  0.00    -0.156 OA 
HETATM   13  O   UNL     1      -8.533   8.679  73.291  1.00  0.00    -0.395 OA 
HETATM   14  O   UNL     1      -7.953   6.520  72.245  1.00  0.00    -0.101 OA 
HETATM   15  O   UNL     1     -11.286   5.988  69.130  1.00  0.00    -0.364 OA 
HETATM   16  O   UNL     1     -11.646   7.057  71.161  1.00  0.00    -0.279 OA 
HETATM   17  O   UNL     1     -10.998   8.240  69.155  1.00  0.00    -0.082 OA 
ENDBRANCH   6   7
ENDBRANCH   5   6
ENDBRANCH   4   5
TORSDOF 3
ENDMDL
MODEL      185
REMARK 921   NORMALIZED FREE ENERGY PREDICTED BY IDOCK:   -2.54 KCAL/MOL
REMARK 922        TOTAL FREE ENERGY PREDICTED BY IDOCK:   -3.33 KCAL/MOL
REMARK 923 INTER-LIGAND FREE ENERGY PREDICTED BY IDOCK:   -2.81 KCAL/MOL
REMARK 924 INTRA-LIGAND FREE ENERGY PREDICTED BY IDOCK:   -0.52 KCAL/MOL
REMARK 927      BINDING AFFINITY PREDICTED BY RF-SCORE:    0.00 PKD
ROOT
HETATM    1  N   UNL     1      -8.399  11.101  65.301  1.00  0.00    -0.377 NA 
HETATM    2  H2  UNL     1      -7.584  10.667  65.734  1.00  0.00     0.000 HD 
HETATM    3  H1  UNL     1      -8.139  11.612  64.457  1.00  0.00     0.000 HD 
HETATM    4  C   UNL     1      -9.447  10.121  65.056  1.00  0.00    -0.271 C  
ENDROOT
BRANCH   4   5
HETATM    5  C   UNL     1      -9.837   9.355  66.320  1.00  0.00    -0.351 C  
BRANCH   5   6
HETATM    6  C   UNL     1      -9.730  10.186  67.606  1.00  0.00    -0.187 C  
BRANCH   6   7
HETATM    7  C   UNL     1      -8.824   9.612  68.742  1.00  0.00    -0.130 C  
HETATM    8  O   UNL     1      -8.199   8.386  68.211  1.00  0.00    -0.121 OA 
HETATM    9  P   UNL     1      -7.464  10.806  69.018  1.00  0.00    -0.127 P  
HETATM   10  P   UNL     1      -9.583   9.171  70.348  1.00  0.00    -0.260 P  
HETATM   11  H   UNL     1      -7.648   8.037  68.902  1.00  0.00     0.000 HD 
HETATM   12  O   UNL     1     -10.225   8.798  71.707  1.00  0.00    -0.281 OA 
HETATM   13  O   UNL     1     -10.548   8.063  69.613  1.00  0.00    -0.226 OA 
HETATM   14  O   UNL     1     -10.597  10.458  70.205  1.00  0.00    -0.262 OA 
HETATM   15  O   UNL     1      -6.315  11.816  69.250  1.00  0.00    -0.083 OA 
HETATM   16  O   UNL     1      -6.795   9.678  70.021  1.00  0.00    -0.061 OA 
HETATM   17  O   UNL     1      -6.687  10.228  67.670  1.00  0.00    -0.072 OA 
ENDBRANCH   6   7
ENDBRANCH   5   6
ENDBRANCH   4   5
TORSDOF 3
ENDMDL
MODEL      186
REMARK 921   NORMALIZED FREE ENERGY PREDICTED BY IDOCK:   -2.54 KCAL/MOL
REMARK 922        TOTAL FREE ENERGY PREDICTED BY IDOCK:   -3.33 KCAL/MOL
REMARK 923 INTER-LIGAND FREE ENERGY PREDICTED BY IDOCK:   -3.63 KCAL/MOL
REMARK 924 INTRA-LIGAND FREE ENERGY PREDICTED BY IDOCK:    0.30 KCAL/MOL
REMARK 927      BINDING AFFINITY PREDICTED BY RF-SCORE:    0.00 PKD
ROOT
HETATM    1  N   UNL     1     -12.574  14.657  69.967  1.00  0.00    -0.525 NA 
HETATM    2  H2  UNL     1     -12.393  14.794  70.961  1.00  0.00     0.000 HD 
HETATM    3  H1  UNL     1     -13.510  14.283  69.812  1.00  0.00     0.000 HD 
HETATM    4  C   UNL     1     -12.334  15.881  69.216  1.00  0.00     0.107 C  
ENDROOT
BRANCH   4   5
HETATM    5  C   UNL     1     -10.930  16.441  69.448  1.00  0.00    -0.325 C  
BRANCH   5   6
HETATM    6  C   UNL     1     -10.455  17.398  68.346  1.00  0.00    -0.384 C  
BRANCH   6   7
HETATM    7  C   UNL     1      -9.298  16.894  67.425  1.00  0.00    -0.235 C  
HETATM    8  O   UNL     1      -8.465  18.069  67.104  1.00  0.00    -0.227 OA 
HETATM    9  P   UNL     1      -8.249  15.776  68.425  1.00  0.00    -0.168 P  
HETATM   10  P   UNL     1      -9.712  16.084  65.837  1.00  0.00    -0.270 P  
HETATM   11  H   UNL     1      -7.761  17.762  66.545  1.00  0.00     0.000 HD 
HETATM   12  O   UNL     1     -10.062  15.398  64.493  1.00  0.00    -0.042 OA 
HETATM   13  O   UNL     1     -10.462  17.448  65.312  1.00  0.00    -0.654 OA 
HETATM   14  O   UNL     1     -11.020  15.388  66.551  1.00  0.00    -0.315 OA 
HETATM   15  O   UNL     1      -7.362  14.830  69.271  1.00  0.00    -0.151 OA 
HETATM   16  O   UNL     1      -7.199  15.763  67.150  1.00  0.00    -0.201 OA 
HETATM   17  O   UNL     1      -7.534  17.091  69.142  1.00  0.00    -0.235 OA 
ENDBRANCH   6   7
ENDBRANCH   5   6
ENDBRANCH   4   5
TORSDOF 3
ENDMDL
MODEL      187
REMARK 921   NORMALIZED FREE ENERGY PREDICTED BY IDOCK:   -2.54 KCAL/MOL
REMARK 922        TOTAL FREE ENERGY PREDICTED BY IDOCK:   -3.33 KCAL/MOL
REMARK 923 INTER-LIGAND FREE ENERGY PREDICTED BY IDOCK:   -3.17 KCAL/MOL
REMARK 924 INTRA-LIGAND FREE ENERGY PREDICTED BY IDOCK:   -0.15 KCAL/MOL
REMARK 927      BINDING AFFINITY PREDICTED BY RF-SCORE:    0.00 PKD
ROOT
HETATM    1  N   UNL     1     -11.338   4.933  65.439  1.00  0.00    -0.927 NA 
HETATM    2  H2  UNL     1     -10.773   4.797  64.601  1.00  0.00     0.000 HD 
HETATM    3  H1  UNL     1     -11.938   4.127  65.613  1.00  0.00     0.000 HD 
HETATM    4  C   UNL     1     -10.505   5.263  66.586  1.00  0.00    -0.290 C  
ENDROOT
BRANCH   4   5
HETATM    5  C   UNL     1      -9.605   6.472  66.325  1.00  0.00    -0.096 C  
BRANCH   5   6
HETATM    6  C   UNL     1      -9.966   7.705  67.165  1.00  0.00    -0.297 C  
BRANCH   6   7
HETATM    7  C   UNL     1      -8.894   8.838  67.248  1.00  0.00    -0.132 C  
HETATM    8  O   UNL     1      -7.738   8.392  66.447  1.00  0.00    -0.092 OA 
HETATM    9  P   UNL     1      -9.577  10.306  66.394  1.00  0.00    -0.205 P  
HETATM   10  P   UNL     1      -8.247   9.332  68.887  1.00  0.00    -0.116 P  
HETATM   11  H   UNL     1      -7.086   9.081  66.498  1.00  0.00     0.000 HD 
HETATM   12  O   UNL     1      -7.700   9.751  70.275  1.00  0.00    -0.158 OA 
HETATM   13  O   UNL     1      -7.666   7.817  69.140  1.00  0.00    -0.097 OA 
HETATM   14  O   UNL     1      -9.741   9.093  69.532  1.00  0.00    -0.164 OA 
HETATM   15  O   UNL     1     -10.156  11.546  65.672  1.00  0.00    -0.218 OA 
HETATM   16  O   UNL     1      -8.087  10.996  66.575  1.00  0.00    -0.151 OA 
HETATM   17  O   UNL     1      -9.205   9.623  64.928  1.00  0.00    -0.229 OA 
ENDBRANCH   6   7
ENDBRANCH   5   6
ENDBRANCH   4   5
TORSDOF 3
ENDMDL
MODEL      188
REMARK 921   NORMALIZED FREE ENERGY PREDICTED BY IDOCK:   -2.54 KCAL/MOL
REMARK 922        TOTAL FREE ENERGY PREDICTED BY IDOCK:   -3.33 KCAL/MOL
REMARK 923 INTER-LIGAND FREE ENERGY PREDICTED BY IDOCK:   -3.10 KCAL/MOL
REMARK 924 INTRA-LIGAND FREE ENERGY PREDICTED BY IDOCK:   -0.22 KCAL/MOL
REMARK 927      BINDING AFFINITY PREDICTED BY RF-SCORE:    0.00 PKD
ROOT
HETATM    1  N   UNL     1     -13.632   7.315  72.097  1.00  0.00    -0.533 NA 
HETATM    2  H2  UNL     1     -13.258   6.919  72.959  1.00  0.00     0.000 HD 
HETATM    3  H1  UNL     1     -14.307   8.055  72.294  1.00  0.00     0.000 HD 
HETATM    4  C   UNL     1     -12.561   7.761  71.217  1.00  0.00    -0.264 C  
ENDROOT
BRANCH   4   5
HETATM    5  C   UNL     1     -11.550   6.653  70.921  1.00  0.00    -0.416 C  
BRANCH   5   6
HETATM    6  C   UNL     1     -10.706   6.243  72.136  1.00  0.00    -0.269 C  
BRANCH   6   7
HETATM    7  C   UNL     1      -9.159   6.425  72.013  1.00  0.00    -0.141 C  
HETATM    8  O   UNL     1      -8.901   6.978  70.669  1.00  0.00    -0.148 OA 
HETATM    9  P   UNL     1      -8.661   7.720  73.207  1.00  0.00    -0.261 P  
HETATM   10  P   UNL     1      -8.073   4.966  72.207  1.00  0.00    -0.113 P  
HETATM   11  H   UNL     1      -7.960   7.088  70.595  1.00  0.00     0.000 HD 
HETATM   12  O   UNL     1      -7.153   3.730  72.372  1.00  0.00    -0.044 OA 
HETATM   13  O   UNL     1      -8.783   4.237  70.918  1.00  0.00    -0.085 OA 
HETATM   14  O   UNL     1      -9.088   4.383  73.362  1.00  0.00    -0.110 OA 
HETATM   15  O   UNL     1      -8.240   8.815  74.217  1.00  0.00    -0.289 OA 
HETATM   16  O   UNL     1      -7.159   7.650  72.523  1.00  0.00    -0.067 OA 
HETATM   17  O   UNL     1      -9.203   8.890  72.162  1.00  0.00    -0.364 OA 
ENDBRANCH   6   7
ENDBRANCH   5   6
ENDBRANCH   4   5
TORSDOF 3
ENDMDL
MODEL      189
REMARK 921   NORMALIZED FREE ENERGY PREDICTED BY IDOCK:   -2.53 KCAL/MOL
REMARK 922        TOTAL FREE ENERGY PREDICTED BY IDOCK:   -3.32 KCAL/MOL
REMARK 923 INTER-LIGAND FREE ENERGY PREDICTED BY IDOCK:   -3.15 KCAL/MOL
REMARK 924 INTRA-LIGAND FREE ENERGY PREDICTED BY IDOCK:   -0.17 KCAL/MOL
REMARK 927      BINDING AFFINITY PREDICTED BY RF-SCORE:    0.00 PKD
ROOT
HETATM    1  N   UNL     1     -10.473  11.895  69.225  1.00  0.00    -0.435 NA 
HETATM    2  H2  UNL     1     -10.270  12.216  70.172  1.00  0.00     0.000 HD 
HETATM    3  H1  UNL     1     -10.964  12.612  68.691  1.00  0.00     0.000 HD 
HETATM    4  C   UNL     1      -9.265  11.433  68.557  1.00  0.00    -0.174 C  
ENDROOT
BRANCH   4   5
HETATM    5  C   UNL     1      -8.530  10.358  69.357  1.00  0.00    -0.145 C  
BRANCH   5   6
HETATM    6  C   UNL     1      -9.397   9.682  70.429  1.00  0.00    -0.268 C  
BRANCH   6   7
HETATM    7  C   UNL     1      -9.044   8.204  70.791  1.00  0.00    -0.146 C  
HETATM    8  O   UNL     1      -7.712   7.931  70.219  1.00  0.00    -0.084 OA 
HETATM    9  P   UNL     1      -8.852   8.114  72.609  1.00  0.00    -0.235 P  
HETATM   10  P   UNL     1     -10.151   6.860  70.228  1.00  0.00    -0.185 P  
HETATM   11  H   UNL     1      -7.497   7.032  70.439  1.00  0.00     0.000 HD 
HETATM   12  O   UNL     1     -11.089   5.723  69.751  1.00  0.00    -0.369 OA 
HETATM   13  O   UNL     1      -9.882   7.266  68.659  1.00  0.00    -0.155 OA 
HETATM   14  O   UNL     1     -11.446   7.843  70.478  1.00  0.00    -0.267 OA 
HETATM   15  O   UNL     1      -8.690   8.039  74.147  1.00  0.00    -0.258 OA 
HETATM   16  O   UNL     1      -8.311   6.569  72.388  1.00  0.00    -0.109 OA 
HETATM   17  O   UNL     1      -7.337   8.780  72.480  1.00  0.00    -0.323 OA 
ENDBRANCH   6   7
ENDBRANCH   5   6
ENDBRANCH   4   5
TORSDOF 3
ENDMDL
MODEL      190
REMARK 921   NORMALIZED FREE ENERGY PREDICTED BY IDOCK:   -2.53 KCAL/MOL
REMARK 922        TOTAL FREE ENERGY PREDICTED BY IDOCK:   -3.32 KCAL/MOL
REMARK 923 INTER-LIGAND FREE ENERGY PREDICTED BY IDOCK:   -3.09 KCAL/MOL
REMARK 924 INTRA-LIGAND FREE ENERGY PREDICTED BY IDOCK:   -0.23 KCAL/MOL
REMARK 927      BINDING AFFINITY PREDICTED BY RF-SCORE:    0.00 PKD
ROOT
HETATM    1  N   UNL     1     -11.155   5.422  66.052  1.00  0.00    -0.789 NA 
HETATM    2  H2  UNL     1     -11.614   6.316  65.877  1.00  0.00     0.000 HD 
HETATM    3  H1  UNL     1     -11.628   4.663  65.561  1.00  0.00     0.000 HD 
HETATM    4  C   UNL     1      -9.736   5.490  65.733  1.00  0.00     0.034 C  
ENDROOT
BRANCH   4   5
HETATM    5  C   UNL     1      -9.027   6.628  66.468  1.00  0.00    -0.155 C  
BRANCH   5   6
HETATM    6  C   UNL     1      -9.932   7.395  67.443  1.00  0.00    -0.239 C  
BRANCH   6   7
HETATM    7  C   UNL     1      -9.453   7.484  68.927  1.00  0.00    -0.145 C  
HETATM    8  O   UNL     1      -7.980   7.572  68.896  1.00  0.00    -0.121 OA 
HETATM    9  P   UNL     1     -10.050   9.077  69.603  1.00  0.00    -0.215 P  
HETATM   10  P   UNL     1      -9.881   6.132  70.083  1.00  0.00    -0.182 P  
HETATM   11  H   UNL     1      -7.689   7.627  69.798  1.00  0.00     0.000 HD 
HETATM   12  O   UNL     1     -10.244   4.987  71.062  1.00  0.00    -0.217 OA 
HETATM   13  O   UNL     1      -9.058   5.051  69.160  1.00  0.00    -0.095 OA 
HETATM   14  O   UNL     1     -11.339   5.976  69.337  1.00  0.00    -0.398 OA 
HETATM   15  O   UNL     1     -10.556  10.424  70.174  1.00  0.00    -0.273 OA 
HETATM   16  O   UNL     1      -9.140   8.749  70.942  1.00  0.00    -0.170 OA 
HETATM   17  O   UNL     1      -8.817   9.868  68.823  1.00  0.00    -0.126 OA 
ENDBRANCH   6   7
ENDBRANCH   5   6
ENDBRANCH   4   5
TORSDOF 3
ENDMDL
MODEL      191
REMARK 921   NORMALIZED FREE ENERGY PREDICTED BY IDOCK:   -2.53 KCAL/MOL
REMARK 922        TOTAL FREE ENERGY PREDICTED BY IDOCK:   -3.32 KCAL/MOL
REMARK 923 INTER-LIGAND FREE ENERGY PREDICTED BY IDOCK:   -3.48 KCAL/MOL
REMARK 924 INTRA-LIGAND FREE ENERGY PREDICTED BY IDOCK:    0.17 KCAL/MOL
REMARK 927      BINDING AFFINITY PREDICTED BY RF-SCORE:    0.00 PKD
ROOT
HETATM    1  N   UNL     1     -14.087   8.870  70.956  1.00  0.00    -0.560 NA 
HETATM    2  H2  UNL     1     -13.645   8.879  70.037  1.00  0.00     0.000 HD 
HETATM    3  H1  UNL     1     -15.097   8.993  70.879  1.00  0.00     0.000 HD 
HETATM    4  C   UNL     1     -13.729   7.671  71.699  1.00  0.00    -0.374 C  
ENDROOT
BRANCH   4   5
HETATM    5  C   UNL     1     -12.215   7.487  71.815  1.00  0.00    -0.345 C  
BRANCH   5   6
HETATM    6  C   UNL     1     -11.402   8.563  71.082  1.00  0.00    -0.319 C  
BRANCH   6   7
HETATM    7  C   UNL     1      -9.939   8.190  70.682  1.00  0.00    -0.189 C  
HETATM    8  O   UNL     1      -9.175   9.451  70.631  1.00  0.00    -0.244 OA 
HETATM    9  P   UNL     1      -9.227   7.211  72.056  1.00  0.00    -0.132 P  
HETATM   10  P   UNL     1      -9.643   7.322  69.098  1.00  0.00    -0.157 P  
HETATM   11  H   UNL     1      -8.285   9.224  70.388  1.00  0.00     0.000 HD 
HETATM   12  O   UNL     1      -9.392   6.588  67.758  1.00  0.00    -0.120 OA 
HETATM   13  O   UNL     1     -10.282   8.584  68.262  1.00  0.00    -0.193 OA 
HETATM   14  O   UNL     1     -11.042   6.484  69.313  1.00  0.00    -0.300 OA 
HETATM   15  O   UNL     1      -8.625   6.384  73.218  1.00  0.00    -0.122 OA 
HETATM   16  O   UNL     1      -7.782   7.311  71.261  1.00  0.00    -0.086 OA 
HETATM   17  O   UNL     1      -8.974   8.608  72.917  1.00  0.00    -0.343 OA 
ENDBRANCH   6   7
ENDBRANCH   5   6
ENDBRANCH   4   5
TORSDOF 3
ENDMDL
MODEL      192
REMARK 921   NORMALIZED FREE ENERGY PREDICTED BY IDOCK:   -2.52 KCAL/MOL
REMARK 922        TOTAL FREE ENERGY PREDICTED BY IDOCK:   -3.30 KCAL/MOL
REMARK 923 INTER-LIGAND FREE ENERGY PREDICTED BY IDOCK:   -3.15 KCAL/MOL
REMARK 924 INTRA-LIGAND FREE ENERGY PREDICTED BY IDOCK:   -0.15 KCAL/MOL
REMARK 927      BINDING AFFINITY PREDICTED BY RF-SCORE:    0.00 PKD
ROOT
HETATM    1  N   UNL     1      -8.733  11.376  63.155  1.00  0.00    -0.479 NA 
HETATM    2  H2  UNL     1      -8.674  10.523  62.599  1.00  0.00     0.000 HD 
HETATM    3  H1  UNL     1      -9.001  12.173  62.579  1.00  0.00     0.000 HD 
HETATM    4  C   UNL     1      -9.615  11.196  64.300  1.00  0.00    -0.252 C  
ENDROOT
BRANCH   4   5
HETATM    5  C   UNL     1      -9.213  10.001  65.164  1.00  0.00    -0.273 C  
BRANCH   5   6
HETATM    6  C   UNL     1     -10.257   9.624  66.225  1.00  0.00    -0.286 C  
BRANCH   6   7
HETATM    7  C   UNL     1      -9.715   9.205  67.629  1.00  0.00    -0.159 C  
HETATM    8  O   UNL     1      -8.328   9.701  67.717  1.00  0.00    -0.119 OA 
HETATM    9  P   UNL     1     -10.674  10.127  68.886  1.00  0.00    -0.236 P  
HETATM   10  P   UNL     1      -9.675   7.430  68.073  1.00  0.00    -0.153 P  
HETATM   11  H   UNL     1      -7.999   9.446  68.571  1.00  0.00     0.000 HD 
HETATM   12  O   UNL     1      -9.641   5.928  68.449  1.00  0.00    -0.118 OA 
HETATM   13  O   UNL     1      -8.657   7.117  66.823  1.00  0.00    -0.117 OA 
HETATM   14  O   UNL     1     -11.084   7.208  67.255  1.00  0.00    -0.288 OA 
HETATM   15  O   UNL     1     -11.485  10.907  69.949  1.00  0.00    -0.271 OA 
HETATM   16  O   UNL     1      -9.615   9.529  70.004  1.00  0.00    -0.206 OA 
HETATM   17  O   UNL     1      -9.762  11.481  68.585  1.00  0.00    -0.197 OA 
ENDBRANCH   6   7
ENDBRANCH   5   6
ENDBRANCH   4   5
TORSDOF 3
ENDMDL
MODEL      193
REMARK 921   NORMALIZED FREE ENERGY PREDICTED BY IDOCK:   -2.51 KCAL/MOL
REMARK 922        TOTAL FREE ENERGY PREDICTED BY IDOCK:   -3.29 KCAL/MOL
REMARK 923 INTER-LIGAND FREE ENERGY PREDICTED BY IDOCK:   -2.78 KCAL/MOL
REMARK 924 INTRA-LIGAND FREE ENERGY PREDICTED BY IDOCK:   -0.51 KCAL/MOL
REMARK 927      BINDING AFFINITY PREDICTED BY RF-SCORE:    0.00 PKD
ROOT
HETATM    1  N   UNL     1      -7.360  10.243  64.865  1.00  0.00    -0.220 NA 
HETATM    2  H2  UNL     1      -7.490  10.662  65.786  1.00  0.00     0.000 HD 
HETATM    3  H1  UNL     1      -6.930  10.903  64.217  1.00  0.00     0.000 HD 
HETATM    4  C   UNL     1      -6.619   8.993  64.958  1.00  0.00    -0.069 C  
ENDROOT
BRANCH   4   5
HETATM    5  C   UNL     1      -7.264   8.003  65.929  1.00  0.00    -0.065 C  
BRANCH   5   6
HETATM    6  C   UNL     1      -8.793   8.113  66.001  1.00  0.00    -0.206 C  
BRANCH   6   7
HETATM    7  C   UNL     1      -9.411   8.432  67.400  1.00  0.00    -0.147 C  
HETATM    8  O   UNL     1      -8.304   8.891  68.260  1.00  0.00    -0.123 OA 
HETATM    9  P   UNL     1     -10.531   9.865  67.192  1.00  0.00    -0.197 P  
HETATM   10  P   UNL     1     -10.282   7.106  68.312  1.00  0.00    -0.198 P  
HETATM   11  H   UNL     1      -8.680   9.085  69.111  1.00  0.00     0.000 HD 
HETATM   12  O   UNL     1     -11.019   5.983  69.084  1.00  0.00    -0.328 OA 
HETATM   13  O   UNL     1      -8.909   6.205  68.357  1.00  0.00    -0.115 OA 
HETATM   14  O   UNL     1     -10.864   6.528  66.886  1.00  0.00    -0.339 OA 
HETATM   15  O   UNL     1     -11.477  11.077  67.015  1.00  0.00    -0.415 OA 
HETATM   16  O   UNL     1     -10.671   9.882  68.837  1.00  0.00    -0.210 OA 
HETATM   17  O   UNL     1      -9.220  10.884  67.183  1.00  0.00    -0.148 OA 
ENDBRANCH   6   7
ENDBRANCH   5   6
ENDBRANCH   4   5
TORSDOF 3
ENDMDL
MODEL      194
REMARK 921   NORMALIZED FREE ENERGY PREDICTED BY IDOCK:   -2.50 KCAL/MOL
REMARK 922        TOTAL FREE ENERGY PREDICTED BY IDOCK:   -3.28 KCAL/MOL
REMARK 923 INTER-LIGAND FREE ENERGY PREDICTED BY IDOCK:   -3.12 KCAL/MOL
REMARK 924 INTRA-LIGAND FREE ENERGY PREDICTED BY IDOCK:   -0.16 KCAL/MOL
REMARK 927      BINDING AFFINITY PREDICTED BY RF-SCORE:    0.00 PKD
ROOT
HETATM    1  N   UNL     1     -12.894  10.234  70.160  1.00  0.00    -0.562 NA 
HETATM    2  H2  UNL     1     -12.645   9.461  69.542  1.00  0.00     0.000 HD 
HETATM    3  H1  UNL     1     -13.830  10.583  69.955  1.00  0.00     0.000 HD 
HETATM    4  C   UNL     1     -12.734   9.858  71.558  1.00  0.00    -0.415 C  
ENDROOT
BRANCH   4   5
HETATM    5  C   UNL     1     -11.331   9.336  71.865  1.00  0.00    -0.359 C  
BRANCH   5   6
HETATM    6  C   UNL     1     -10.795   8.347  70.820  1.00  0.00    -0.255 C  
BRANCH   6   7
HETATM    7  C   UNL     1      -9.411   7.686  71.121  1.00  0.00    -0.154 C  
HETATM    8  O   UNL     1      -9.104   7.965  72.536  1.00  0.00    -0.151 OA 
HETATM    9  P   UNL     1      -9.628   5.873  70.988  1.00  0.00    -0.171 P  
HETATM   10  P   UNL     1      -7.950   8.199  70.146  1.00  0.00    -0.112 P  
HETATM   11  H   UNL     1      -8.263   7.563  72.719  1.00  0.00     0.000 HD 
HETATM   12  O   UNL     1      -6.712   8.632  69.322  1.00  0.00    -0.048 OA 
HETATM   13  O   UNL     1      -8.104   9.743  70.685  1.00  0.00    -0.264 OA 
HETATM   14  O   UNL     1      -8.906   8.345  68.816  1.00  0.00    -0.139 OA 
HETATM   15  O   UNL     1      -9.812   4.341  70.876  1.00  0.00    -0.188 OA 
HETATM   16  O   UNL     1      -8.091   5.735  71.578  1.00  0.00    -0.114 OA 
HETATM   17  O   UNL     1     -10.326   5.849  72.494  1.00  0.00    -0.187 OA 
ENDBRANCH   6   7
ENDBRANCH   5   6
ENDBRANCH   4   5
TORSDOF 3
ENDMDL
MODEL      195
REMARK 921   NORMALIZED FREE ENERGY PREDICTED BY IDOCK:   -2.47 KCAL/MOL
REMARK 922        TOTAL FREE ENERGY PREDICTED BY IDOCK:   -3.25 KCAL/MOL
REMARK 923 INTER-LIGAND FREE ENERGY PREDICTED BY IDOCK:   -3.07 KCAL/MOL
REMARK 924 INTRA-LIGAND FREE ENERGY PREDICTED BY IDOCK:   -0.18 KCAL/MOL
REMARK 927      BINDING AFFINITY PREDICTED BY RF-SCORE:    0.00 PKD
ROOT
HETATM    1  N   UNL     1     -11.338   6.287  66.937  1.00  0.00    -0.703 NA 
HETATM    2  H2  UNL     1     -11.500   7.197  67.369  1.00  0.00     0.000 HD 
HETATM    3  H1  UNL     1     -11.365   6.352  65.920  1.00  0.00     0.000 HD 
HETATM    4  C   UNL     1     -10.103   5.689  67.422  1.00  0.00    -0.173 C  
ENDROOT
BRANCH   4   5
HETATM    5  C   UNL     1     -10.061   5.591  68.948  1.00  0.00    -0.266 C  
BRANCH   5   6
HETATM    6  C   UNL     1     -10.818   6.720  69.662  1.00  0.00    -0.314 C  
BRANCH   6   7
HETATM    7  C   UNL     1      -9.955   7.761  70.445  1.00  0.00    -0.188 C  
HETATM    8  O   UNL     1     -10.513   7.838  71.808  1.00  0.00    -0.208 OA 
HETATM    9  P   UNL     1      -8.272   7.061  70.615  1.00  0.00    -0.120 P  
HETATM   10  P   UNL     1      -9.842   9.476  69.816  1.00  0.00    -0.246 P  
HETATM   11  H   UNL     1      -9.987   8.471  72.284  1.00  0.00     0.000 HD 
HETATM   12  O   UNL     1      -9.746  10.927  69.284  1.00  0.00    -0.170 OA 
HETATM   13  O   UNL     1     -11.465   9.667  69.982  1.00  0.00    -0.225 OA 
HETATM   14  O   UNL     1      -9.856   8.897  68.277  1.00  0.00    -0.157 OA 
HETATM   15  O   UNL     1      -6.849   6.470  70.759  1.00  0.00    -0.059 OA 
HETATM   16  O   UNL     1      -7.938   8.337  71.609  1.00  0.00    -0.106 OA 
HETATM   17  O   UNL     1      -8.802   6.093  71.854  1.00  0.00    -0.137 OA 
ENDBRANCH   6   7
ENDBRANCH   5   6
ENDBRANCH   4   5
TORSDOF 3
ENDMDL
MODEL      196
REMARK 921   NORMALIZED FREE ENERGY PREDICTED BY IDOCK:   -2.46 KCAL/MOL
REMARK 922        TOTAL FREE ENERGY PREDICTED BY IDOCK:   -3.24 KCAL/MOL
REMARK 923 INTER-LIGAND FREE ENERGY PREDICTED BY IDOCK:   -2.97 KCAL/MOL
REMARK 924 INTRA-LIGAND FREE ENERGY PREDICTED BY IDOCK:   -0.27 KCAL/MOL
REMARK 927      BINDING AFFINITY PREDICTED BY RF-SCORE:    0.00 PKD
ROOT
HETATM    1  N   UNL     1      -7.705  13.561  67.032  1.00  0.00    -0.362 NA 
HETATM    2  H2  UNL     1      -8.700  13.375  67.157  1.00  0.00     0.000 HD 
HETATM    3  H1  UNL     1      -7.458  14.491  67.373  1.00  0.00     0.000 HD 
HETATM    4  C   UNL     1      -6.896  12.514  67.639  1.00  0.00    -0.136 C  
ENDROOT
BRANCH   4   5
HETATM    5  C   UNL     1      -7.265  11.121  67.128  1.00  0.00    -0.120 C  
BRANCH   5   6
HETATM    6  C   UNL     1      -8.187  11.136  65.901  1.00  0.00    -0.048 C  
BRANCH   6   7
HETATM    7  C   UNL     1      -9.568  10.420  66.050  1.00  0.00    -0.201 C  
HETATM    8  O   UNL     1      -9.632   9.392  64.994  1.00  0.00    -0.437 OA 
HETATM    9  P   UNL     1      -9.551   9.520  67.644  1.00  0.00    -0.145 P  
HETATM   10  P   UNL     1     -11.102  11.410  65.925  1.00  0.00     0.005 P  
HETATM   11  H   UNL     1     -10.472   8.956  65.085  1.00  0.00     0.000 HD 
HETATM   12  O   UNL     1     -12.401  12.247  65.819  1.00  0.00    -0.622 OA 
HETATM   13  O   UNL     1     -10.719  11.849  64.389  1.00  0.00    -0.284 OA 
HETATM   14  O   UNL     1     -10.346  12.652  66.692  1.00  0.00    -0.233 OA 
HETATM   15  O   UNL     1      -9.536   8.760  68.992  1.00  0.00    -0.159 OA 
HETATM   16  O   UNL     1     -10.989   8.851  67.181  1.00  0.00    -0.110 OA 
HETATM   17  O   UNL     1      -8.642   8.316  66.953  1.00  0.00    -0.116 OA 
ENDBRANCH   6   7
ENDBRANCH   5   6
ENDBRANCH   4   5
TORSDOF 3
ENDMDL
MODEL      197
REMARK 921   NORMALIZED FREE ENERGY PREDICTED BY IDOCK:   -2.45 KCAL/MOL
REMARK 922        TOTAL FREE ENERGY PREDICTED BY IDOCK:   -3.23 KCAL/MOL
REMARK 923 INTER-LIGAND FREE ENERGY PREDICTED BY IDOCK:   -2.92 KCAL/MOL
REMARK 924 INTRA-LIGAND FREE ENERGY PREDICTED BY IDOCK:   -0.30 KCAL/MOL
REMARK 927      BINDING AFFINITY PREDICTED BY RF-SCORE:    0.00 PKD
ROOT
HETATM    1  N   UNL     1      -6.919   5.709  70.861  1.00  0.00    -0.059 NA 
HETATM    2  H2  UNL     1      -6.883   6.651  71.250  1.00  0.00     0.000 HD 
HETATM    3  H1  UNL     1      -6.015   5.243  70.941  1.00  0.00     0.000 HD 
HETATM    4  C   UNL     1      -7.997   4.935  71.460  1.00  0.00    -0.110 C  
ENDROOT
BRANCH   4   5
HETATM    5  C   UNL     1      -9.352   5.634  71.340  1.00  0.00    -0.169 C  
BRANCH   5   6
HETATM    6  C   UNL     1      -9.519   6.445  70.048  1.00  0.00    -0.165 C  
BRANCH   6   7
HETATM    7  C   UNL     1     -10.086   7.894  70.195  1.00  0.00    -0.194 C  
HETATM    8  O   UNL     1     -11.148   8.041  69.182  1.00  0.00    -0.428 OA 
HETATM    9  P   UNL     1     -10.911   7.999  71.826  1.00  0.00    -0.277 P  
HETATM   10  P   UNL     1      -8.954   9.317  69.992  1.00  0.00    -0.233 P  
HETATM   11  H   UNL     1     -11.492   8.922  69.271  1.00  0.00     0.000 HD 
HETATM   12  O   UNL     1      -7.995  10.522  69.820  1.00  0.00    -0.127 OA 
HETATM   13  O   UNL     1      -8.623   8.862  68.448  1.00  0.00    -0.132 OA 
HETATM   14  O   UNL     1      -7.760   8.454  70.724  1.00  0.00    -0.071 OA 
HETATM   15  O   UNL     1     -11.608   8.087  73.204  1.00  0.00    -0.289 OA 
HETATM   16  O   UNL     1     -11.452   9.488  71.357  1.00  0.00    -0.342 OA 
HETATM   17  O   UNL     1     -12.230   7.203  71.207  1.00  0.00    -0.328 OA 
ENDBRANCH   6   7
ENDBRANCH   5   6
ENDBRANCH   4   5
TORSDOF 3
ENDMDL
MODEL      198
REMARK 921   NORMALIZED FREE ENERGY PREDICTED BY IDOCK:   -2.45 KCAL/MOL
REMARK 922        TOTAL FREE ENERGY PREDICTED BY IDOCK:   -3.22 KCAL/MOL
REMARK 923 INTER-LIGAND FREE ENERGY PREDICTED BY IDOCK:   -3.49 KCAL/MOL
REMARK 924 INTRA-LIGAND FREE ENERGY PREDICTED BY IDOCK:    0.27 KCAL/MOL
REMARK 927      BINDING AFFINITY PREDICTED BY RF-SCORE:    0.00 PKD
ROOT
HETATM    1  N   UNL     1      -8.926  16.872  68.325  1.00  0.00    -0.228 NA 
HETATM    2  H2  UNL     1      -8.958  17.392  67.448  1.00  0.00     0.000 HD 
HETATM    3  H1  UNL     1      -9.366  17.396  69.081  1.00  0.00     0.000 HD 
HETATM    4  C   UNL     1      -9.497  15.542  68.166  1.00  0.00    -0.198 C  
ENDROOT
BRANCH   4   5
HETATM    5  C   UNL     1      -8.837  14.755  67.033  1.00  0.00    -0.258 C  
BRANCH   5   6
HETATM    6  C   UNL     1      -9.773  13.746  66.353  1.00  0.00    -0.304 C  
BRANCH   6   7
HETATM    7  C   UNL     1      -9.764  12.288  66.914  1.00  0.00    -0.212 C  
HETATM    8  O   UNL     1      -9.505  11.393  65.770  1.00  0.00    -0.222 OA 
HETATM    9  P   UNL     1      -8.318  12.136  68.026  1.00  0.00    -0.182 P  
HETATM   10  P   UNL     1     -11.255  11.652  67.762  1.00  0.00    -0.296 P  
HETATM   11  H   UNL     1      -9.499  10.506  66.112  1.00  0.00     0.000 HD 
HETATM   12  O   UNL     1     -12.517  11.113  68.481  1.00  0.00    -0.452 OA 
HETATM   13  O   UNL     1     -12.146  11.857  66.398  1.00  0.00    -0.552 OA 
HETATM   14  O   UNL     1     -11.509  13.145  68.404  1.00  0.00    -0.271 OA 
HETATM   15  O   UNL     1      -7.095  12.008  68.965  1.00  0.00    -0.108 OA 
HETATM   16  O   UNL     1      -8.658  10.522  68.103  1.00  0.00    -0.118 OA 
HETATM   17  O   UNL     1      -7.323  11.975  66.706  1.00  0.00    -0.088 OA 
ENDBRANCH   6   7
ENDBRANCH   5   6
ENDBRANCH   4   5
TORSDOF 3
ENDMDL
MODEL      199
REMARK 921   NORMALIZED FREE ENERGY PREDICTED BY IDOCK:   -2.44 KCAL/MOL
REMARK 922        TOTAL FREE ENERGY PREDICTED BY IDOCK:   -3.22 KCAL/MOL
REMARK 923 INTER-LIGAND FREE ENERGY PREDICTED BY IDOCK:   -3.21 KCAL/MOL
REMARK 924 INTRA-LIGAND FREE ENERGY PREDICTED BY IDOCK:   -0.00 KCAL/MOL
REMARK 927      BINDING AFFINITY PREDICTED BY RF-SCORE:    0.00 PKD
ROOT
HETATM    1  N   UNL     1     -11.259   6.664  68.152  1.00  0.00    -0.554 NA 
HETATM    2  H2  UNL     1     -10.812   6.030  67.490  1.00  0.00     0.000 HD 
HETATM    3  H1  UNL     1     -11.502   6.183  69.018  1.00  0.00     0.000 HD 
HETATM    4  C   UNL     1     -10.437   7.844  68.384  1.00  0.00    -0.166 C  
ENDROOT
BRANCH   4   5
HETATM    5  C   UNL     1     -10.074   8.567  67.087  1.00  0.00    -0.331 C  
BRANCH   5   6
HETATM    6  C   UNL     1     -11.153   9.543  66.599  1.00  0.00     0.448 C  
BRANCH   6   7
HETATM    7  C   UNL     1     -10.707  11.020  66.354  1.00  0.00    -0.227 C  
HETATM    8  O   UNL     1     -11.787  11.883  66.869  1.00  0.00    -0.590 OA 
HETATM    9  P   UNL     1      -9.246  11.335  67.411  1.00  0.00    -0.165 P  
HETATM   10  P   UNL     1     -10.354  11.572  64.645  1.00  0.00    -0.338 P  
HETATM   11  H   UNL     1     -11.515  12.781  66.721  1.00  0.00     0.000 HD 
HETATM   12  O   UNL     1     -10.055  12.038  63.198  1.00  0.00    -0.414 OA 
HETATM   13  O   UNL     1     -11.898  11.237  64.194  1.00  0.00    -0.009 OA 
HETATM   14  O   UNL     1      -9.715  10.092  64.316  1.00  0.00    -0.310 OA 
HETATM   15  O   UNL     1      -8.011  11.602  68.304  1.00  0.00    -0.128 OA 
HETATM   16  O   UNL     1      -9.371  12.919  66.959  1.00  0.00    -0.219 OA 
HETATM   17  O   UNL     1     -10.241  11.518  68.727  1.00  0.00    -0.212 OA 
ENDBRANCH   6   7
ENDBRANCH   5   6
ENDBRANCH   4   5
TORSDOF 3
ENDMDL
MODEL      200
REMARK 921   NORMALIZED FREE ENERGY PREDICTED BY IDOCK:   -2.43 KCAL/MOL
REMARK 922        TOTAL FREE ENERGY PREDICTED BY IDOCK:   -3.20 KCAL/MOL
REMARK 923 INTER-LIGAND FREE ENERGY PREDICTED BY IDOCK:   -2.92 KCAL/MOL
REMARK 924 INTRA-LIGAND FREE ENERGY PREDICTED BY IDOCK:   -0.29 KCAL/MOL
REMARK 927      BINDING AFFINITY PREDICTED BY RF-SCORE:    0.00 PKD
ROOT
HETATM    1  N   UNL     1     -10.787   8.091  68.639  1.00  0.00    -0.417 NA 
HETATM    2  H2  UNL     1     -11.404   8.730  68.139  1.00  0.00     0.000 HD 
HETATM    3  H1  UNL     1     -11.027   7.119  68.445  1.00  0.00     0.000 HD 
HETATM    4  C   UNL     1      -9.389   8.384  68.358  1.00  0.00    -0.135 C  
ENDROOT
BRANCH   4   5
HETATM    5  C   UNL     1      -9.029   9.841  68.650  1.00  0.00    -0.130 C  
BRANCH   5   6
HETATM    6  C   UNL     1      -8.513  10.610  67.426  1.00  0.00    -0.122 C  
BRANCH   6   7
HETATM    7  C   UNL     1      -9.588  11.286  66.515  1.00  0.00    -0.191 C  
HETATM    8  O   UNL     1     -10.903  10.988  67.114  1.00  0.00    -0.253 OA 
HETATM    9  P   UNL     1      -9.359  13.098  66.649  1.00  0.00    -0.163 P  
HETATM   10  P   UNL     1      -9.685  10.813  64.751  1.00  0.00    -0.336 P  
HETATM   11  H   UNL     1     -11.556  11.400  66.561  1.00  0.00     0.000 HD 
HETATM   12  O   UNL     1      -9.768  10.412  63.257  1.00  0.00    -0.313 OA 
HETATM   13  O   UNL     1     -10.016   9.257  65.163  1.00  0.00    -0.005 OA 
HETATM   14  O   UNL     1      -8.047  10.674  64.713  1.00  0.00    -0.119 OA 
HETATM   15  O   UNL     1      -9.166  14.629  66.762  1.00  0.00    -0.238 OA 
HETATM   16  O   UNL     1     -10.755  13.249  65.778  1.00  0.00    -0.272 OA 
HETATM   17  O   UNL     1     -10.144  13.086  68.112  1.00  0.00    -0.225 OA 
ENDBRANCH   6   7
ENDBRANCH   5   6
ENDBRANCH   4   5
TORSDOF 3
ENDMDL
MODEL      201
REMARK 921   NORMALIZED FREE ENERGY PREDICTED BY IDOCK:   -2.41 KCAL/MOL
REMARK 922        TOTAL FREE ENERGY PREDICTED BY IDOCK:   -3.18 KCAL/MOL
REMARK 923 INTER-LIGAND FREE ENERGY PREDICTED BY IDOCK:   -3.05 KCAL/MOL
REMARK 924 INTRA-LIGAND FREE ENERGY PREDICTED BY IDOCK:   -0.13 KCAL/MOL
REMARK 927      BINDING AFFINITY PREDICTED BY RF-SCORE:    0.00 PKD
ROOT
HETATM    1  N   UNL     1     -11.484   4.353  64.830  1.00  0.00    -1.021 NA 
HETATM    2  H2  UNL     1     -11.692   5.319  64.581  1.00  0.00     0.000 HD 
HETATM    3  H1  UNL     1     -11.887   3.703  64.154  1.00  0.00     0.000 HD 
HETATM    4  C   UNL     1     -10.052   4.153  65.006  1.00  0.00    -0.208 C  
ENDROOT
BRANCH   4   5
HETATM    5  C   UNL     1      -9.448   5.126  66.019  1.00  0.00    -0.170 C  
BRANCH   5   6
HETATM    6  C   UNL     1     -10.062   5.021  67.422  1.00  0.00    -0.213 C  
BRANCH   6   7
HETATM    7  C   UNL     1      -9.290   5.725  68.583  1.00  0.00    -0.122 C  
HETATM    8  O   UNL     1      -8.358   6.682  67.957  1.00  0.00    -0.116 OA 
HETATM    9  P   UNL     1     -10.502   6.724  69.522  1.00  0.00    -0.250 P  
HETATM   10  P   UNL     1      -8.309   4.707  69.745  1.00  0.00    -0.074 P  
HETATM   11  H   UNL     1      -7.889   7.110  68.664  1.00  0.00     0.000 HD 
HETATM   12  O   UNL     1      -7.478   3.845  70.728  1.00  0.00    -0.040 OA 
HETATM   13  O   UNL     1      -7.361   4.175  68.513  1.00  0.00    -0.055 OA 
HETATM   14  O   UNL     1      -9.451   3.527  69.652  1.00  0.00    -0.164 OA 
HETATM   15  O   UNL     1     -11.528   7.569  70.316  1.00  0.00    -0.248 OA 
HETATM   16  O   UNL     1      -9.216   7.341  70.355  1.00  0.00    -0.158 OA 
HETATM   17  O   UNL     1     -10.444   7.895  68.347  1.00  0.00    -0.205 OA 
ENDBRANCH   6   7
ENDBRANCH   5   6
ENDBRANCH   4   5
TORSDOF 3
ENDMDL
MODEL      202
REMARK 921   NORMALIZED FREE ENERGY PREDICTED BY IDOCK:   -2.38 KCAL/MOL
REMARK 922        TOTAL FREE ENERGY PREDICTED BY IDOCK:   -3.14 KCAL/MOL
REMARK 923 INTER-LIGAND FREE ENERGY PREDICTED BY IDOCK:   -3.32 KCAL/MOL
REMARK 924 INTRA-LIGAND FREE ENERGY PREDICTED BY IDOCK:    0.18 KCAL/MOL
REMARK 927      BINDING AFFINITY PREDICTED BY RF-SCORE:    0.00 PKD
ROOT
HETATM    1  N   UNL     1     -12.198  12.595  70.917  1.00  0.00    -0.441 NA 
HETATM    2  H2  UNL     1     -11.336  13.036  71.236  1.00  0.00     0.000 HD 
HETATM    3  H1  UNL     1     -12.964  13.267  70.880  1.00  0.00     0.000 HD 
HETATM    4  C   UNL     1     -11.998  11.912  69.647  1.00  0.00    -0.298 C  
ENDROOT
BRANCH   4   5
HETATM    5  C   UNL     1     -10.850  10.904  69.701  1.00  0.00    -0.271 C  
BRANCH   5   6
HETATM    6  C   UNL     1      -9.699  11.223  68.737  1.00  0.00    -0.184 C  
BRANCH   6   7
HETATM    7  C   UNL     1      -9.466  10.221  67.561  1.00  0.00    -0.152 C  
HETATM    8  O   UNL     1      -8.006  10.091  67.394  1.00  0.00    -0.105 OA 
HETATM    9  P   UNL     1     -10.070   8.582  68.109  1.00  0.00    -0.210 P  
HETATM   10  P   UNL     1     -10.159  10.606  65.912  1.00  0.00    -0.243 P  
HETATM   11  H   UNL     1      -7.865   9.481  66.680  1.00  0.00     0.000 HD 
HETATM   12  O   UNL     1     -10.746  10.932  64.516  1.00  0.00    -0.327 OA 
HETATM   13  O   UNL     1      -9.262  11.979  65.831  1.00  0.00    -0.199 OA 
HETATM   14  O   UNL     1     -11.481  11.263  66.638  1.00  0.00    -0.373 OA 
HETATM   15  O   UNL     1     -10.581   7.196  68.573  1.00  0.00    -0.201 OA 
HETATM   16  O   UNL     1      -9.414   7.974  66.720  1.00  0.00    -0.174 OA 
HETATM   17  O   UNL     1      -8.680   8.367  68.990  1.00  0.00    -0.139 OA 
ENDBRANCH   6   7
ENDBRANCH   5   6
ENDBRANCH   4   5
TORSDOF 3
ENDMDL
MODEL      203
REMARK 921   NORMALIZED FREE ENERGY PREDICTED BY IDOCK:   -2.37 KCAL/MOL
REMARK 922        TOTAL FREE ENERGY PREDICTED BY IDOCK:   -3.13 KCAL/MOL
REMARK 923 INTER-LIGAND FREE ENERGY PREDICTED BY IDOCK:   -4.03 KCAL/MOL
REMARK 924 INTRA-LIGAND FREE ENERGY PREDICTED BY IDOCK:    0.90 KCAL/MOL
REMARK 927      BINDING AFFINITY PREDICTED BY RF-SCORE:    0.00 PKD
ROOT
HETATM    1  N   UNL     1     -12.159  14.241  66.395  1.00  0.00    -0.431 NA 
HETATM    2  H2  UNL     1     -11.273  14.265  65.891  1.00  0.00     0.000 HD 
HETATM    3  H1  UNL     1     -12.946  14.154  65.752  1.00  0.00     0.000 HD 
HETATM    4  C   UNL     1     -12.155  13.199  67.412  1.00  0.00    -0.263 C  
ENDROOT
BRANCH   4   5
HETATM    5  C   UNL     1     -10.976  13.329  68.376  1.00  0.00    -0.289 C  
BRANCH   5   6
HETATM    6  C   UNL     1     -11.390  13.424  69.852  1.00  0.00    -0.082 C  
BRANCH   6   7
HETATM    7  C   UNL     1     -11.893  14.815  70.353  1.00  0.00    -0.295 C  
HETATM    8  O   UNL     1     -13.266  14.983  69.838  1.00  0.00    -0.474 OA 
HETATM    9  P   UNL     1     -12.034  14.724  72.176  1.00  0.00    -0.091 P  
HETATM   10  P   UNL     1     -10.961  16.320  69.888  1.00  0.00    -0.250 P  
HETATM   11  H   UNL     1     -13.572  15.829  70.144  1.00  0.00     0.000 HD 
HETATM   12  O   UNL     1     -10.172  17.594  69.495  1.00  0.00    -0.170 OA 
HETATM   13  O   UNL     1     -11.235  16.024  68.296  1.00  0.00    -0.343 OA 
HETATM   14  O   UNL     1      -9.558  15.473  70.020  1.00  0.00    -0.228 OA 
HETATM   15  O   UNL     1     -12.154  14.646  73.717  1.00  0.00    -0.300 OA 
HETATM   16  O   UNL     1     -12.751  16.211  72.107  1.00  0.00    -0.438 OA 
HETATM   17  O   UNL     1     -13.469  13.904  72.022  1.00  0.00    -0.378 OA 
ENDBRANCH   6   7
ENDBRANCH   5   6
ENDBRANCH   4   5
TORSDOF 3
ENDMDL
MODEL      204
REMARK 921   NORMALIZED FREE ENERGY PREDICTED BY IDOCK:   -2.37 KCAL/MOL
REMARK 922        TOTAL FREE ENERGY PREDICTED BY IDOCK:   -3.13 KCAL/MOL
REMARK 923 INTER-LIGAND FREE ENERGY PREDICTED BY IDOCK:   -2.85 KCAL/MOL
REMARK 924 INTRA-LIGAND FREE ENERGY PREDICTED BY IDOCK:   -0.28 KCAL/MOL
REMARK 927      BINDING AFFINITY PREDICTED BY RF-SCORE:    0.00 PKD
ROOT
HETATM    1  N   UNL     1     -11.516   6.616  67.633  1.00  0.00    -0.685 NA 
HETATM    2  H2  UNL     1     -11.755   7.601  67.518  1.00  0.00     0.000 HD 
HETATM    3  H1  UNL     1     -12.330   6.019  67.485  1.00  0.00     0.000 HD 
HETATM    4  C   UNL     1     -10.394   6.246  66.781  1.00  0.00    -0.221 C  
ENDROOT
BRANCH   4   5
HETATM    5  C   UNL     1      -9.174   7.140  67.003  1.00  0.00    -0.167 C  
BRANCH   5   6
HETATM    6  C   UNL     1      -9.044   8.276  65.979  1.00  0.00    -0.228 C  
BRANCH   6   7
HETATM    7  C   UNL     1      -8.822   9.714  66.548  1.00  0.00    -0.142 C  
HETATM    8  O   UNL     1      -9.768  10.602  65.845  1.00  0.00    -0.202 OA 
HETATM    9  P   UNL     1      -9.340   9.696  68.304  1.00  0.00    -0.133 P  
HETATM   10  P   UNL     1      -7.167  10.481  66.409  1.00  0.00    -0.139 P  
HETATM   11  H   UNL     1      -9.633  11.476  66.191  1.00  0.00     0.000 HD 
HETATM   12  O   UNL     1      -5.765  11.131  66.291  1.00  0.00    -0.129 OA 
HETATM   13  O   UNL     1      -7.240  10.395  64.770  1.00  0.00    -0.121 OA 
HETATM   14  O   UNL     1      -6.479   9.009  66.664  1.00  0.00    -0.065 OA 
HETATM   15  O   UNL     1      -9.779   9.681  69.788  1.00  0.00    -0.195 OA 
HETATM   16  O   UNL     1      -9.134  11.335  68.290  1.00  0.00    -0.159 OA 
HETATM   17  O   UNL     1     -10.930   9.783  67.833  1.00  0.00    -0.262 OA 
ENDBRANCH   6   7
ENDBRANCH   5   6
ENDBRANCH   4   5
TORSDOF 3
ENDMDL
MODEL      205
REMARK 921   NORMALIZED FREE ENERGY PREDICTED BY IDOCK:   -2.36 KCAL/MOL
REMARK 922        TOTAL FREE ENERGY PREDICTED BY IDOCK:   -3.12 KCAL/MOL
REMARK 923 INTER-LIGAND FREE ENERGY PREDICTED BY IDOCK:   -3.02 KCAL/MOL
REMARK 924 INTRA-LIGAND FREE ENERGY PREDICTED BY IDOCK:   -0.11 KCAL/MOL
REMARK 927      BINDING AFFINITY PREDICTED BY RF-SCORE:    0.00 PKD
ROOT
HETATM    1  N   UNL     1     -11.654   8.577  70.323  1.00  0.00    -0.469 NA 
HETATM    2  H2  UNL     1     -12.228   9.388  70.093  1.00  0.00     0.000 HD 
HETATM    3  H1  UNL     1     -12.197   7.715  70.271  1.00  0.00     0.000 HD 
HETATM    4  C   UNL     1     -10.457   8.530  69.496  1.00  0.00    -0.220 C  
ENDROOT
BRANCH   4   5
HETATM    5  C   UNL     1      -9.643   9.822  69.575  1.00  0.00    -0.225 C  
BRANCH   5   6
HETATM    6  C   UNL     1      -9.897  10.787  68.408  1.00  0.00    -0.177 C  
BRANCH   6   7
HETATM    7  C   UNL     1      -8.828  10.811  67.268  1.00  0.00    -0.133 C  
HETATM    8  O   UNL     1      -8.100   9.529  67.340  1.00  0.00    -0.109 OA 
HETATM    9  P   UNL     1      -9.727  10.805  65.674  1.00  0.00    -0.273 P  
HETATM   10  P   UNL     1      -7.570  12.139  67.255  1.00  0.00    -0.111 P  
HETATM   11  H   UNL     1      -7.451   9.544  66.646  1.00  0.00     0.000 HD 
HETATM   12  O   UNL     1      -6.505  13.264  67.244  1.00  0.00    -0.256 OA 
HETATM   13  O   UNL     1      -7.004  11.648  68.717  1.00  0.00    -0.084 OA 
HETATM   14  O   UNL     1      -8.701  13.195  67.814  1.00  0.00    -0.165 OA 
HETATM   15  O   UNL     1     -10.487  10.801  64.325  1.00  0.00    -0.367 OA 
HETATM   16  O   UNL     1      -8.256  10.610  64.947  1.00  0.00    -0.148 OA 
HETATM   17  O   UNL     1      -9.989   9.174  65.829  1.00  0.00    -0.277 OA 
ENDBRANCH   6   7
ENDBRANCH   5   6
ENDBRANCH   4   5
TORSDOF 3
ENDMDL
MODEL      206
REMARK 921   NORMALIZED FREE ENERGY PREDICTED BY IDOCK:   -2.34 KCAL/MOL
REMARK 922        TOTAL FREE ENERGY PREDICTED BY IDOCK:   -3.09 KCAL/MOL
REMARK 923 INTER-LIGAND FREE ENERGY PREDICTED BY IDOCK:   -2.81 KCAL/MOL
REMARK 924 INTRA-LIGAND FREE ENERGY PREDICTED BY IDOCK:   -0.28 KCAL/MOL
REMARK 927      BINDING AFFINITY PREDICTED BY RF-SCORE:    0.00 PKD
ROOT
HETATM    1  N   UNL     1      -7.979   6.931  64.730  1.00  0.00    -0.122 NA 
HETATM    2  H2  UNL     1      -8.986   6.962  64.883  1.00  0.00     0.000 HD 
HETATM    3  H1  UNL     1      -7.755   6.983  63.736  1.00  0.00     0.000 HD 
HETATM    4  C   UNL     1      -7.299   7.958  65.506  1.00  0.00    -0.076 C  
ENDROOT
BRANCH   4   5
HETATM    5  C   UNL     1      -7.633   7.881  66.996  1.00  0.00    -0.100 C  
BRANCH   5   6
HETATM    6  C   UNL     1      -8.720   8.871  67.440  1.00  0.00    -0.128 C  
BRANCH   6   7
HETATM    7  C   UNL     1      -9.892   8.292  68.295  1.00  0.00    -0.172 C  
HETATM    8  O   UNL     1     -11.146   8.746  67.664  1.00  0.00    -0.480 OA 
HETATM    9  P   UNL     1      -9.855   6.471  68.118  1.00  0.00    -0.144 P  
HETATM   10  P   UNL     1     -10.000   8.730  70.069  1.00  0.00    -0.203 P  
HETATM   11  H   UNL     1     -11.858   8.394  68.184  1.00  0.00     0.000 HD 
HETATM   12  O   UNL     1     -10.091   9.101  71.570  1.00  0.00    -0.319 OA 
HETATM   13  O   UNL     1     -10.147  10.322  69.690  1.00  0.00    -0.230 OA 
HETATM   14  O   UNL     1      -8.358   8.689  70.163  1.00  0.00    -0.114 OA 
HETATM   15  O   UNL     1      -9.824   4.931  67.968  1.00  0.00    -0.152 OA 
HETATM   16  O   UNL     1     -11.289   6.450  68.939  1.00  0.00    -0.341 OA 
HETATM   17  O   UNL     1     -10.582   6.603  66.632  1.00  0.00    -0.227 OA 
ENDBRANCH   6   7
ENDBRANCH   5   6
ENDBRANCH   4   5
TORSDOF 3
ENDMDL
MODEL      207
REMARK 921   NORMALIZED FREE ENERGY PREDICTED BY IDOCK:   -2.33 KCAL/MOL
REMARK 922        TOTAL FREE ENERGY PREDICTED BY IDOCK:   -3.08 KCAL/MOL
REMARK 923 INTER-LIGAND FREE ENERGY PREDICTED BY IDOCK:   -3.07 KCAL/MOL
REMARK 924 INTRA-LIGAND FREE ENERGY PREDICTED BY IDOCK:   -0.01 KCAL/MOL
REMARK 927      BINDING AFFINITY PREDICTED BY RF-SCORE:    0.00 PKD
ROOT
HETATM    1  N   UNL     1      -9.883  10.887  67.007  1.00  0.00    -0.179 NA 
HETATM    2  H2  UNL     1      -9.415  11.587  67.583  1.00  0.00     0.000 HD 
HETATM    3  H1  UNL     1      -9.424  10.788  66.102  1.00  0.00     0.000 HD 
HETATM    4  C   UNL     1      -9.996   9.619  67.714  1.00  0.00    -0.171 C  
ENDROOT
BRANCH   4   5
HETATM    5  C   UNL     1     -10.685   9.767  69.071  1.00  0.00    -0.238 C  
BRANCH   5   6
HETATM    6  C   UNL     1     -11.521   8.546  69.478  1.00  0.00     0.418 C  
BRANCH   6   7
HETATM    7  C   UNL     1     -11.506   8.155  70.991  1.00  0.00    -0.279 C  
HETATM    8  O   UNL     1     -11.439   6.682  71.051  1.00  0.00    -0.293 OA 
HETATM    9  P   UNL     1      -9.936   8.771  71.702  1.00  0.00    -0.315 P  
HETATM   10  P   UNL     1     -12.902   8.669  72.057  1.00  0.00    -0.410 P  
HETATM   11  H   UNL     1     -11.430   6.445  71.971  1.00  0.00     0.000 HD 
HETATM   12  O   UNL     1     -14.083   9.105  72.959  1.00  0.00    -0.406 OA 
HETATM   13  O   UNL     1     -13.952   7.806  71.135  1.00  0.00    -0.257 OA 
HETATM   14  O   UNL     1     -13.001  10.082  71.220  1.00  0.00    -0.350 OA 
HETATM   15  O   UNL     1      -8.608   9.292  72.303  1.00  0.00    -0.127 OA 
HETATM   16  O   UNL     1     -10.337   7.947  73.076  1.00  0.00    -0.314 OA 
HETATM   17  O   UNL     1      -9.130   7.483  71.034  1.00  0.00    -0.147 OA 
ENDBRANCH   6   7
ENDBRANCH   5   6
ENDBRANCH   4   5
TORSDOF 3
ENDMDL
MODEL      208
REMARK 921   NORMALIZED FREE ENERGY PREDICTED BY IDOCK:   -2.32 KCAL/MOL
REMARK 922        TOTAL FREE ENERGY PREDICTED BY IDOCK:   -3.07 KCAL/MOL
REMARK 923 INTER-LIGAND FREE ENERGY PREDICTED BY IDOCK:   -2.52 KCAL/MOL
REMARK 924 INTRA-LIGAND FREE ENERGY PREDICTED BY IDOCK:   -0.55 KCAL/MOL
REMARK 927      BINDING AFFINITY PREDICTED BY RF-SCORE:    0.00 PKD
ROOT
HETATM    1  N   UNL     1      -8.201   3.447  70.308  1.00  0.00    -0.048 NA 
HETATM    2  H2  UNL     1      -7.391   3.998  70.024  1.00  0.00     0.000 HD 
HETATM    3  H1  UNL     1      -8.191   2.525  69.872  1.00  0.00     0.000 HD 
HETATM    4  C   UNL     1      -8.302   3.375  71.759  1.00  0.00    -0.066 C  
ENDROOT
BRANCH   4   5
HETATM    5  C   UNL     1      -8.317   4.757  72.412  1.00  0.00    -0.116 C  
BRANCH   5   6
HETATM    6  C   UNL     1      -8.014   5.905  71.441  1.00  0.00    -0.113 C  
BRANCH   6   7
HETATM    7  C   UNL     1      -9.167   6.926  71.174  1.00  0.00    -0.154 C  
HETATM    8  O   UNL     1     -10.000   6.955  72.392  1.00  0.00    -0.165 OA 
HETATM    9  P   UNL     1      -8.409   8.586  71.028  1.00  0.00    -0.178 P  
HETATM   10  P   UNL     1     -10.296   6.645  69.762  1.00  0.00    -0.220 P  
HETATM   11  H   UNL     1     -10.701   7.576  72.230  1.00  0.00     0.000 HD 
HETATM   12  O   UNL     1     -11.252   6.407  68.567  1.00  0.00    -0.328 OA 
HETATM   13  O   UNL     1     -10.781   5.213  70.406  1.00  0.00    -0.214 OA 
HETATM   14  O   UNL     1      -9.031   6.062  68.887  1.00  0.00    -0.123 OA 
HETATM   15  O   UNL     1      -7.768   9.989  70.905  1.00  0.00    -0.175 OA 
HETATM   16  O   UNL     1      -9.947   9.189  71.004  1.00  0.00    -0.250 OA 
HETATM   17  O   UNL     1      -8.284   8.672  72.681  1.00  0.00    -0.372 OA 
ENDBRANCH   6   7
ENDBRANCH   5   6
ENDBRANCH   4   5
TORSDOF 3
ENDMDL
MODEL      209
REMARK 921   NORMALIZED FREE ENERGY PREDICTED BY IDOCK:   -2.32 KCAL/MOL
REMARK 922        TOTAL FREE ENERGY PREDICTED BY IDOCK:   -3.07 KCAL/MOL
REMARK 923 INTER-LIGAND FREE ENERGY PREDICTED BY IDOCK:   -2.87 KCAL/MOL
REMARK 924 INTRA-LIGAND FREE ENERGY PREDICTED BY IDOCK:   -0.19 KCAL/MOL
REMARK 927      BINDING AFFINITY PREDICTED BY RF-SCORE:    0.00 PKD
ROOT
HETATM    1  N   UNL     1     -11.319  12.576  69.767  1.00  0.00    -0.490 NA 
HETATM    2  H2  UNL     1     -10.301  12.543  69.718  1.00  0.00     0.000 HD 
HETATM    3  H1  UNL     1     -11.691  13.325  69.183  1.00  0.00     0.000 HD 
HETATM    4  C   UNL     1     -11.902  11.281  69.448  1.00  0.00    -0.355 C  
ENDROOT
BRANCH   4   5
HETATM    5  C   UNL     1     -11.344  10.158  70.323  1.00  0.00    -0.387 C  
BRANCH   5   6
HETATM    6  C   UNL     1     -10.503   9.131  69.553  1.00  0.00    -0.226 C  
BRANCH   6   7
HETATM    7  C   UNL     1      -9.254   8.550  70.290  1.00  0.00    -0.158 C  
HETATM    8  O   UNL     1      -9.326   9.019  71.687  1.00  0.00    -0.265 OA 
HETATM    9  P   UNL     1      -9.446   6.730  70.346  1.00  0.00    -0.164 P  
HETATM   10  P   UNL     1      -7.582   8.968  69.673  1.00  0.00    -0.089 P  
HETATM   11  H   UNL     1      -8.567   8.665  72.135  1.00  0.00     0.000 HD 
HETATM   12  O   UNL     1      -6.167   9.321  69.151  1.00  0.00    -0.041 OA 
HETATM   13  O   UNL     1      -7.857  10.564  69.943  1.00  0.00    -0.117 OA 
HETATM   14  O   UNL     1      -8.154   8.916  68.132  1.00  0.00    -0.105 OA 
HETATM   15  O   UNL     1      -9.609   5.192  70.393  1.00  0.00    -0.163 OA 
HETATM   16  O   UNL     1      -8.120   6.709  71.330  1.00  0.00    -0.110 OA 
HETATM   17  O   UNL     1     -10.515   6.885  71.606  1.00  0.00    -0.204 OA 
ENDBRANCH   6   7
ENDBRANCH   5   6
ENDBRANCH   4   5
TORSDOF 3
ENDMDL
MODEL      210
REMARK 921   NORMALIZED FREE ENERGY PREDICTED BY IDOCK:   -2.31 KCAL/MOL
REMARK 922        TOTAL FREE ENERGY PREDICTED BY IDOCK:   -3.06 KCAL/MOL
REMARK 923 INTER-LIGAND FREE ENERGY PREDICTED BY IDOCK:   -3.42 KCAL/MOL
REMARK 924 INTRA-LIGAND FREE ENERGY PREDICTED BY IDOCK:    0.36 KCAL/MOL
REMARK 927      BINDING AFFINITY PREDICTED BY RF-SCORE:    0.00 PKD
ROOT
HETATM    1  N   UNL     1     -10.799  15.850  66.485  1.00  0.00    -0.253 NA 
HETATM    2  H2  UNL     1     -10.472  15.459  67.368  1.00  0.00     0.000 HD 
HETATM    3  H1  UNL     1     -10.321  16.725  66.271  1.00  0.00     0.000 HD 
HETATM    4  C   UNL     1     -10.686  14.877  65.408  1.00  0.00    -0.377 C  
ENDROOT
BRANCH   4   5
HETATM    5  C   UNL     1     -11.403  13.566  65.729  1.00  0.00    -0.318 C  
BRANCH   5   6
HETATM    6  C   UNL     1     -11.650  13.345  67.228  1.00  0.00    -0.400 C  
BRANCH   6   7
HETATM    7  C   UNL     1     -10.804  12.231  67.924  1.00  0.00    -0.218 C  
HETATM    8  O   UNL     1     -10.679  11.123  66.958  1.00  0.00    -0.241 OA 
HETATM    9  P   UNL     1      -9.116  12.896  68.168  1.00  0.00    -0.161 P  
HETATM   10  P   UNL     1     -11.406  11.506  69.493  1.00  0.00    -0.233 P  
HETATM   11  H   UNL     1     -10.164  10.447  67.382  1.00  0.00     0.000 HD 
HETATM   12  O   UNL     1     -11.916  10.892  70.820  1.00  0.00    -0.325 OA 
HETATM   13  O   UNL     1     -12.768  10.968  68.747  1.00  0.00    -0.155 OA 
HETATM   14  O   UNL     1     -11.981  12.982  69.937  1.00  0.00    -0.320 OA 
HETATM   15  O   UNL     1      -7.689  13.458  68.374  1.00  0.00    -0.127 OA 
HETATM   16  O   UNL     1      -8.683  11.377  68.653  1.00  0.00    -0.158 OA 
HETATM   17  O   UNL     1      -8.772  12.603  66.571  1.00  0.00    -0.135 OA 
ENDBRANCH   6   7
ENDBRANCH   5   6
ENDBRANCH   4   5
TORSDOF 3
ENDMDL
MODEL      211
REMARK 921   NORMALIZED FREE ENERGY PREDICTED BY IDOCK:   -2.31 KCAL/MOL
REMARK 922        TOTAL FREE ENERGY PREDICTED BY IDOCK:   -3.06 KCAL/MOL
REMARK 923 INTER-LIGAND FREE ENERGY PREDICTED BY IDOCK:   -3.02 KCAL/MOL
REMARK 924 INTRA-LIGAND FREE ENERGY PREDICTED BY IDOCK:   -0.04 KCAL/MOL
REMARK 927      BINDING AFFINITY PREDICTED BY RF-SCORE:    0.00 PKD
ROOT
HETATM    1  N   UNL     1     -11.301   6.681  67.196  1.00  0.00    -0.779 NA 
HETATM    2  H2  UNL     1     -10.908   7.525  66.781  1.00  0.00     0.000 HD 
HETATM    3  H1  UNL     1     -11.825   6.142  66.507  1.00  0.00     0.000 HD 
HETATM    4  C   UNL     1     -10.270   5.890  67.853  1.00  0.00    -0.184 C  
ENDROOT
BRANCH   4   5
HETATM    5  C   UNL     1      -9.485   6.699  68.887  1.00  0.00    -0.130 C  
BRANCH   5   6
HETATM    6  C   UNL     1      -9.939   6.462  70.334  1.00  0.00    -0.213 C  
BRANCH   6   7
HETATM    7  C   UNL     1      -9.605   7.584  71.368  1.00  0.00    -0.155 C  
HETATM    8  O   UNL     1      -9.125   6.910  72.590  1.00  0.00    -0.135 OA 
HETATM    9  P   UNL     1      -8.184   8.533  70.711  1.00  0.00    -0.160 P  
HETATM   10  P   UNL     1     -10.926   8.742  71.883  1.00  0.00    -0.334 P  
HETATM   11  H   UNL     1      -8.922   7.592  73.218  1.00  0.00     0.000 HD 
HETATM   12  O   UNL     1     -12.043   9.722  72.318  1.00  0.00    -0.129 OA 
HETATM   13  O   UNL     1     -11.814   7.497  72.482  1.00  0.00    -0.285 OA 
HETATM   14  O   UNL     1     -11.529   8.711  70.353  1.00  0.00    -0.239 OA 
HETATM   15  O   UNL     1      -6.983   9.335  70.155  1.00  0.00    -0.051 OA 
HETATM   16  O   UNL     1      -8.145   9.314  72.167  1.00  0.00    -0.164 OA 
HETATM   17  O   UNL     1      -7.154   7.329  71.206  1.00  0.00    -0.063 OA 
ENDBRANCH   6   7
ENDBRANCH   5   6
ENDBRANCH   4   5
TORSDOF 3
ENDMDL
MODEL      212
REMARK 921   NORMALIZED FREE ENERGY PREDICTED BY IDOCK:   -2.30 KCAL/MOL
REMARK 922        TOTAL FREE ENERGY PREDICTED BY IDOCK:   -3.05 KCAL/MOL
REMARK 923 INTER-LIGAND FREE ENERGY PREDICTED BY IDOCK:   -3.13 KCAL/MOL
REMARK 924 INTRA-LIGAND FREE ENERGY PREDICTED BY IDOCK:    0.08 KCAL/MOL
REMARK 927      BINDING AFFINITY PREDICTED BY RF-SCORE:    0.00 PKD
ROOT
HETATM    1  N   UNL     1     -11.475  11.606  66.181  1.00  0.00    -0.352 NA 
HETATM    2  H2  UNL     1     -12.196  10.975  65.835  1.00  0.00     0.000 HD 
HETATM    3  H1  UNL     1     -11.566  12.533  65.765  1.00  0.00     0.000 HD 
HETATM    4  C   UNL     1     -11.470  11.649  67.637  1.00  0.00    -0.303 C  
ENDROOT
BRANCH   4   5
HETATM    5  C   UNL     1     -11.332  10.260  68.260  1.00  0.00    -0.245 C  
BRANCH   5   6
HETATM    6  C   UNL     1     -10.355   9.340  67.515  1.00  0.00    -0.323 C  
BRANCH   6   7
HETATM    7  C   UNL     1      -9.800   8.112  68.308  1.00  0.00    -0.171 C  
HETATM    8  O   UNL     1      -8.344   8.312  68.438  1.00  0.00    -0.129 OA 
HETATM    9  P   UNL     1     -10.487   8.197  70.003  1.00  0.00    -0.233 P  
HETATM   10  P   UNL     1     -10.050   6.430  67.632  1.00  0.00    -0.199 P  
HETATM   11  H   UNL     1      -8.008   7.566  68.921  1.00  0.00     0.000 HD 
HETATM   12  O   UNL     1     -10.261   5.006  67.061  1.00  0.00    -0.204 OA 
HETATM   13  O   UNL     1      -9.195   6.820  66.285  1.00  0.00    -0.163 OA 
HETATM   14  O   UNL     1     -11.530   6.888  67.080  1.00  0.00    -0.166 OA 
HETATM   15  O   UNL     1     -11.067   8.269  71.436  1.00  0.00    -0.238 OA 
HETATM   16  O   UNL     1      -9.477   6.945  70.379  1.00  0.00    -0.168 OA 
HETATM   17  O   UNL     1      -9.369   9.360  70.395  1.00  0.00    -0.232 OA 
ENDBRANCH   6   7
ENDBRANCH   5   6
ENDBRANCH   4   5
TORSDOF 3
ENDMDL
MODEL      213
REMARK 921   NORMALIZED FREE ENERGY PREDICTED BY IDOCK:   -2.27 KCAL/MOL
REMARK 922        TOTAL FREE ENERGY PREDICTED BY IDOCK:   -3.02 KCAL/MOL
REMARK 923 INTER-LIGAND FREE ENERGY PREDICTED BY IDOCK:   -2.62 KCAL/MOL
REMARK 924 INTRA-LIGAND FREE ENERGY PREDICTED BY IDOCK:   -0.39 KCAL/MOL
REMARK 927      BINDING AFFINITY PREDICTED BY RF-SCORE:    0.00 PKD
ROOT
HETATM    1  N   UNL     1      -6.553   8.782  73.642  1.00  0.00    -0.314 NA 
HETATM    2  H2  UNL     1      -6.875   9.682  73.288  1.00  0.00     0.000 HD 
HETATM    3  H1  UNL     1      -5.661   8.874  74.126  1.00  0.00     0.000 HD 
HETATM    4  C   UNL     1      -7.571   8.150  74.469  1.00  0.00    -0.224 C  
ENDROOT
BRANCH   4   5
HETATM    5  C   UNL     1      -8.909   8.011  73.743  1.00  0.00    -0.313 C  
BRANCH   5   6
HETATM    6  C   UNL     1      -9.181   6.597  73.209  1.00  0.00    -0.145 C  
BRANCH   6   7
HETATM    7  C   UNL     1      -8.961   6.368  71.679  1.00  0.00    -0.144 C  
HETATM    8  O   UNL     1      -8.082   7.454  71.207  1.00  0.00    -0.099 OA 
HETATM    9  P   UNL     1      -8.012   4.815  71.487  1.00  0.00    -0.106 P  
HETATM   10  P   UNL     1     -10.414   6.336  70.567  1.00  0.00    -0.254 P  
HETATM   11  H   UNL     1      -7.948   7.315  70.277  1.00  0.00     0.000 HD 
HETATM   12  O   UNL     1     -11.644   6.310  69.625  1.00  0.00    -0.430 OA 
HETATM   13  O   UNL     1     -10.794   7.879  70.982  1.00  0.00    -0.229 OA 
HETATM   14  O   UNL     1     -11.281   5.584  71.745  1.00  0.00    -0.206 OA 
HETATM   15  O   UNL     1      -7.209   3.502  71.324  1.00  0.00    -0.032 OA 
HETATM   16  O   UNL     1      -7.893   5.190  69.882  1.00  0.00    -0.072 OA 
HETATM   17  O   UNL     1      -6.617   5.620  71.890  1.00  0.00    -0.053 OA 
ENDBRANCH   6   7
ENDBRANCH   5   6
ENDBRANCH   4   5
TORSDOF 3
ENDMDL
MODEL      214
REMARK 921   NORMALIZED FREE ENERGY PREDICTED BY IDOCK:   -2.26 KCAL/MOL
REMARK 922        TOTAL FREE ENERGY PREDICTED BY IDOCK:   -3.00 KCAL/MOL
REMARK 923 INTER-LIGAND FREE ENERGY PREDICTED BY IDOCK:   -2.76 KCAL/MOL
REMARK 924 INTRA-LIGAND FREE ENERGY PREDICTED BY IDOCK:   -0.24 KCAL/MOL
REMARK 927      BINDING AFFINITY PREDICTED BY RF-SCORE:    0.00 PKD
ROOT
HETATM    1  N   UNL     1     -13.338   7.862  72.383  1.00  0.00    -0.520 NA 
HETATM    2  H2  UNL     1     -12.833   8.512  72.985  1.00  0.00     0.000 HD 
HETATM    3  H1  UNL     1     -14.238   8.247  72.098  1.00  0.00     0.000 HD 
HETATM    4  C   UNL     1     -12.522   7.457  71.247  1.00  0.00    -0.346 C  
ENDROOT
BRANCH   4   5
HETATM    5  C   UNL     1     -11.173   6.879  71.674  1.00  0.00    -0.280 C  
BRANCH   5   6
HETATM    6  C   UNL     1     -10.019   7.232  70.726  1.00  0.00    -0.187 C  
BRANCH   6   7
HETATM    7  C   UNL     1      -9.494   6.089  69.799  1.00  0.00    -0.149 C  
HETATM    8  O   UNL     1     -10.399   4.939  69.986  1.00  0.00    -0.268 OA 
HETATM    9  P   UNL     1      -9.714   6.641  68.067  1.00  0.00    -0.128 P  
HETATM   10  P   UNL     1      -7.788   5.469  70.030  1.00  0.00    -0.084 P  
HETATM   11  H   UNL     1     -10.080   4.244  69.422  1.00  0.00     0.000 HD 
HETATM   12  O   UNL     1      -6.344   4.943  70.225  1.00  0.00    -0.024 OA 
HETATM   13  O   UNL     1      -8.142   5.001  71.564  1.00  0.00    -0.108 OA 
HETATM   14  O   UNL     1      -7.297   6.997  70.386  1.00  0.00    -0.079 OA 
HETATM   15  O   UNL     1      -9.899   7.108  66.604  1.00  0.00    -0.194 OA 
HETATM   16  O   UNL     1      -9.269   5.115  67.617  1.00  0.00    -0.113 OA 
HETATM   17  O   UNL     1     -11.328   6.264  68.154  1.00  0.00    -0.278 OA 
ENDBRANCH   6   7
ENDBRANCH   5   6
ENDBRANCH   4   5
TORSDOF 3
ENDMDL
MODEL      215
REMARK 921   NORMALIZED FREE ENERGY PREDICTED BY IDOCK:   -2.26 KCAL/MOL
REMARK 922        TOTAL FREE ENERGY PREDICTED BY IDOCK:   -3.00 KCAL/MOL
REMARK 923 INTER-LIGAND FREE ENERGY PREDICTED BY IDOCK:   -3.00 KCAL/MOL
REMARK 924 INTRA-LIGAND FREE ENERGY PREDICTED BY IDOCK:    0.00 KCAL/MOL
REMARK 927      BINDING AFFINITY PREDICTED BY RF-SCORE:    0.00 PKD
ROOT
HETATM    1  N   UNL     1      -8.124  12.300  68.809  1.00  0.00    -0.336 NA 
HETATM    2  H2  UNL     1      -8.750  11.609  69.222  1.00  0.00     0.000 HD 
HETATM    3  H1  UNL     1      -7.424  12.613  69.481  1.00  0.00     0.000 HD 
HETATM    4  C   UNL     1      -7.527  11.798  67.580  1.00  0.00    -0.131 C  
ENDROOT
BRANCH   4   5
HETATM    5  C   UNL     1      -8.576  11.329  66.571  1.00  0.00    -0.170 C  
BRANCH   5   6
HETATM    6  C   UNL     1      -9.381  12.472  65.937  1.00  0.00    -0.039 C  
BRANCH   6   7
HETATM    7  C   UNL     1     -10.110  12.158  64.591  1.00  0.00    -0.257 C  
HETATM    8  O   UNL     1      -9.623  13.139  63.603  1.00  0.00    -0.366 OA 
HETATM    9  P   UNL     1      -9.528  10.519  64.020  1.00  0.00    -0.324 P  
HETATM   10  P   UNL     1     -11.938  12.209  64.536  1.00  0.00    -0.265 P  
HETATM   11  H   UNL     1     -10.066  12.948  62.785  1.00  0.00     0.000 HD 
HETATM   12  O   UNL     1     -13.486  12.252  64.490  1.00  0.00    -0.686 OA 
HETATM   13  O   UNL     1     -11.929  13.796  64.958  1.00  0.00    -0.350 OA 
HETATM   14  O   UNL     1     -11.986  11.589  66.059  1.00  0.00    -0.227 OA 
HETATM   15  O   UNL     1      -9.036   9.133  63.538  1.00  0.00    -0.139 OA 
HETATM   16  O   UNL     1     -10.354  10.811  62.620  1.00  0.00     0.031 OA 
HETATM   17  O   UNL     1      -8.125  11.212  63.467  1.00  0.00     0.252 OA 
ENDBRANCH   6   7
ENDBRANCH   5   6
ENDBRANCH   4   5
TORSDOF 3
ENDMDL
MODEL      216
REMARK 921   NORMALIZED FREE ENERGY PREDICTED BY IDOCK:   -2.26 KCAL/MOL
REMARK 922        TOTAL FREE ENERGY PREDICTED BY IDOCK:   -3.00 KCAL/MOL
REMARK 923 INTER-LIGAND FREE ENERGY PREDICTED BY IDOCK:   -2.84 KCAL/MOL
REMARK 924 INTRA-LIGAND FREE ENERGY PREDICTED BY IDOCK:   -0.16 KCAL/MOL
REMARK 927      BINDING AFFINITY PREDICTED BY RF-SCORE:    0.00 PKD
ROOT
HETATM    1  N   UNL     1     -11.421  14.473  68.731  1.00  0.00    -0.277 NA 
HETATM    2  H2  UNL     1     -10.542  14.015  68.971  1.00  0.00     0.000 HD 
HETATM    3  H1  UNL     1     -11.531  15.349  69.242  1.00  0.00     0.000 HD 
HETATM    4  C   UNL     1     -11.542  14.652  67.291  1.00  0.00    -0.387 C  
ENDROOT
BRANCH   4   5
HETATM    5  C   UNL     1     -11.377  13.339  66.524  1.00  0.00    -0.353 C  
BRANCH   5   6
HETATM    6  C   UNL     1      -9.920  13.002  66.179  1.00  0.00    -0.278 C  
BRANCH   6   7
HETATM    7  C   UNL     1      -9.588  11.497  65.921  1.00  0.00    -0.230 C  
HETATM    8  O   UNL     1     -10.849  10.749  66.079  1.00  0.00    -0.156 OA 
HETATM    9  P   UNL     1      -9.107  11.334  64.162  1.00  0.00     0.217 P  
HETATM   10  P   UNL     1      -8.341  10.669  66.973  1.00  0.00    -0.132 P  
HETATM   11  H   UNL     1     -10.647   9.834  65.922  1.00  0.00     0.000 HD 
HETATM   12  O   UNL     1      -7.285   9.967  67.864  1.00  0.00    -0.085 OA 
HETATM   13  O   UNL     1      -9.250  10.952  68.312  1.00  0.00    -0.148 OA 
HETATM   14  O   UNL     1      -7.470  12.064  67.014  1.00  0.00    -0.148 OA 
HETATM   15  O   UNL     1      -8.702  11.196  62.675  1.00  0.00    -0.264 OA 
HETATM   16  O   UNL     1      -9.113   9.700  64.404  1.00  0.00    -0.237 OA 
HETATM   17  O   UNL     1     -10.707  11.385  63.723  1.00  0.00    -0.359 OA 
ENDBRANCH   6   7
ENDBRANCH   5   6
ENDBRANCH   4   5
TORSDOF 3
ENDMDL
MODEL      217
REMARK 921   NORMALIZED FREE ENERGY PREDICTED BY IDOCK:   -2.26 KCAL/MOL
REMARK 922        TOTAL FREE ENERGY PREDICTED BY IDOCK:   -3.00 KCAL/MOL
REMARK 923 INTER-LIGAND FREE ENERGY PREDICTED BY IDOCK:   -2.71 KCAL/MOL
REMARK 924 INTRA-LIGAND FREE ENERGY PREDICTED BY IDOCK:   -0.28 KCAL/MOL
REMARK 927      BINDING AFFINITY PREDICTED BY RF-SCORE:    0.00 PKD
ROOT
HETATM    1  N   UNL     1      -9.125  12.756  67.866  1.00  0.00    -0.196 NA 
HETATM    2  H2  UNL     1      -8.856  12.468  66.926  1.00  0.00     0.000 HD 
HETATM    3  H1  UNL     1      -8.887  13.733  68.035  1.00  0.00     0.000 HD 
HETATM    4  C   UNL     1     -10.532  12.476  68.117  1.00  0.00    -0.229 C  
ENDROOT
BRANCH   4   5
HETATM    5  C   UNL     1     -10.890  11.011  67.866  1.00  0.00    -0.285 C  
BRANCH   5   6
HETATM    6  C   UNL     1     -10.899  10.148  69.135  1.00  0.00    -0.260 C  
BRANCH   6   7
HETATM    7  C   UNL     1      -9.916   8.934  69.168  1.00  0.00    -0.190 C  
HETATM    8  O   UNL     1     -10.692   7.770  69.635  1.00  0.00    -0.243 OA 
HETATM    9  P   UNL     1      -9.432   8.572  67.440  1.00  0.00    -0.168 P  
HETATM   10  P   UNL     1      -8.418   9.031  70.214  1.00  0.00    -0.207 P  
HETATM   11  H   UNL     1     -10.094   7.032  69.655  1.00  0.00     0.000 HD 
HETATM   12  O   UNL     1      -7.149   9.112  71.099  1.00  0.00    -0.109 OA 
HETATM   13  O   UNL     1      -9.342   9.203  71.561  1.00  0.00    -0.264 OA 
HETATM   14  O   UNL     1      -8.283  10.629  69.848  1.00  0.00     0.045 OA 
HETATM   15  O   UNL     1      -9.023   8.266  65.979  1.00  0.00    -0.168 OA 
HETATM   16  O   UNL     1      -8.685   7.220  68.026  1.00  0.00    -0.127 OA 
HETATM   17  O   UNL     1     -10.881   7.801  67.198  1.00  0.00    -0.313 OA 
ENDBRANCH   6   7
ENDBRANCH   5   6
ENDBRANCH   4   5
TORSDOF 3
ENDMDL
MODEL      218
REMARK 921   NORMALIZED FREE ENERGY PREDICTED BY IDOCK:   -2.25 KCAL/MOL
REMARK 922        TOTAL FREE ENERGY PREDICTED BY IDOCK:   -2.99 KCAL/MOL
REMARK 923 INTER-LIGAND FREE ENERGY PREDICTED BY IDOCK:   -2.42 KCAL/MOL
REMARK 924 INTRA-LIGAND FREE ENERGY PREDICTED BY IDOCK:   -0.57 KCAL/MOL
REMARK 927      BINDING AFFINITY PREDICTED BY RF-SCORE:    0.00 PKD
ROOT
HETATM    1  N   UNL     1      -9.107   7.082  71.890  1.00  0.00    -0.140 NA 
HETATM    2  H2  UNL     1      -8.320   7.728  71.942  1.00  0.00     0.000 HD 
HETATM    3  H1  UNL     1      -8.972   6.286  72.513  1.00  0.00     0.000 HD 
HETATM    4  C   UNL     1     -10.367   7.770  72.132  1.00  0.00    -0.224 C  
ENDROOT
BRANCH   4   5
HETATM    5  C   UNL     1     -10.569   8.963  71.198  1.00  0.00    -0.335 C  
BRANCH   5   6
HETATM    6  C   UNL     1      -9.276   9.459  70.537  1.00  0.00    -0.314 C  
BRANCH   6   7
HETATM    7  C   UNL     1      -9.166   9.288  68.988  1.00  0.00    -0.144 C  
HETATM    8  O   UNL     1     -10.545   9.209  68.468  1.00  0.00    -0.254 OA 
HETATM    9  P   UNL     1      -8.449  10.832  68.314  1.00  0.00    -0.143 P  
HETATM   10  P   UNL     1      -8.258   7.849  68.313  1.00  0.00    -0.124 P  
HETATM   11  H   UNL     1     -10.478   9.105  67.526  1.00  0.00     0.000 HD 
HETATM   12  O   UNL     1      -7.490   6.631  67.743  1.00  0.00    -0.093 OA 
HETATM   13  O   UNL     1      -9.306   6.817  69.046  1.00  0.00    -0.136 OA 
HETATM   14  O   UNL     1      -7.182   7.967  69.551  1.00  0.00    -0.067 OA 
HETATM   15  O   UNL     1      -7.844  12.137  67.744  1.00  0.00    -0.127 OA 
HETATM   16  O   UNL     1      -8.769  10.221  66.813  1.00  0.00    -0.126 OA 
HETATM   17  O   UNL     1      -9.928  11.574  68.447  1.00  0.00    -0.194 OA 
ENDBRANCH   6   7
ENDBRANCH   5   6
ENDBRANCH   4   5
TORSDOF 3
ENDMDL
MODEL      219
REMARK 921   NORMALIZED FREE ENERGY PREDICTED BY IDOCK:   -2.24 KCAL/MOL
REMARK 922        TOTAL FREE ENERGY PREDICTED BY IDOCK:   -2.98 KCAL/MOL
REMARK 923 INTER-LIGAND FREE ENERGY PREDICTED BY IDOCK:   -2.85 KCAL/MOL
REMARK 924 INTRA-LIGAND FREE ENERGY PREDICTED BY IDOCK:   -0.13 KCAL/MOL
REMARK 927      BINDING AFFINITY PREDICTED BY RF-SCORE:    0.00 PKD
ROOT
HETATM    1  N   UNL     1     -13.780   8.861  71.738  1.00  0.00    -0.404 NA 
HETATM    2  H2  UNL     1     -14.303   8.701  72.598  1.00  0.00     0.000 HD 
HETATM    3  H1  UNL     1     -14.196   9.613  71.188  1.00  0.00     0.000 HD 
HETATM    4  C   UNL     1     -12.370   9.094  72.018  1.00  0.00    -0.377 C  
ENDROOT
BRANCH   4   5
HETATM    5  C   UNL     1     -11.745   7.968  72.842  1.00  0.00    -0.222 C  
BRANCH   5   6
HETATM    6  C   UNL     1     -10.800   7.063  72.039  1.00  0.00    -0.253 C  
BRANCH   6   7
HETATM    7  C   UNL     1      -9.720   6.277  72.849  1.00  0.00    -0.158 C  
HETATM    8  O   UNL     1     -10.176   6.249  74.252  1.00  0.00    -0.304 OA 
HETATM    9  P   UNL     1      -9.748   4.543  72.263  1.00  0.00    -0.176 P  
HETATM   10  P   UNL     1      -7.996   6.889  72.862  1.00  0.00    -0.103 P  
HETATM   11  H   UNL     1      -9.520   5.770  74.744  1.00  0.00     0.000 HD 
HETATM   12  O   UNL     1      -6.536   7.407  72.872  1.00  0.00    -0.058 OA 
HETATM   13  O   UNL     1      -8.478   8.301  73.550  1.00  0.00    -0.230 OA 
HETATM   14  O   UNL     1      -8.165   7.354  71.293  1.00  0.00    -0.104 OA 
HETATM   15  O   UNL     1      -9.771   3.077  71.767  1.00  0.00    -0.144 OA 
HETATM   16  O   UNL     1      -8.707   4.201  73.499  1.00  0.00    -0.092 OA 
HETATM   17  O   UNL     1     -11.103   4.258  73.179  1.00  0.00    -0.223 OA 
ENDBRANCH   6   7
ENDBRANCH   5   6
ENDBRANCH   4   5
TORSDOF 3
ENDMDL
MODEL      220
REMARK 921   NORMALIZED FREE ENERGY PREDICTED BY IDOCK:   -2.24 KCAL/MOL
REMARK 922        TOTAL FREE ENERGY PREDICTED BY IDOCK:   -2.97 KCAL/MOL
REMARK 923 INTER-LIGAND FREE ENERGY PREDICTED BY IDOCK:   -2.43 KCAL/MOL
REMARK 924 INTRA-LIGAND FREE ENERGY PREDICTED BY IDOCK:   -0.54 KCAL/MOL
REMARK 927      BINDING AFFINITY PREDICTED BY RF-SCORE:    0.00 PKD
ROOT
HETATM    1  N   UNL     1      -9.618   5.559  65.987  1.00  0.00    -0.259 NA 
HETATM    2  H2  UNL     1     -10.091   6.461  65.955  1.00  0.00     0.000 HD 
HETATM    3  H1  UNL     1     -10.286   4.790  65.935  1.00  0.00     0.000 HD 
HETATM    4  C   UNL     1      -8.588   5.470  64.962  1.00  0.00    -0.128 C  
ENDROOT
BRANCH   4   5
HETATM    5  C   UNL     1      -7.586   6.621  65.040  1.00  0.00    -0.099 C  
BRANCH   5   6
HETATM    6  C   UNL     1      -8.231   8.012  64.957  1.00  0.00    -0.144 C  
BRANCH   6   7
HETATM    7  C   UNL     1      -8.250   8.858  66.270  1.00  0.00    -0.111 C  
HETATM    8  O   UNL     1      -7.862   7.952  67.368  1.00  0.00    -0.116 OA 
HETATM    9  P   UNL     1      -6.919  10.107  66.137  1.00  0.00    -0.127 P  
HETATM   10  P   UNL     1      -9.806   9.677  66.779  1.00  0.00    -0.244 P  
HETATM   11  H   UNL     1      -7.874   8.467  68.166  1.00  0.00     0.000 HD 
HETATM   12  O   UNL     1     -11.123  10.370  67.209  1.00  0.00    -0.278 OA 
HETATM   13  O   UNL     1     -10.561   8.222  66.889  1.00  0.00    -0.321 OA 
HETATM   14  O   UNL     1     -10.150   9.971  65.198  1.00  0.00    -0.325 OA 
HETATM   15  O   UNL     1      -5.793  11.163  66.025  1.00  0.00    -0.144 OA 
HETATM   16  O   UNL     1      -7.235  10.483  67.715  1.00  0.00    -0.083 OA 
HETATM   17  O   UNL     1      -5.796   8.948  66.524  1.00  0.00    -0.052 OA 
ENDBRANCH   6   7
ENDBRANCH   5   6
ENDBRANCH   4   5
TORSDOF 3
ENDMDL
MODEL      221
REMARK 921   NORMALIZED FREE ENERGY PREDICTED BY IDOCK:   -2.23 KCAL/MOL
REMARK 922        TOTAL FREE ENERGY PREDICTED BY IDOCK:   -2.96 KCAL/MOL
REMARK 923 INTER-LIGAND FREE ENERGY PREDICTED BY IDOCK:   -2.79 KCAL/MOL
REMARK 924 INTRA-LIGAND FREE ENERGY PREDICTED BY IDOCK:   -0.18 KCAL/MOL
REMARK 927      BINDING AFFINITY PREDICTED BY RF-SCORE:    0.00 PKD
ROOT
HETATM    1  N   UNL     1      -6.872  10.928  70.526  1.00  0.00    -0.472 NA 
HETATM    2  H2  UNL     1      -5.988  10.885  71.032  1.00  0.00     0.000 HD 
HETATM    3  H1  UNL     1      -6.864  11.676  69.833  1.00  0.00     0.000 HD 
HETATM    4  C   UNL     1      -7.207   9.636  69.944  1.00  0.00    -0.106 C  
ENDROOT
BRANCH   4   5
HETATM    5  C   UNL     1      -7.220   8.514  70.982  1.00  0.00    -0.071 C  
BRANCH   5   6
HETATM    6  C   UNL     1      -8.597   8.269  71.613  1.00  0.00    -0.202 C  
BRANCH   6   7
HETATM    7  C   UNL     1      -9.180   6.825  71.494  1.00  0.00    -0.149 C  
HETATM    8  O   UNL     1      -8.044   5.929  71.204  1.00  0.00    -0.117 OA 
HETATM    9  P   UNL     1      -9.806   6.346  73.146  1.00  0.00    -0.189 P  
HETATM   10  P   UNL     1     -10.463   6.484  70.233  1.00  0.00    -0.248 P  
HETATM   11  H   UNL     1      -8.399   5.050  71.132  1.00  0.00     0.000 HD 
HETATM   12  O   UNL     1     -11.548   6.195  69.167  1.00  0.00    -0.287 OA 
HETATM   13  O   UNL     1      -9.426   6.908  69.032  1.00  0.00    -0.139 OA 
HETATM   14  O   UNL     1     -11.098   7.978  70.497  1.00  0.00    -0.251 OA 
HETATM   15  O   UNL     1     -10.336   5.942  74.543  1.00  0.00    -0.276 OA 
HETATM   16  O   UNL     1     -10.040   4.835  72.522  1.00  0.00    -0.168 OA 
HETATM   17  O   UNL     1      -8.255   6.023  73.638  1.00  0.00    -0.112 OA 
ENDBRANCH   6   7
ENDBRANCH   5   6
ENDBRANCH   4   5
TORSDOF 3
ENDMDL
MODEL      222
REMARK 921   NORMALIZED FREE ENERGY PREDICTED BY IDOCK:   -2.21 KCAL/MOL
REMARK 922        TOTAL FREE ENERGY PREDICTED BY IDOCK:   -2.94 KCAL/MOL
REMARK 923 INTER-LIGAND FREE ENERGY PREDICTED BY IDOCK:   -2.71 KCAL/MOL
REMARK 924 INTRA-LIGAND FREE ENERGY PREDICTED BY IDOCK:   -0.23 KCAL/MOL
REMARK 927      BINDING AFFINITY PREDICTED BY RF-SCORE:    0.00 PKD
ROOT
HETATM    1  N   UNL     1      -9.219   5.030  65.280  1.00  0.00    -0.237 NA 
HETATM    2  H2  UNL     1      -9.706   5.703  64.689  1.00  0.00     0.000 HD 
HETATM    3  H1  UNL     1      -8.674   4.374  64.720  1.00  0.00     0.000 HD 
HETATM    4  C   UNL     1      -8.413   5.703  66.287  1.00  0.00    -0.124 C  
ENDROOT
BRANCH   4   5
HETATM    5  C   UNL     1      -9.229   6.686  67.128  1.00  0.00    -0.134 C  
BRANCH   5   6
HETATM    6  C   UNL     1      -8.762   6.791  68.586  1.00  0.00    -0.125 C  
BRANCH   6   7
HETATM    7  C   UNL     1      -9.843   6.557  69.690  1.00  0.00    -0.159 C  
HETATM    8  O   UNL     1     -11.074   6.131  68.998  1.00  0.00    -0.353 OA 
HETATM    9  P   UNL     1      -9.298   5.130  70.699  1.00  0.00    -0.178 P  
HETATM   10  P   UNL     1     -10.303   7.943  70.792  1.00  0.00    -0.207 P  
HETATM   11  H   UNL     1     -11.731   5.988  69.669  1.00  0.00     0.000 HD 
HETATM   12  O   UNL     1     -10.693   9.116  71.726  1.00  0.00    -0.355 OA 
HETATM   13  O   UNL     1     -10.816   8.826  69.505  1.00  0.00    -0.222 OA 
HETATM   14  O   UNL     1      -8.739   8.450  70.783  1.00  0.00    -0.133 OA 
HETATM   15  O   UNL     1      -8.838   3.923  71.552  1.00  0.00    -0.095 OA 
HETATM   16  O   UNL     1     -10.772   5.205  71.441  1.00  0.00    -0.185 OA 
HETATM   17  O   UNL     1      -9.826   4.094  69.514  1.00  0.00    -0.206 OA 
ENDBRANCH   6   7
ENDBRANCH   5   6
ENDBRANCH   4   5
TORSDOF 3
ENDMDL
MODEL      223
REMARK 921   NORMALIZED FREE ENERGY PREDICTED BY IDOCK:   -2.19 KCAL/MOL
REMARK 922        TOTAL FREE ENERGY PREDICTED BY IDOCK:   -2.92 KCAL/MOL
REMARK 923 INTER-LIGAND FREE ENERGY PREDICTED BY IDOCK:   -2.88 KCAL/MOL
REMARK 924 INTRA-LIGAND FREE ENERGY PREDICTED BY IDOCK:   -0.04 KCAL/MOL
REMARK 927      BINDING AFFINITY PREDICTED BY RF-SCORE:    0.00 PKD
ROOT
HETATM    1  N   UNL     1      -9.669  11.642  66.078  1.00  0.00    -0.226 NA 
HETATM    2  H2  UNL     1      -8.650  11.667  66.118  1.00  0.00     0.000 HD 
HETATM    3  H1  UNL     1     -10.036  12.433  65.551  1.00  0.00     0.000 HD 
HETATM    4  C   UNL     1     -10.142  10.364  65.564  1.00  0.00    -0.283 C  
ENDROOT
BRANCH   4   5
HETATM    5  C   UNL     1      -9.592   9.177  66.355  1.00  0.00    -0.309 C  
BRANCH   5   6
HETATM    6  C   UNL     1     -10.568   8.624  67.402  1.00  0.00    -0.298 C  
BRANCH   6   7
HETATM    7  C   UNL     1      -9.957   7.747  68.541  1.00  0.00    -0.182 C  
HETATM    8  O   UNL     1     -10.846   6.581  68.706  1.00  0.00    -0.251 OA 
HETATM    9  P   UNL     1      -8.358   7.094  67.933  1.00  0.00    -0.117 P  
HETATM   10  P   UNL     1      -9.724   8.479  70.202  1.00  0.00    -0.177 P  
HETATM   11  H   UNL     1     -10.474   6.047  69.398  1.00  0.00     0.000 HD 
HETATM   12  O   UNL     1      -9.527   9.099  71.608  1.00  0.00    -0.282 OA 
HETATM   13  O   UNL     1     -11.339   8.747  70.334  1.00  0.00    -0.256 OA 
HETATM   14  O   UNL     1      -9.332   9.913  69.498  1.00  0.00    -0.193 OA 
HETATM   15  O   UNL     1      -7.007   6.542  67.419  1.00  0.00    -0.073 OA 
HETATM   16  O   UNL     1      -8.318   6.167  69.300  1.00  0.00    -0.114 OA 
HETATM   17  O   UNL     1      -9.167   5.946  67.047  1.00  0.00    -0.117 OA 
ENDBRANCH   6   7
ENDBRANCH   5   6
ENDBRANCH   4   5
TORSDOF 3
ENDMDL
MODEL      224
REMARK 921   NORMALIZED FREE ENERGY PREDICTED BY IDOCK:   -2.16 KCAL/MOL
REMARK 922        TOTAL FREE ENERGY PREDICTED BY IDOCK:   -2.88 KCAL/MOL
REMARK 923 INTER-LIGAND FREE ENERGY PREDICTED BY IDOCK:   -3.34 KCAL/MOL
REMARK 924 INTRA-LIGAND FREE ENERGY PREDICTED BY IDOCK:    0.46 KCAL/MOL
REMARK 927      BINDING AFFINITY PREDICTED BY RF-SCORE:    0.00 PKD
ROOT
HETATM    1  N   UNL     1      -8.689  11.574  62.695  1.00  0.00    -0.623 NA 
HETATM    2  H2  UNL     1      -7.957  11.004  62.273  1.00  0.00     0.000 HD 
HETATM    3  H1  UNL     1      -9.141  12.168  61.999  1.00  0.00     0.000 HD 
HETATM    4  C   UNL     1      -9.641  10.750  63.425  1.00  0.00    -0.338 C  
ENDROOT
BRANCH   4   5
HETATM    5  C   UNL     1      -8.964   9.861  64.469  1.00  0.00    -0.272 C  
BRANCH   5   6
HETATM    6  C   UNL     1      -9.819   9.611  65.719  1.00  0.00    -0.373 C  
BRANCH   6   7
HETATM    7  C   UNL     1      -9.150   9.905  67.100  1.00  0.00    -0.138 C  
HETATM    8  O   UNL     1      -8.042   8.942  67.250  1.00  0.00    -0.103 OA 
HETATM    9  P   UNL     1      -8.380  11.563  66.996  1.00  0.00    -0.173 P  
HETATM   10  P   UNL     1     -10.162   9.797  68.621  1.00  0.00    -0.208 P  
HETATM   11  H   UNL     1      -7.635   9.121  68.090  1.00  0.00     0.000 HD 
HETATM   12  O   UNL     1     -11.018   9.705  69.908  1.00  0.00    -0.234 OA 
HETATM   13  O   UNL     1     -10.468   8.209  68.330  1.00  0.00    -0.204 OA 
HETATM   14  O   UNL     1     -11.444  10.411  67.793  1.00  0.00    -0.406 OA 
HETATM   15  O   UNL     1      -7.730  12.964  66.908  1.00  0.00    -0.019 OA 
HETATM   16  O   UNL     1      -7.710  11.247  68.472  1.00  0.00    -0.115 OA 
HETATM   17  O   UNL     1      -7.104  10.915  66.156  1.00  0.00    -0.135 OA 
ENDBRANCH   6   7
ENDBRANCH   5   6
ENDBRANCH   4   5
TORSDOF 3
ENDMDL
MODEL      225
REMARK 921   NORMALIZED FREE ENERGY PREDICTED BY IDOCK:   -2.15 KCAL/MOL
REMARK 922        TOTAL FREE ENERGY PREDICTED BY IDOCK:   -2.87 KCAL/MOL
REMARK 923 INTER-LIGAND FREE ENERGY PREDICTED BY IDOCK:   -2.84 KCAL/MOL
REMARK 924 INTRA-LIGAND FREE ENERGY PREDICTED BY IDOCK:   -0.03 KCAL/MOL
REMARK 927      BINDING AFFINITY PREDICTED BY RF-SCORE:    0.00 PKD
ROOT
HETATM    1  N   UNL     1     -10.768   6.023  71.358  1.00  0.00    -0.249 NA 
HETATM    2  H2  UNL     1     -11.364   6.497  70.679  1.00  0.00     0.000 HD 
HETATM    3  H1  UNL     1     -11.300   5.741  72.182  1.00  0.00     0.000 HD 
HETATM    4  C   UNL     1     -10.060   4.908  70.746  1.00  0.00    -0.233 C  
ENDROOT
BRANCH   4   5
HETATM    5  C   UNL     1      -9.262   5.330  69.512  1.00  0.00    -0.157 C  
BRANCH   5   6
HETATM    6  C   UNL     1      -9.893   4.886  68.185  1.00  0.00    -0.198 C  
BRANCH   6   7
HETATM    7  C   UNL     1      -9.852   5.912  67.007  1.00  0.00    -0.149 C  
HETATM    8  O   UNL     1     -11.253   6.209  66.652  1.00  0.00    -0.724 OA 
HETATM    9  P   UNL     1      -9.144   7.469  67.660  1.00  0.00    -0.125 P  
HETATM   10  P   UNL     1      -8.994   5.454  65.457  1.00  0.00    -0.059 P  
HETATM   11  H   UNL     1     -11.227   6.834  65.936  1.00  0.00     0.000 HD 
HETATM   12  O   UNL     1      -8.267   5.067  64.145  1.00  0.00    -0.115 OA 
HETATM   13  O   UNL     1     -10.023   4.194  65.233  1.00  0.00    -0.193 OA 
HETATM   14  O   UNL     1      -7.864   4.647  66.338  1.00  0.00    -0.097 OA 
HETATM   15  O   UNL     1      -8.545   8.785  68.212  1.00  0.00    -0.132 OA 
HETATM   16  O   UNL     1      -9.536   8.152  66.208  1.00  0.00    -0.217 OA 
HETATM   17  O   UNL     1     -10.605   7.840  68.354  1.00  0.00    -0.187 OA 
ENDBRANCH   6   7
ENDBRANCH   5   6
ENDBRANCH   4   5
TORSDOF 3
ENDMDL
MODEL      226
REMARK 921   NORMALIZED FREE ENERGY PREDICTED BY IDOCK:   -2.14 KCAL/MOL
REMARK 922        TOTAL FREE ENERGY PREDICTED BY IDOCK:   -2.86 KCAL/MOL
REMARK 923 INTER-LIGAND FREE ENERGY PREDICTED BY IDOCK:   -2.34 KCAL/MOL
REMARK 924 INTRA-LIGAND FREE ENERGY PREDICTED BY IDOCK:   -0.52 KCAL/MOL
REMARK 927      BINDING AFFINITY PREDICTED BY RF-SCORE:    0.00 PKD
ROOT
HETATM    1  N   UNL     1      -7.946  10.413  69.222  1.00  0.00    -0.146 NA 
HETATM    2  H2  UNL     1      -8.443  11.098  69.790  1.00  0.00     0.000 HD 
HETATM    3  H1  UNL     1      -7.145  10.835  68.752  1.00  0.00     0.000 HD 
HETATM    4  C   UNL     1      -7.575   9.247  70.011  1.00  0.00    -0.099 C  
ENDROOT
BRANCH   4   5
HETATM    5  C   UNL     1      -8.775   8.613  70.715  1.00  0.00    -0.202 C  
BRANCH   5   6
HETATM    6  C   UNL     1      -9.909   9.603  71.019  1.00  0.00    -0.105 C  
BRANCH   6   7
HETATM    7  C   UNL     1     -11.286   9.327  70.335  1.00  0.00    -0.242 C  
HETATM    8  O   UNL     1     -11.219   7.964  69.774  1.00  0.00    -0.436 OA 
HETATM    9  P   UNL     1     -12.555   9.279  71.653  1.00  0.00    -0.416 P  
HETATM   10  P   UNL     1     -11.848  10.430  68.987  1.00  0.00     0.259 P  
HETATM   11  H   UNL     1     -12.056   7.796  69.358  1.00  0.00     0.000 HD 
HETATM   12  O   UNL     1     -12.323  11.365  67.847  1.00  0.00    -0.380 OA 
HETATM   13  O   UNL     1     -10.538  10.027  68.081  1.00  0.00    -0.198 OA 
HETATM   14  O   UNL     1     -11.173  11.708  69.773  1.00  0.00    -0.223 OA 
HETATM   15  O   UNL     1     -13.628   9.239  72.768  1.00  0.00    -0.403 OA 
HETATM   16  O   UNL     1     -13.616   8.773  70.492  1.00  0.00     0.544 OA 
HETATM   17  O   UNL     1     -12.083   7.738  72.049  1.00  0.00    -0.293 OA 
ENDBRANCH   6   7
ENDBRANCH   5   6
ENDBRANCH   4   5
TORSDOF 3
ENDMDL
MODEL      227
REMARK 921   NORMALIZED FREE ENERGY PREDICTED BY IDOCK:   -2.14 KCAL/MOL
REMARK 922        TOTAL FREE ENERGY PREDICTED BY IDOCK:   -2.86 KCAL/MOL
REMARK 923 INTER-LIGAND FREE ENERGY PREDICTED BY IDOCK:   -2.67 KCAL/MOL
REMARK 924 INTRA-LIGAND FREE ENERGY PREDICTED BY IDOCK:   -0.19 KCAL/MOL
REMARK 927      BINDING AFFINITY PREDICTED BY RF-SCORE:    0.00 PKD
ROOT
HETATM    1  N   UNL     1     -11.323   6.515  67.551  1.00  0.00    -0.732 NA 
HETATM    2  H2  UNL     1     -11.864   5.651  67.531  1.00  0.00     0.000 HD 
HETATM    3  H1  UNL     1     -11.890   7.311  67.256  1.00  0.00     0.000 HD 
HETATM    4  C   UNL     1     -10.712   6.721  68.856  1.00  0.00    -0.240 C  
ENDROOT
BRANCH   4   5
HETATM    5  C   UNL     1      -9.863   5.529  69.297  1.00  0.00    -0.233 C  
BRANCH   5   6
HETATM    6  C   UNL     1      -8.803   5.879  70.351  1.00  0.00    -0.146 C  
BRANCH   6   7
HETATM    7  C   UNL     1      -8.870   5.101  71.704  1.00  0.00    -0.134 C  
HETATM    8  O   UNL     1      -9.688   3.897  71.463  1.00  0.00    -0.159 OA 
HETATM    9  P   UNL     1      -7.180   4.509  72.082  1.00  0.00    -0.070 P  
HETATM   10  P   UNL     1      -9.569   5.934  73.176  1.00  0.00    -0.148 P  
HETATM   11  H   UNL     1      -9.729   3.424  72.285  1.00  0.00     0.000 HD 
HETATM   12  O   UNL     1     -10.160   6.639  74.422  1.00  0.00    -0.343 OA 
HETATM   13  O   UNL     1     -11.013   6.116  72.415  1.00  0.00    -0.232 OA 
HETATM   14  O   UNL     1      -8.892   7.348  72.678  1.00  0.00    -0.123 OA 
HETATM   15  O   UNL     1      -5.751   4.009  72.402  1.00  0.00    -0.007 OA 
HETATM   16  O   UNL     1      -7.852   3.661  73.331  1.00  0.00    -0.072 OA 
HETATM   17  O   UNL     1      -7.372   3.271  70.994  1.00  0.00    -0.033 OA 
ENDBRANCH   6   7
ENDBRANCH   5   6
ENDBRANCH   4   5
TORSDOF 3
ENDMDL
MODEL      228
REMARK 921   NORMALIZED FREE ENERGY PREDICTED BY IDOCK:   -2.14 KCAL/MOL
REMARK 922        TOTAL FREE ENERGY PREDICTED BY IDOCK:   -2.86 KCAL/MOL
REMARK 923 INTER-LIGAND FREE ENERGY PREDICTED BY IDOCK:   -2.64 KCAL/MOL
REMARK 924 INTRA-LIGAND FREE ENERGY PREDICTED BY IDOCK:   -0.21 KCAL/MOL
REMARK 927      BINDING AFFINITY PREDICTED BY RF-SCORE:    0.00 PKD
ROOT
HETATM    1  N   UNL     1      -7.102  11.295  70.005  1.00  0.00    -0.427 NA 
HETATM    2  H2  UNL     1      -8.028  11.097  70.381  1.00  0.00     0.000 HD 
HETATM    3  H1  UNL     1      -6.653  12.058  70.513  1.00  0.00     0.000 HD 
HETATM    4  C   UNL     1      -6.281  10.093  69.971  1.00  0.00    -0.076 C  
ENDROOT
BRANCH   4   5
HETATM    5  C   UNL     1      -6.952   8.950  69.209  1.00  0.00    -0.057 C  
BRANCH   5   6
HETATM    6  C   UNL     1      -8.469   9.120  69.046  1.00  0.00    -0.132 C  
BRANCH   6   7
HETATM    7  C   UNL     1      -9.110   8.523  67.752  1.00  0.00    -0.135 C  
HETATM    8  O   UNL     1      -8.046   7.775  67.056  1.00  0.00    -0.113 OA 
HETATM    9  P   UNL     1     -10.354   7.286  68.275  1.00  0.00    -0.176 P  
HETATM   10  P   UNL     1      -9.856   9.656  66.524  1.00  0.00    -0.261 P  
HETATM   11  H   UNL     1      -8.436   7.411  66.269  1.00  0.00     0.000 HD 
HETATM   12  O   UNL     1     -10.488  10.615  65.484  1.00  0.00    -0.248 OA 
HETATM   13  O   UNL     1      -8.408  10.397  66.294  1.00  0.00    -0.136 OA 
HETATM   14  O   UNL     1     -10.387  10.613  67.752  1.00  0.00    -0.185 OA 
HETATM   15  O   UNL     1     -11.405   6.240  68.718  1.00  0.00    -0.356 OA 
HETATM   16  O   UNL     1     -10.491   6.880  66.680  1.00  0.00    -0.223 OA 
HETATM   17  O   UNL     1      -9.140   6.191  68.563  1.00  0.00    -0.118 OA 
ENDBRANCH   6   7
ENDBRANCH   5   6
ENDBRANCH   4   5
TORSDOF 3
ENDMDL
MODEL      229
REMARK 921   NORMALIZED FREE ENERGY PREDICTED BY IDOCK:   -2.14 KCAL/MOL
REMARK 922        TOTAL FREE ENERGY PREDICTED BY IDOCK:   -2.86 KCAL/MOL
REMARK 923 INTER-LIGAND FREE ENERGY PREDICTED BY IDOCK:   -2.82 KCAL/MOL
REMARK 924 INTRA-LIGAND FREE ENERGY PREDICTED BY IDOCK:   -0.04 KCAL/MOL
REMARK 927      BINDING AFFINITY PREDICTED BY RF-SCORE:    0.00 PKD
ROOT
HETATM    1  N   UNL     1     -11.502   4.477  65.018  1.00  0.00    -1.108 NA 
HETATM    2  H2  UNL     1     -11.851   5.432  64.947  1.00  0.00     0.000 HD 
HETATM    3  H1  UNL     1     -11.473   4.026  64.103  1.00  0.00     0.000 HD 
HETATM    4  C   UNL     1     -10.214   4.439  65.696  1.00  0.00    -0.238 C  
ENDROOT
BRANCH   4   5
HETATM    5  C   UNL     1     -10.256   5.113  67.067  1.00  0.00    -0.265 C  
BRANCH   5   6
HETATM    6  C   UNL     1      -9.106   4.701  67.997  1.00  0.00    -0.144 C  
BRANCH   6   7
HETATM    7  C   UNL     1      -8.854   5.603  69.247  1.00  0.00    -0.111 C  
HETATM    8  O   UNL     1     -10.152   6.205  69.608  1.00  0.00    -0.163 OA 
HETATM    9  P   UNL     1      -8.393   4.501  70.635  1.00  0.00    -0.076 P  
HETATM   10  P   UNL     1      -7.646   6.972  69.129  1.00  0.00    -0.103 P  
HETATM   11  H   UNL     1      -9.998   6.752  70.369  1.00  0.00     0.000 HD 
HETATM   12  O   UNL     1      -6.623   8.131  69.028  1.00  0.00    -0.046 OA 
HETATM   13  O   UNL     1      -8.531   7.679  67.940  1.00  0.00    -0.122 OA 
HETATM   14  O   UNL     1      -6.703   6.036  68.158  1.00  0.00    -0.059 OA 
HETATM   15  O   UNL     1      -8.003   3.569  71.808  1.00  0.00    -0.060 OA 
HETATM   16  O   UNL     1      -8.483   5.834  71.607  1.00  0.00    -0.126 OA 
HETATM   17  O   UNL     1      -9.991   4.104  70.847  1.00  0.00    -0.197 OA 
ENDBRANCH   6   7
ENDBRANCH   5   6
ENDBRANCH   4   5
TORSDOF 3
ENDMDL
MODEL      230
REMARK 921   NORMALIZED FREE ENERGY PREDICTED BY IDOCK:   -2.13 KCAL/MOL
REMARK 922        TOTAL FREE ENERGY PREDICTED BY IDOCK:   -2.84 KCAL/MOL
REMARK 923 INTER-LIGAND FREE ENERGY PREDICTED BY IDOCK:   -2.55 KCAL/MOL
REMARK 924 INTRA-LIGAND FREE ENERGY PREDICTED BY IDOCK:   -0.29 KCAL/MOL
REMARK 927      BINDING AFFINITY PREDICTED BY RF-SCORE:    0.00 PKD
ROOT
HETATM    1  N   UNL     1      -7.898  13.703  68.504  1.00  0.00    -0.141 NA 
HETATM    2  H2  UNL     1      -7.562  13.493  69.443  1.00  0.00     0.000 HD 
HETATM    3  H1  UNL     1      -7.943  14.710  68.346  1.00  0.00     0.000 HD 
HETATM    4  C   UNL     1      -7.102  13.018  67.496  1.00  0.00    -0.154 C  
ENDROOT
BRANCH   4   5
HETATM    5  C   UNL     1      -7.034  11.509  67.732  1.00  0.00    -0.078 C  
BRANCH   5   6
HETATM    6  C   UNL     1      -7.974  11.013  68.840  1.00  0.00    -0.138 C  
BRANCH   6   7
HETATM    7  C   UNL     1      -9.094  10.009  68.416  1.00  0.00    -0.121 C  
HETATM    8  O   UNL     1      -8.671   9.415  67.134  1.00  0.00    -0.127 OA 
HETATM    9  P   UNL     1      -9.101   8.646  69.638  1.00  0.00    -0.153 P  
HETATM   10  P   UNL     1     -10.800  10.627  68.181  1.00  0.00    -0.288 P  
HETATM   11  H   UNL     1      -9.352   8.804  66.876  1.00  0.00     0.000 HD 
HETATM   12  O   UNL     1     -12.245  11.150  67.983  1.00  0.00    -0.584 OA 
HETATM   13  O   UNL     1     -10.294  11.635  66.987  1.00  0.00    -0.208 OA 
HETATM   14  O   UNL     1     -10.581  11.665  69.438  1.00  0.00    -0.112 OA 
HETATM   15  O   UNL     1      -9.108   7.494  70.672  1.00  0.00    -0.154 OA 
HETATM   16  O   UNL     1     -10.180   7.882  68.648  1.00  0.00    -0.197 OA 
HETATM   17  O   UNL     1      -7.777   7.976  68.896  1.00  0.00    -0.100 OA 
ENDBRANCH   6   7
ENDBRANCH   5   6
ENDBRANCH   4   5
TORSDOF 3
ENDMDL
MODEL      231
REMARK 921   NORMALIZED FREE ENERGY PREDICTED BY IDOCK:   -2.12 KCAL/MOL
REMARK 922        TOTAL FREE ENERGY PREDICTED BY IDOCK:   -2.84 KCAL/MOL
REMARK 923 INTER-LIGAND FREE ENERGY PREDICTED BY IDOCK:   -2.60 KCAL/MOL
REMARK 924 INTRA-LIGAND FREE ENERGY PREDICTED BY IDOCK:   -0.24 KCAL/MOL
REMARK 927      BINDING AFFINITY PREDICTED BY RF-SCORE:    0.00 PKD
ROOT
HETATM    1  N   UNL     1     -10.799  11.614  69.441  1.00  0.00    -0.430 NA 
HETATM    2  H2  UNL     1     -10.142  11.347  70.174  1.00  0.00     0.000 HD 
HETATM    3  H1  UNL     1     -10.680  12.593  69.180  1.00  0.00     0.000 HD 
HETATM    4  C   UNL     1     -10.703  10.719  68.297  1.00  0.00    -0.213 C  
ENDROOT
BRANCH   4   5
HETATM    5  C   UNL     1     -10.881   9.252  68.688  1.00  0.00    -0.120 C  
BRANCH   5   6
HETATM    6  C   UNL     1      -9.581   8.437  68.646  1.00  0.00    -0.153 C  
BRANCH   6   7
HETATM    7  C   UNL     1      -9.415   7.438  67.456  1.00  0.00    -0.138 C  
HETATM    8  O   UNL     1     -10.516   7.710  66.513  1.00  0.00    -0.500 OA 
HETATM    9  P   UNL     1      -7.867   7.878  66.583  1.00  0.00    -0.105 P  
HETATM   10  P   UNL     1      -9.434   5.640  67.794  1.00  0.00    -0.124 P  
HETATM   11  H   UNL     1     -10.414   7.103  65.790  1.00  0.00     0.000 HD 
HETATM   12  O   UNL     1      -9.450   4.117  68.080  1.00  0.00    -0.151 OA 
HETATM   13  O   UNL     1     -10.960   5.746  68.392  1.00  0.00    -0.233 OA 
HETATM   14  O   UNL     1      -8.637   5.912  69.207  1.00  0.00    -0.111 OA 
HETATM   15  O   UNL     1      -6.559   8.250  65.844  1.00  0.00    -0.052 OA 
HETATM   16  O   UNL     1      -8.307   6.776  65.433  1.00  0.00    -0.136 OA 
HETATM   17  O   UNL     1      -8.650   9.136  65.834  1.00  0.00    -0.136 OA 
ENDBRANCH   6   7
ENDBRANCH   5   6
ENDBRANCH   4   5
TORSDOF 3
ENDMDL
MODEL      232
REMARK 921   NORMALIZED FREE ENERGY PREDICTED BY IDOCK:   -2.12 KCAL/MOL
REMARK 922        TOTAL FREE ENERGY PREDICTED BY IDOCK:   -2.83 KCAL/MOL
REMARK 923 INTER-LIGAND FREE ENERGY PREDICTED BY IDOCK:   -2.76 KCAL/MOL
REMARK 924 INTRA-LIGAND FREE ENERGY PREDICTED BY IDOCK:   -0.07 KCAL/MOL
REMARK 927      BINDING AFFINITY PREDICTED BY RF-SCORE:    0.00 PKD
ROOT
HETATM    1  N   UNL     1     -12.098  13.769  67.140  1.00  0.00    -0.398 NA 
HETATM    2  H2  UNL     1     -11.835  14.536  66.522  1.00  0.00     0.000 HD 
HETATM    3  H1  UNL     1     -13.022  13.921  67.543  1.00  0.00     0.000 HD 
HETATM    4  C   UNL     1     -11.994  12.487  66.458  1.00  0.00    -0.296 C  
ENDROOT
BRANCH   4   5
HETATM    5  C   UNL     1     -10.609  12.257  65.854  1.00  0.00    -0.290 C  
BRANCH   5   6
HETATM    6  C   UNL     1      -9.660  11.463  66.763  1.00  0.00    -0.207 C  
BRANCH   6   7
HETATM    7  C   UNL     1      -9.291  10.016  66.302  1.00  0.00    -0.168 C  
HETATM    8  O   UNL     1     -10.255   9.645  65.248  1.00  0.00    -0.315 OA 
HETATM    9  P   UNL     1      -7.650  10.098  65.495  1.00  0.00    -0.147 P  
HETATM   10  P   UNL     1      -9.299   8.661  67.533  1.00  0.00    -0.143 P  
HETATM   11  H   UNL     1     -10.030   8.766  64.968  1.00  0.00     0.000 HD 
HETATM   12  O   UNL     1      -9.305   7.515  68.574  1.00  0.00    -0.143 OA 
HETATM   13  O   UNL     1     -10.898   8.903  67.822  1.00  0.00    -0.181 OA 
HETATM   14  O   UNL     1      -8.722   9.706  68.664  1.00  0.00    -0.121 OA 
HETATM   15  O   UNL     1      -6.263  10.168  64.813  1.00  0.00    -0.115 OA 
HETATM   16  O   UNL     1      -7.884   8.522  65.060  1.00  0.00    -0.099 OA 
HETATM   17  O   UNL     1      -8.360  10.698  64.119  1.00  0.00    -0.132 OA 
ENDBRANCH   6   7
ENDBRANCH   5   6
ENDBRANCH   4   5
TORSDOF 3
ENDMDL
MODEL      233
REMARK 921   NORMALIZED FREE ENERGY PREDICTED BY IDOCK:   -2.11 KCAL/MOL
REMARK 922        TOTAL FREE ENERGY PREDICTED BY IDOCK:   -2.82 KCAL/MOL
REMARK 923 INTER-LIGAND FREE ENERGY PREDICTED BY IDOCK:   -2.66 KCAL/MOL
REMARK 924 INTRA-LIGAND FREE ENERGY PREDICTED BY IDOCK:   -0.16 KCAL/MOL
REMARK 927      BINDING AFFINITY PREDICTED BY RF-SCORE:    0.00 PKD
ROOT
HETATM    1  N   UNL     1      -7.915  10.009  69.315  1.00  0.00    -0.117 NA 
HETATM    2  H2  UNL     1      -8.447  10.642  69.911  1.00  0.00     0.000 HD 
HETATM    3  H1  UNL     1      -7.315  10.526  68.672  1.00  0.00     0.000 HD 
HETATM    4  C   UNL     1      -7.173   9.041  70.109  1.00  0.00    -0.062 C  
ENDROOT
BRANCH   4   5
HETATM    5  C   UNL     1      -8.072   8.265  71.072  1.00  0.00    -0.118 C  
BRANCH   5   6
HETATM    6  C   UNL     1      -9.249   7.557  70.388  1.00  0.00    -0.157 C  
BRANCH   6   7
HETATM    7  C   UNL     1      -9.978   6.447  71.211  1.00  0.00    -0.182 C  
HETATM    8  O   UNL     1      -9.515   6.576  72.606  1.00  0.00    -0.148 OA 
HETATM    9  P   UNL     1     -11.763   6.852  71.220  1.00  0.00    -0.364 P  
HETATM   10  P   UNL     1      -9.753   4.694  70.735  1.00  0.00    -0.214 P  
HETATM   11  H   UNL     1      -9.958   5.901  73.106  1.00  0.00     0.000 HD 
HETATM   12  O   UNL     1      -9.563   3.210  70.333  1.00  0.00    -0.171 OA 
HETATM   13  O   UNL     1      -8.138   4.803  71.010  1.00  0.00    -0.084 OA 
HETATM   14  O   UNL     1      -9.726   5.142  69.153  1.00  0.00    -0.137 OA 
HETATM   15  O   UNL     1     -13.272   7.196  71.228  1.00  0.00    -0.377 OA 
HETATM   16  O   UNL     1     -11.947   5.621  72.306  1.00  0.00    -0.196 OA 
HETATM   17  O   UNL     1     -11.495   7.994  72.395  1.00  0.00    -0.334 OA 
ENDBRANCH   6   7
ENDBRANCH   5   6
ENDBRANCH   4   5
TORSDOF 3
ENDMDL
MODEL      234
REMARK 921   NORMALIZED FREE ENERGY PREDICTED BY IDOCK:   -2.11 KCAL/MOL
REMARK 922        TOTAL FREE ENERGY PREDICTED BY IDOCK:   -2.82 KCAL/MOL
REMARK 923 INTER-LIGAND FREE ENERGY PREDICTED BY IDOCK:   -2.54 KCAL/MOL
REMARK 924 INTRA-LIGAND FREE ENERGY PREDICTED BY IDOCK:   -0.28 KCAL/MOL
REMARK 927      BINDING AFFINITY PREDICTED BY RF-SCORE:    0.00 PKD
ROOT
HETATM    1  N   UNL     1     -10.673  11.768  69.441  1.00  0.00    -0.448 NA 
HETATM    2  H2  UNL     1      -9.756  11.392  69.684  1.00  0.00     0.000 HD 
HETATM    3  H1  UNL     1     -10.722  12.769  69.630  1.00  0.00     0.000 HD 
HETATM    4  C   UNL     1     -11.023  11.445  68.065  1.00  0.00    -0.237 C  
ENDROOT
BRANCH   4   5
HETATM    5  C   UNL     1     -10.949   9.944  67.782  1.00  0.00    -0.278 C  
BRANCH   5   6
HETATM    6  C   UNL     1     -10.095   9.586  66.558  1.00  0.00    -0.326 C  
BRANCH   6   7
HETATM    7  C   UNL     1      -8.679   8.989  66.838  1.00  0.00    -0.123 C  
HETATM    8  O   UNL     1      -8.554   8.855  68.302  1.00  0.00    -0.132 OA 
HETATM    9  P   UNL     1      -8.655   7.289  66.160  1.00  0.00    -0.145 P  
HETATM   10  P   UNL     1      -7.200   9.898  66.258  1.00  0.00    -0.111 P  
HETATM   11  H   UNL     1      -7.693   8.492  68.472  1.00  0.00     0.000 HD 
HETATM   12  O   UNL     1      -5.948  10.667  65.767  1.00  0.00    -0.116 OA 
HETATM   13  O   UNL     1      -7.598  11.188  67.193  1.00  0.00    -0.112 OA 
HETATM   14  O   UNL     1      -8.026  10.353  64.911  1.00  0.00    -0.153 OA 
HETATM   15  O   UNL     1      -8.635   5.851  65.587  1.00  0.00    -0.148 OA 
HETATM   16  O   UNL     1      -7.181   7.115  66.886  1.00  0.00    -0.082 OA 
HETATM   17  O   UNL     1      -9.494   6.751  67.487  1.00  0.00    -0.126 OA 
ENDBRANCH   6   7
ENDBRANCH   5   6
ENDBRANCH   4   5
TORSDOF 3
ENDMDL
MODEL      235
REMARK 921   NORMALIZED FREE ENERGY PREDICTED BY IDOCK:   -2.09 KCAL/MOL
REMARK 922        TOTAL FREE ENERGY PREDICTED BY IDOCK:   -2.80 KCAL/MOL
REMARK 923 INTER-LIGAND FREE ENERGY PREDICTED BY IDOCK:   -3.15 KCAL/MOL
REMARK 924 INTRA-LIGAND FREE ENERGY PREDICTED BY IDOCK:    0.35 KCAL/MOL
REMARK 927      BINDING AFFINITY PREDICTED BY RF-SCORE:    0.00 PKD
ROOT
HETATM    1  N   UNL     1      -6.883   9.895  70.985  1.00  0.00    -0.336 NA 
HETATM    2  H2  UNL     1      -6.034   9.332  70.930  1.00  0.00     0.000 HD 
HETATM    3  H1  UNL     1      -6.941  10.388  71.876  1.00  0.00     0.000 HD 
HETATM    4  C   UNL     1      -6.989  10.795  69.845  1.00  0.00    -0.123 C  
ENDROOT
BRANCH   4   5
HETATM    5  C   UNL     1      -6.903  10.057  68.509  1.00  0.00    -0.054 C  
BRANCH   5   6
HETATM    6  C   UNL     1      -7.936  10.525  67.475  1.00  0.00    -0.107 C  
BRANCH   6   7
HETATM    7  C   UNL     1      -9.430  10.165  67.759  1.00  0.00    -0.144 C  
HETATM    8  O   UNL     1      -9.594  10.152  69.225  1.00  0.00    -0.201 OA 
HETATM    9  P   UNL     1     -10.456  11.548  67.137  1.00  0.00    -0.246 P  
HETATM   10  P   UNL     1     -10.098   8.581  67.133  1.00  0.00    -0.309 P  
HETATM   11  H   UNL     1     -10.502   9.933  69.397  1.00  0.00     0.000 HD 
HETATM   12  O   UNL     1     -10.664   7.240  66.603  1.00  0.00    -0.243 OA 
HETATM   13  O   UNL     1      -9.007   7.741  68.029  1.00  0.00    -0.127 OA 
HETATM   14  O   UNL     1      -9.176   8.744  65.780  1.00  0.00    -0.214 OA 
HETATM   15  O   UNL     1     -11.323  12.718  66.612  1.00  0.00    -0.285 OA 
HETATM   16  O   UNL     1     -11.742  10.798  67.852  1.00  0.00    -0.543 OA 
HETATM   17  O   UNL     1     -10.079  12.432  68.491  1.00  0.00    -0.221 OA 
ENDBRANCH   6   7
ENDBRANCH   5   6
ENDBRANCH   4   5
TORSDOF 3
ENDMDL
MODEL      236
REMARK 921   NORMALIZED FREE ENERGY PREDICTED BY IDOCK:   -2.05 KCAL/MOL
REMARK 922        TOTAL FREE ENERGY PREDICTED BY IDOCK:   -2.75 KCAL/MOL
REMARK 923 INTER-LIGAND FREE ENERGY PREDICTED BY IDOCK:   -2.35 KCAL/MOL
REMARK 924 INTRA-LIGAND FREE ENERGY PREDICTED BY IDOCK:   -0.40 KCAL/MOL
REMARK 927      BINDING AFFINITY PREDICTED BY RF-SCORE:    0.00 PKD
ROOT
HETATM    1  N   UNL     1      -9.795   9.175  69.020  1.00  0.00    -0.170 NA 
HETATM    2  H2  UNL     1     -10.091   9.725  69.827  1.00  0.00     0.000 HD 
HETATM    3  H1  UNL     1     -10.331   9.424  68.189  1.00  0.00     0.000 HD 
HETATM    4  C   UNL     1      -8.359   9.285  68.809  1.00  0.00    -0.117 C  
ENDROOT
BRANCH   4   5
HETATM    5  C   UNL     1      -7.556   8.911  70.055  1.00  0.00    -0.066 C  
BRANCH   5   6
HETATM    6  C   UNL     1      -7.921   7.540  70.640  1.00  0.00    -0.100 C  
BRANCH   6   7
HETATM    7  C   UNL     1      -8.258   7.491  72.164  1.00  0.00    -0.103 C  
HETATM    8  O   UNL     1      -7.870   8.798  72.729  1.00  0.00    -0.377 OA 
HETATM    9  P   UNL     1     -10.079   7.383  72.321  1.00  0.00    -0.218 P  
HETATM   10  P   UNL     1      -7.479   6.206  73.209  1.00  0.00    -0.092 P  
HETATM   11  H   UNL     1      -8.075   8.769  73.656  1.00  0.00     0.000 HD 
HETATM   12  O   UNL     1      -6.819   5.119  74.092  1.00  0.00    -0.073 OA 
HETATM   13  O   UNL     1      -5.986   6.793  72.854  1.00  0.00    -0.042 OA 
HETATM   14  O   UNL     1      -7.589   5.145  71.957  1.00  0.00    -0.092 OA 
HETATM   15  O   UNL     1     -11.618   7.292  72.454  1.00  0.00    -0.279 OA 
HETATM   16  O   UNL     1      -9.863   7.588  73.946  1.00  0.00    -0.282 OA 
HETATM   17  O   UNL     1     -10.199   9.011  72.021  1.00  0.00    -0.339 OA 
ENDBRANCH   6   7
ENDBRANCH   5   6
ENDBRANCH   4   5
TORSDOF 3
ENDMDL
MODEL      237
REMARK 921   NORMALIZED FREE ENERGY PREDICTED BY IDOCK:   -2.03 KCAL/MOL
REMARK 922        TOTAL FREE ENERGY PREDICTED BY IDOCK:   -2.73 KCAL/MOL
REMARK 923 INTER-LIGAND FREE ENERGY PREDICTED BY IDOCK:   -2.21 KCAL/MOL
REMARK 924 INTRA-LIGAND FREE ENERGY PREDICTED BY IDOCK:   -0.52 KCAL/MOL
REMARK 927      BINDING AFFINITY PREDICTED BY RF-SCORE:    0.00 PKD
ROOT
HETATM    1  N   UNL     1      -9.827   4.842  67.927  1.00  0.00    -0.154 NA 
HETATM    2  H2  UNL     1     -10.525   5.585  67.956  1.00  0.00     0.000 HD 
HETATM    3  H1  UNL     1     -10.250   3.949  67.676  1.00  0.00     0.000 HD 
HETATM    4  C   UNL     1      -8.720   5.198  67.050  1.00  0.00    -0.103 C  
ENDROOT
BRANCH   4   5
HETATM    5  C   UNL     1      -8.086   6.537  67.425  1.00  0.00    -0.121 C  
BRANCH   5   6
HETATM    6  C   UNL     1      -7.991   6.776  68.938  1.00  0.00    -0.116 C  
BRANCH   6   7
HETATM    7  C   UNL     1      -8.632   8.091  69.485  1.00  0.00    -0.136 C  
HETATM    8  O   UNL     1      -9.357   8.712  68.360  1.00  0.00    -0.138 OA 
HETATM    9  P   UNL     1      -9.901   7.613  70.715  1.00  0.00    -0.175 P  
HETATM   10  P   UNL     1      -7.548   9.381  70.198  1.00  0.00    -0.163 P  
HETATM   11  H   UNL     1      -9.748   9.512  68.693  1.00  0.00     0.000 HD 
HETATM   12  O   UNL     1      -6.630  10.473  70.801  1.00  0.00    -0.343 OA 
HETATM   13  O   UNL     1      -6.763   9.545  68.764  1.00  0.00    -0.051 OA 
HETATM   14  O   UNL     1      -6.587   8.204  70.828  1.00  0.00    -0.036 OA 
HETATM   15  O   UNL     1     -10.974   7.209  71.755  1.00  0.00    -0.225 OA 
HETATM   16  O   UNL     1     -10.341   9.205  70.749  1.00  0.00    -0.217 OA 
HETATM   17  O   UNL     1     -10.949   7.236  69.484  1.00  0.00    -0.230 OA 
ENDBRANCH   6   7
ENDBRANCH   5   6
ENDBRANCH   4   5
TORSDOF 3
ENDMDL
MODEL      238
REMARK 921   NORMALIZED FREE ENERGY PREDICTED BY IDOCK:   -2.01 KCAL/MOL
REMARK 922        TOTAL FREE ENERGY PREDICTED BY IDOCK:   -2.70 KCAL/MOL
REMARK 923 INTER-LIGAND FREE ENERGY PREDICTED BY IDOCK:   -2.31 KCAL/MOL
REMARK 924 INTRA-LIGAND FREE ENERGY PREDICTED BY IDOCK:   -0.39 KCAL/MOL
REMARK 927      BINDING AFFINITY PREDICTED BY RF-SCORE:    0.00 PKD
ROOT
HETATM    1  N   UNL     1      -6.951   9.980  70.889  1.00  0.00    -0.336 NA 
HETATM    2  H2  UNL     1      -6.254   9.236  70.885  1.00  0.00     0.000 HD 
HETATM    3  H1  UNL     1      -7.059  10.379  71.822  1.00  0.00     0.000 HD 
HETATM    4  C   UNL     1      -6.646  10.990  69.886  1.00  0.00    -0.142 C  
ENDROOT
BRANCH   4   5
HETATM    5  C   UNL     1      -6.484  10.393  68.487  1.00  0.00    -0.051 C  
BRANCH   5   6
HETATM    6  C   UNL     1      -7.533  10.883  67.479  1.00  0.00    -0.097 C  
BRANCH   6   7
HETATM    7  C   UNL     1      -8.592   9.839  67.001  1.00  0.00    -0.124 C  
HETATM    8  O   UNL     1      -8.216   8.545  67.600  1.00  0.00    -0.116 OA 
HETATM    9  P   UNL     1     -10.198  10.306  67.745  1.00  0.00    -0.216 P  
HETATM   10  P   UNL     1      -8.811   9.552  65.207  1.00  0.00    -0.210 P  
HETATM   11  H   UNL     1      -8.861   7.910  67.309  1.00  0.00     0.000 HD 
HETATM   12  O   UNL     1      -8.997   9.309  63.688  1.00  0.00    -0.180 OA 
HETATM   13  O   UNL     1      -7.251   9.058  65.072  1.00  0.00    -0.089 OA 
HETATM   14  O   UNL     1      -8.547  11.153  64.934  1.00  0.00    -0.022 OA 
HETATM   15  O   UNL     1     -11.556  10.700  68.374  1.00  0.00    -0.349 OA 
HETATM   16  O   UNL     1     -10.786   8.880  67.152  1.00  0.00    -0.209 OA 
HETATM   17  O   UNL     1      -9.722   9.636  69.187  1.00  0.00    -0.165 OA 
ENDBRANCH   6   7
ENDBRANCH   5   6
ENDBRANCH   4   5
TORSDOF 3
ENDMDL
MODEL      239
REMARK 921   NORMALIZED FREE ENERGY PREDICTED BY IDOCK:   -2.01 KCAL/MOL
REMARK 922        TOTAL FREE ENERGY PREDICTED BY IDOCK:   -2.70 KCAL/MOL
REMARK 923 INTER-LIGAND FREE ENERGY PREDICTED BY IDOCK:   -2.20 KCAL/MOL
REMARK 924 INTRA-LIGAND FREE ENERGY PREDICTED BY IDOCK:   -0.50 KCAL/MOL
REMARK 927      BINDING AFFINITY PREDICTED BY RF-SCORE:    0.00 PKD
ROOT
HETATM    1  N   UNL     1     -11.098  11.598  70.020  1.00  0.00    -0.461 NA 
HETATM    2  H2  UNL     1     -10.914  11.976  69.091  1.00  0.00     0.000 HD 
HETATM    3  H1  UNL     1     -11.990  11.933  70.384  1.00  0.00     0.000 HD 
HETATM    4  C   UNL     1     -11.010  10.144  70.021  1.00  0.00    -0.307 C  
ENDROOT
BRANCH   4   5
HETATM    5  C   UNL     1      -9.673   9.641  69.477  1.00  0.00    -0.216 C  
BRANCH   5   6
HETATM    6  C   UNL     1      -9.357  10.133  68.058  1.00  0.00    -0.149 C  
BRANCH   6   7
HETATM    7  C   UNL     1      -8.044  10.961  67.876  1.00  0.00    -0.113 C  
HETATM    8  O   UNL     1      -7.322  10.904  69.161  1.00  0.00    -0.105 OA 
HETATM    9  P   UNL     1      -7.001  10.077  66.659  1.00  0.00    -0.094 P  
HETATM   10  P   UNL     1      -8.163  12.727  67.409  1.00  0.00    -0.168 P  
HETATM   11  H   UNL     1      -6.524  11.408  69.050  1.00  0.00     0.000 HD 
HETATM   12  O   UNL     1      -8.263  14.221  67.013  1.00  0.00    -0.180 OA 
HETATM   13  O   UNL     1      -8.998  13.057  68.784  1.00  0.00    -0.002 OA 
HETATM   14  O   UNL     1      -9.458  12.372  66.458  1.00  0.00    -0.233 OA 
HETATM   15  O   UNL     1      -6.119   9.329  65.630  1.00  0.00    -0.057 OA 
HETATM   16  O   UNL     1      -5.809  11.161  67.025  1.00  0.00    -0.057 OA 
HETATM   17  O   UNL     1      -6.539   9.004  67.838  1.00  0.00    -0.059 OA 
ENDBRANCH   6   7
ENDBRANCH   5   6
ENDBRANCH   4   5
TORSDOF 3
ENDMDL
MODEL      240
REMARK 921   NORMALIZED FREE ENERGY PREDICTED BY IDOCK:   -1.99 KCAL/MOL
REMARK 922        TOTAL FREE ENERGY PREDICTED BY IDOCK:   -2.69 KCAL/MOL
REMARK 923 INTER-LIGAND FREE ENERGY PREDICTED BY IDOCK:   -2.67 KCAL/MOL
REMARK 924 INTRA-LIGAND FREE ENERGY PREDICTED BY IDOCK:   -0.02 KCAL/MOL
REMARK 927      BINDING AFFINITY PREDICTED BY RF-SCORE:    0.00 PKD
ROOT
HETATM    1  N   UNL     1     -11.302   4.786  65.441  1.00  0.00    -1.000 NA 
HETATM    2  H2  UNL     1     -11.817   5.601  65.109  1.00  0.00     0.000 HD 
HETATM    3  H1  UNL     1     -11.241   4.069  64.718  1.00  0.00     0.000 HD 
HETATM    4  C   UNL     1      -9.995   5.167  65.957  1.00  0.00    -0.163 C  
ENDROOT
BRANCH   4   5
HETATM    5  C   UNL     1     -10.086   6.241  67.041  1.00  0.00    -0.225 C  
BRANCH   5   6
HETATM    6  C   UNL     1      -9.888   7.670  66.516  1.00  0.00    -0.242 C  
BRANCH   6   7
HETATM    7  C   UNL     1      -8.628   8.439  67.027  1.00  0.00    -0.122 C  
HETATM    8  O   UNL     1      -9.113   9.685  67.650  1.00  0.00    -0.131 OA 
HETATM    9  P   UNL     1      -7.885   7.445  68.372  1.00  0.00    -0.125 P  
HETATM   10  P   UNL     1      -7.328   8.913  65.829  1.00  0.00    -0.091 P  
HETATM   11  H   UNL     1      -8.346  10.153  67.961  1.00  0.00     0.000 HD 
HETATM   12  O   UNL     1      -6.227   9.315  64.815  1.00  0.00    -0.068 OA 
HETATM   13  O   UNL     1      -8.402   9.833  64.993  1.00  0.00    -0.130 OA 
HETATM   14  O   UNL     1      -7.583   7.506  65.018  1.00  0.00    -0.085 OA 
HETATM   15  O   UNL     1      -7.256   6.604  69.509  1.00  0.00    -0.077 OA 
HETATM   16  O   UNL     1      -6.873   8.723  68.639  1.00  0.00    -0.061 OA 
HETATM   17  O   UNL     1      -9.044   8.002  69.421  1.00  0.00    -0.148 OA 
ENDBRANCH   6   7
ENDBRANCH   5   6
ENDBRANCH   4   5
TORSDOF 3
ENDMDL
MODEL      241
REMARK 921   NORMALIZED FREE ENERGY PREDICTED BY IDOCK:   -1.98 KCAL/MOL
REMARK 922        TOTAL FREE ENERGY PREDICTED BY IDOCK:   -2.67 KCAL/MOL
REMARK 923 INTER-LIGAND FREE ENERGY PREDICTED BY IDOCK:   -2.86 KCAL/MOL
REMARK 924 INTRA-LIGAND FREE ENERGY PREDICTED BY IDOCK:    0.19 KCAL/MOL
REMARK 927      BINDING AFFINITY PREDICTED BY RF-SCORE:    0.00 PKD
ROOT
HETATM    1  N   UNL     1      -7.232  13.622  68.067  1.00  0.00    -0.112 NA 
HETATM    2  H2  UNL     1      -6.836  13.434  67.146  1.00  0.00     0.000 HD 
HETATM    3  H1  UNL     1      -6.523  13.974  68.709  1.00  0.00     0.000 HD 
HETATM    4  C   UNL     1      -8.383  14.508  67.970  1.00  0.00    -0.153 C  
ENDROOT
BRANCH   4   5
HETATM    5  C   UNL     1      -9.448  13.980  67.008  1.00  0.00    -0.253 C  
BRANCH   5   6
HETATM    6  C   UNL     1     -10.602  13.245  67.704  1.00  0.00    -0.242 C  
BRANCH   6   7
HETATM    7  C   UNL     1     -10.374  11.736  68.041  1.00  0.00    -0.198 C  
HETATM    8  O   UNL     1      -9.252  11.676  68.996  1.00  0.00    -0.393 OA 
HETATM    9  P   UNL     1     -11.853  11.146  68.944  1.00  0.00    -0.200 P  
HETATM   10  P   UNL     1      -9.983  10.571  66.685  1.00  0.00    -0.226 P  
HETATM   11  H   UNL     1      -9.114  10.759  69.200  1.00  0.00     0.000 HD 
HETATM   12  O   UNL     1      -9.652   9.585  65.537  1.00  0.00    -0.260 OA 
HETATM   13  O   UNL     1      -8.616  11.409  66.329  1.00  0.00    -0.177 OA 
HETATM   14  O   UNL     1     -11.001  11.404  65.696  1.00  0.00    -0.266 OA 
HETATM   15  O   UNL     1     -13.103  10.647  69.709  1.00  0.00    -0.081 OA 
HETATM   16  O   UNL     1     -11.022   9.743  69.209  1.00  0.00    -0.228 OA 
HETATM   17  O   UNL     1     -11.291  11.868  70.330  1.00  0.00    -0.073 OA 
ENDBRANCH   6   7
ENDBRANCH   5   6
ENDBRANCH   4   5
TORSDOF 3
ENDMDL
MODEL      242
REMARK 921   NORMALIZED FREE ENERGY PREDICTED BY IDOCK:   -1.98 KCAL/MOL
REMARK 922        TOTAL FREE ENERGY PREDICTED BY IDOCK:   -2.67 KCAL/MOL
REMARK 923 INTER-LIGAND FREE ENERGY PREDICTED BY IDOCK:   -2.50 KCAL/MOL
REMARK 924 INTRA-LIGAND FREE ENERGY PREDICTED BY IDOCK:   -0.17 KCAL/MOL
REMARK 927      BINDING AFFINITY PREDICTED BY RF-SCORE:    0.00 PKD
ROOT
HETATM    1  N   UNL     1     -10.111  12.331  67.324  1.00  0.00    -0.203 NA 
HETATM    2  H2  UNL     1      -9.158  11.973  67.370  1.00  0.00     0.000 HD 
HETATM    3  H1  UNL     1     -10.166  13.158  66.729  1.00  0.00     0.000 HD 
HETATM    4  C   UNL     1     -11.043  11.290  66.914  1.00  0.00    -0.275 C  
ENDROOT
BRANCH   4   5
HETATM    5  C   UNL     1     -10.963  10.051  67.805  1.00  0.00    -0.310 C  
BRANCH   5   6
HETATM    6  C   UNL     1     -10.656   8.756  67.040  1.00  0.00    -0.283 C  
BRANCH   6   7
HETATM    7  C   UNL     1      -9.389   7.957  67.486  1.00  0.00    -0.143 C  
HETATM    8  O   UNL     1      -8.471   7.933  66.332  1.00  0.00    -0.124 OA 
HETATM    9  P   UNL     1      -8.554   8.936  68.789  1.00  0.00    -0.138 P  
HETATM   10  P   UNL     1      -9.581   6.227  68.052  1.00  0.00    -0.118 P  
HETATM   11  H   UNL     1      -7.701   7.448  66.604  1.00  0.00     0.000 HD 
HETATM   12  O   UNL     1      -9.744   4.763  68.530  1.00  0.00    -0.148 OA 
HETATM   13  O   UNL     1     -10.186   5.793  66.587  1.00  0.00    -0.182 OA 
HETATM   14  O   UNL     1     -11.012   6.632  68.756  1.00  0.00    -0.263 OA 
HETATM   15  O   UNL     1      -7.848   9.763  69.890  1.00  0.00    -0.125 OA 
HETATM   16  O   UNL     1      -7.319   7.842  68.695  1.00  0.00    -0.086 OA 
HETATM   17  O   UNL     1      -7.909   9.929  67.626  1.00  0.00    -0.097 OA 
ENDBRANCH   6   7
ENDBRANCH   5   6
ENDBRANCH   4   5
TORSDOF 3
ENDMDL
MODEL      243
REMARK 921   NORMALIZED FREE ENERGY PREDICTED BY IDOCK:   -1.95 KCAL/MOL
REMARK 922        TOTAL FREE ENERGY PREDICTED BY IDOCK:   -2.64 KCAL/MOL
REMARK 923 INTER-LIGAND FREE ENERGY PREDICTED BY IDOCK:   -2.92 KCAL/MOL
REMARK 924 INTRA-LIGAND FREE ENERGY PREDICTED BY IDOCK:    0.28 KCAL/MOL
REMARK 927      BINDING AFFINITY PREDICTED BY RF-SCORE:    0.00 PKD
ROOT
HETATM    1  N   UNL     1     -12.296  14.405  67.054  1.00  0.00    -0.561 NA 
HETATM    2  H2  UNL     1     -11.761  14.964  67.718  1.00  0.00     0.000 HD 
HETATM    3  H1  UNL     1     -12.786  14.998  66.384  1.00  0.00     0.000 HD 
HETATM    4  C   UNL     1     -11.452  13.412  66.404  1.00  0.00    -0.329 C  
ENDROOT
BRANCH   4   5
HETATM    5  C   UNL     1     -10.718  12.523  67.408  1.00  0.00    -0.254 C  
BRANCH   5   6
HETATM    6  C   UNL     1      -9.638  11.635  66.775  1.00  0.00    -0.207 C  
BRANCH   6   7
HETATM    7  C   UNL     1      -8.723  10.832  67.755  1.00  0.00    -0.130 C  
HETATM    8  O   UNL     1      -8.456  11.713  68.908  1.00  0.00    -0.340 OA 
HETATM    9  P   UNL     1      -9.706   9.427  68.396  1.00  0.00    -0.157 P  
HETATM   10  P   UNL     1      -7.103  10.223  67.162  1.00  0.00    -0.093 P  
HETATM   11  H   UNL     1      -7.901  11.224  69.504  1.00  0.00     0.000 HD 
HETATM   12  O   UNL     1      -5.731   9.707  66.661  1.00  0.00    -0.052 OA 
HETATM   13  O   UNL     1      -6.608  11.761  66.866  1.00  0.00    -0.144 OA 
HETATM   14  O   UNL     1      -7.769   9.930  65.687  1.00  0.00    -0.111 OA 
HETATM   15  O   UNL     1     -10.537   8.239  68.938  1.00  0.00    -0.211 OA 
HETATM   16  O   UNL     1      -8.450   9.135  69.429  1.00  0.00    -0.120 OA 
HETATM   17  O   UNL     1     -10.478  10.451  69.450  1.00  0.00    -0.211 OA 
ENDBRANCH   6   7
ENDBRANCH   5   6
ENDBRANCH   4   5
TORSDOF 3
ENDMDL
MODEL      244
REMARK 921   NORMALIZED FREE ENERGY PREDICTED BY IDOCK:   -1.95 KCAL/MOL
REMARK 922        TOTAL FREE ENERGY PREDICTED BY IDOCK:   -2.64 KCAL/MOL
REMARK 923 INTER-LIGAND FREE ENERGY PREDICTED BY IDOCK:   -2.87 KCAL/MOL
REMARK 924 INTRA-LIGAND FREE ENERGY PREDICTED BY IDOCK:    0.23 KCAL/MOL
REMARK 927      BINDING AFFINITY PREDICTED BY RF-SCORE:    0.00 PKD
ROOT
HETATM    1  N   UNL     1      -9.967  12.190  64.897  1.00  0.00    -0.369 NA 
HETATM    2  H2  UNL     1      -9.018  12.212  65.269  1.00  0.00     0.000 HD 
HETATM    3  H1  UNL     1     -10.066  12.821  64.102  1.00  0.00     0.000 HD 
HETATM    4  C   UNL     1     -10.374  10.829  64.580  1.00  0.00    -0.324 C  
ENDROOT
BRANCH   4   5
HETATM    5  C   UNL     1     -10.226   9.883  65.772  1.00  0.00    -0.251 C  
BRANCH   5   6
HETATM    6  C   UNL     1      -9.046  10.225  66.692  1.00  0.00    -0.163 C  
BRANCH   6   7
HETATM    7  C   UNL     1      -9.320  10.193  68.230  1.00  0.00    -0.133 C  
HETATM    8  O   UNL     1      -8.266  11.006  68.867  1.00  0.00    -0.145 OA 
HETATM    9  P   UNL     1     -10.898  11.072  68.525  1.00  0.00    -0.259 P  
HETATM   10  P   UNL     1      -9.348   8.581  69.096  1.00  0.00    -0.154 P  
HETATM   11  H   UNL     1      -8.433  10.987  69.802  1.00  0.00     0.000 HD 
HETATM   12  O   UNL     1      -9.371   7.217  69.829  1.00  0.00    -0.151 OA 
HETATM   13  O   UNL     1      -7.786   8.301  68.671  1.00  0.00    -0.109 OA 
HETATM   14  O   UNL     1     -10.050   7.900  67.774  1.00  0.00    -0.170 OA 
HETATM   15  O   UNL     1     -12.233  11.815  68.775  1.00  0.00    -0.367 OA 
HETATM   16  O   UNL     1     -10.568  10.940  70.138  1.00  0.00    -0.051 OA 
HETATM   17  O   UNL     1     -10.114  12.527  68.372  1.00  0.00    -0.220 OA 
ENDBRANCH   6   7
ENDBRANCH   5   6
ENDBRANCH   4   5
TORSDOF 3
ENDMDL
MODEL      245
REMARK 921   NORMALIZED FREE ENERGY PREDICTED BY IDOCK:   -1.95 KCAL/MOL
REMARK 922        TOTAL FREE ENERGY PREDICTED BY IDOCK:   -2.63 KCAL/MOL
REMARK 923 INTER-LIGAND FREE ENERGY PREDICTED BY IDOCK:   -2.65 KCAL/MOL
REMARK 924 INTRA-LIGAND FREE ENERGY PREDICTED BY IDOCK:    0.02 KCAL/MOL
REMARK 927      BINDING AFFINITY PREDICTED BY RF-SCORE:    0.00 PKD
ROOT
HETATM    1  N   UNL     1     -11.100   4.026  64.660  1.00  0.00    -0.805 NA 
HETATM    2  H2  UNL     1     -11.626   4.676  65.244  1.00  0.00     0.000 HD 
HETATM    3  H1  UNL     1     -11.506   3.957  63.728  1.00  0.00     0.000 HD 
HETATM    4  C   UNL     1      -9.687   4.379  64.626  1.00  0.00    -0.099 C  
ENDROOT
BRANCH   4   5
HETATM    5  C   UNL     1      -9.077   4.483  66.024  1.00  0.00    -0.130 C  
BRANCH   5   6
HETATM    6  C   UNL     1     -10.111   4.710  67.136  1.00  0.00    -0.187 C  
BRANCH   6   7
HETATM    7  C   UNL     1      -9.586   5.337  68.467  1.00  0.00    -0.135 C  
HETATM    8  O   UNL     1      -9.890   4.373  69.542  1.00  0.00    -0.209 OA 
HETATM    9  P   UNL     1      -7.761   5.423  68.352  1.00  0.00    -0.081 P  
HETATM   10  P   UNL     1     -10.240   6.960  69.005  1.00  0.00    -0.197 P  
HETATM   11  H   UNL     1      -9.571   4.755  70.351  1.00  0.00     0.000 HD 
HETATM   12  O   UNL     1     -10.793   8.333  69.461  1.00  0.00    -0.210 OA 
HETATM   13  O   UNL     1     -11.760   6.344  69.089  1.00  0.00    -0.217 OA 
HETATM   14  O   UNL     1     -10.296   7.442  67.434  1.00  0.00    -0.215 OA 
HETATM   15  O   UNL     1      -6.218   5.495  68.255  1.00  0.00    -0.028 OA 
HETATM   16  O   UNL     1      -7.771   5.879  69.940  1.00  0.00    -0.084 OA 
HETATM   17  O   UNL     1      -7.665   3.804  68.705  1.00  0.00    -0.057 OA 
ENDBRANCH   6   7
ENDBRANCH   5   6
ENDBRANCH   4   5
TORSDOF 3
ENDMDL
MODEL      246
REMARK 921   NORMALIZED FREE ENERGY PREDICTED BY IDOCK:   -1.94 KCAL/MOL
REMARK 922        TOTAL FREE ENERGY PREDICTED BY IDOCK:   -2.63 KCAL/MOL
REMARK 923 INTER-LIGAND FREE ENERGY PREDICTED BY IDOCK:   -2.38 KCAL/MOL
REMARK 924 INTRA-LIGAND FREE ENERGY PREDICTED BY IDOCK:   -0.24 KCAL/MOL
REMARK 927      BINDING AFFINITY PREDICTED BY RF-SCORE:    0.00 PKD
ROOT
HETATM    1  N   UNL     1     -11.510   6.538  68.087  1.00  0.00    -0.579 NA 
HETATM    2  H2  UNL     1     -11.309   7.535  68.019  1.00  0.00     0.000 HD 
HETATM    3  H1  UNL     1     -12.486   6.343  67.864  1.00  0.00     0.000 HD 
HETATM    4  C   UNL     1     -10.589   5.761  67.270  1.00  0.00    -0.279 C  
ENDROOT
BRANCH   4   5
HETATM    5  C   UNL     1      -9.125   6.052  67.604  1.00  0.00    -0.109 C  
BRANCH   5   6
HETATM    6  C   UNL     1      -8.802   5.967  69.102  1.00  0.00    -0.117 C  
BRANCH   6   7
HETATM    7  C   UNL     1      -8.140   7.224  69.752  1.00  0.00    -0.128 C  
HETATM    8  O   UNL     1      -6.843   6.786  70.302  1.00  0.00    -0.058 OA 
HETATM    9  P   UNL     1      -7.758   8.402  68.404  1.00  0.00    -0.107 P  
HETATM   10  P   UNL     1      -9.021   8.100  71.096  1.00  0.00    -0.168 P  
HETATM   11  H   UNL     1      -6.440   7.551  70.697  1.00  0.00     0.000 HD 
HETATM   12  O   UNL     1      -9.766   8.841  72.234  1.00  0.00    -0.301 OA 
HETATM   13  O   UNL     1      -8.988   6.747  72.028  1.00  0.00    -0.138 OA 
HETATM   14  O   UNL     1     -10.448   7.796  70.338  1.00  0.00    -0.213 OA 
HETATM   15  O   UNL     1      -7.435   9.398  67.265  1.00  0.00    -0.090 OA 
HETATM   16  O   UNL     1      -6.956   9.300  69.536  1.00  0.00    -0.049 OA 
HETATM   17  O   UNL     1      -6.418   7.508  68.005  1.00  0.00    -0.046 OA 
ENDBRANCH   6   7
ENDBRANCH   5   6
ENDBRANCH   4   5
TORSDOF 3
ENDMDL
MODEL      247
REMARK 921   NORMALIZED FREE ENERGY PREDICTED BY IDOCK:   -1.92 KCAL/MOL
REMARK 922        TOTAL FREE ENERGY PREDICTED BY IDOCK:   -2.60 KCAL/MOL
REMARK 923 INTER-LIGAND FREE ENERGY PREDICTED BY IDOCK:   -2.61 KCAL/MOL
REMARK 924 INTRA-LIGAND FREE ENERGY PREDICTED BY IDOCK:    0.01 KCAL/MOL
REMARK 927      BINDING AFFINITY PREDICTED BY RF-SCORE:    0.00 PKD
ROOT
HETATM    1  N   UNL     1     -10.463   5.419  66.839  1.00  0.00    -0.268 NA 
HETATM    2  H2  UNL     1     -11.118   5.820  66.168  1.00  0.00     0.000 HD 
HETATM    3  H1  UNL     1     -10.087   4.533  66.501  1.00  0.00     0.000 HD 
HETATM    4  C   UNL     1      -9.417   6.371  67.184  1.00  0.00    -0.129 C  
ENDROOT
BRANCH   4   5
HETATM    5  C   UNL     1      -9.981   7.699  67.691  1.00  0.00    -0.225 C  
BRANCH   5   6
HETATM    6  C   UNL     1     -10.236   8.728  66.581  1.00  0.00    -0.340 C  
BRANCH   6   7
HETATM    7  C   UNL     1      -9.031   9.635  66.172  1.00  0.00    -0.154 C  
HETATM    8  O   UNL     1      -7.816   9.002  66.719  1.00  0.00    -0.102 OA 
HETATM    9  P   UNL     1      -8.878   9.557  64.350  1.00  0.00    -0.159 P  
HETATM   10  P   UNL     1      -9.011  11.384  66.712  1.00  0.00    -0.185 P  
HETATM   11  H   UNL     1      -7.083   9.554  66.470  1.00  0.00     0.000 HD 
HETATM   12  O   UNL     1      -8.994  12.864  67.168  1.00  0.00    -0.203 OA 
HETATM   13  O   UNL     1      -9.018  10.921  68.288  1.00  0.00    -0.138 OA 
HETATM   14  O   UNL     1     -10.642  11.450  66.506  1.00  0.00    -0.243 OA 
HETATM   15  O   UNL     1      -8.749   9.491  62.809  1.00  0.00    -0.201 OA 
HETATM   16  O   UNL     1      -7.470  10.404  64.520  1.00  0.00    -0.120 OA 
HETATM   17  O   UNL     1      -8.133   8.079  64.478  1.00  0.00    -0.147 OA 
ENDBRANCH   6   7
ENDBRANCH   5   6
ENDBRANCH   4   5
TORSDOF 3
ENDMDL
MODEL      248
REMARK 921   NORMALIZED FREE ENERGY PREDICTED BY IDOCK:   -1.92 KCAL/MOL
REMARK 922        TOTAL FREE ENERGY PREDICTED BY IDOCK:   -2.60 KCAL/MOL
REMARK 923 INTER-LIGAND FREE ENERGY PREDICTED BY IDOCK:   -2.63 KCAL/MOL
REMARK 924 INTRA-LIGAND FREE ENERGY PREDICTED BY IDOCK:    0.03 KCAL/MOL
REMARK 927      BINDING AFFINITY PREDICTED BY RF-SCORE:    0.00 PKD
ROOT
HETATM    1  N   UNL     1     -10.011   9.563  65.524  1.00  0.00    -0.399 NA 
HETATM    2  H2  UNL     1      -9.965  10.561  65.729  1.00  0.00     0.000 HD 
HETATM    3  H1  UNL     1      -9.512   9.341  64.663  1.00  0.00     0.000 HD 
HETATM    4  C   UNL     1      -9.543   8.774  66.655  1.00  0.00    -0.220 C  
ENDROOT
BRANCH   4   5
HETATM    5  C   UNL     1     -10.291   9.106  67.947  1.00  0.00    -0.285 C  
BRANCH   5   6
HETATM    6  C   UNL     1      -9.482   8.824  69.221  1.00  0.00    -0.161 C  
BRANCH   6   7
HETATM    7  C   UNL     1     -10.294   8.440  70.499  1.00  0.00    -0.199 C  
HETATM    8  O   UNL     1      -9.592   9.044  71.648  1.00  0.00    -0.288 OA 
HETATM    9  P   UNL     1     -11.919   9.277  70.390  1.00  0.00     0.232 P  
HETATM   10  P   UNL     1     -10.545   6.671  70.897  1.00  0.00    -0.242 P  
HETATM   11  H   UNL     1     -10.086   8.811  72.425  1.00  0.00     0.000 HD 
HETATM   12  O   UNL     1     -10.757   5.174  71.234  1.00  0.00    -0.179 OA 
HETATM   13  O   UNL     1      -8.922   6.447  71.021  1.00  0.00    -0.145 OA 
HETATM   14  O   UNL     1     -10.678   6.344  69.291  1.00  0.00    -0.231 OA 
HETATM   15  O   UNL     1     -13.292   9.984  70.298  1.00  0.00    -0.019 OA 
HETATM   16  O   UNL     1     -12.191   8.757  71.935  1.00  0.00    -0.314 OA 
HETATM   17  O   UNL     1     -11.216  10.700  70.876  1.00  0.00    -0.177 OA 
ENDBRANCH   6   7
ENDBRANCH   5   6
ENDBRANCH   4   5
TORSDOF 3
ENDMDL
MODEL      249
REMARK 921   NORMALIZED FREE ENERGY PREDICTED BY IDOCK:   -1.91 KCAL/MOL
REMARK 922        TOTAL FREE ENERGY PREDICTED BY IDOCK:   -2.59 KCAL/MOL
REMARK 923 INTER-LIGAND FREE ENERGY PREDICTED BY IDOCK:   -2.47 KCAL/MOL
REMARK 924 INTRA-LIGAND FREE ENERGY PREDICTED BY IDOCK:   -0.12 KCAL/MOL
REMARK 927      BINDING AFFINITY PREDICTED BY RF-SCORE:    0.00 PKD
ROOT
HETATM    1  N   UNL     1      -9.560  10.057  65.166  1.00  0.00    -0.272 NA 
HETATM    2  H2  UNL     1      -9.248  10.916  65.616  1.00  0.00     0.000 HD 
HETATM    3  H1  UNL     1      -9.282  10.033  64.185  1.00  0.00     0.000 HD 
HETATM    4  C   UNL     1      -9.104   8.885  65.900  1.00  0.00    -0.218 C  
ENDROOT
BRANCH   4   5
HETATM    5  C   UNL     1      -9.520   8.919  67.371  1.00  0.00    -0.181 C  
BRANCH   5   6
HETATM    6  C   UNL     1      -8.622   8.079  68.289  1.00  0.00    -0.130 C  
BRANCH   6   7
HETATM    7  C   UNL     1      -9.335   7.250  69.405  1.00  0.00    -0.151 C  
HETATM    8  O   UNL     1     -10.740   7.699  69.437  1.00  0.00    -0.252 OA 
HETATM    9  P   UNL     1      -9.365   5.503  68.858  1.00  0.00    -0.137 P  
HETATM   10  P   UNL     1      -8.706   7.341  71.121  1.00  0.00    -0.135 P  
HETATM   11  H   UNL     1     -11.174   7.194  70.116  1.00  0.00     0.000 HD 
HETATM   12  O   UNL     1      -8.174   7.418  72.573  1.00  0.00    -0.101 OA 
HETATM   13  O   UNL     1      -9.005   8.956  71.168  1.00  0.00    -0.203 OA 
HETATM   14  O   UNL     1      -7.171   7.430  70.537  1.00  0.00    -0.063 OA 
HETATM   15  O   UNL     1      -9.390   4.026  68.395  1.00  0.00    -0.139 OA 
HETATM   16  O   UNL     1     -10.333   5.203  70.162  1.00  0.00    -0.273 OA 
HETATM   17  O   UNL     1     -10.640   5.842  67.851  1.00  0.00    -0.218 OA 
ENDBRANCH   6   7
ENDBRANCH   5   6
ENDBRANCH   4   5
TORSDOF 3
ENDMDL
MODEL      250
REMARK 921   NORMALIZED FREE ENERGY PREDICTED BY IDOCK:   -1.90 KCAL/MOL
REMARK 922        TOTAL FREE ENERGY PREDICTED BY IDOCK:   -2.57 KCAL/MOL
REMARK 923 INTER-LIGAND FREE ENERGY PREDICTED BY IDOCK:   -2.44 KCAL/MOL
REMARK 924 INTRA-LIGAND FREE ENERGY PREDICTED BY IDOCK:   -0.13 KCAL/MOL
REMARK 927      BINDING AFFINITY PREDICTED BY RF-SCORE:    0.00 PKD
ROOT
HETATM    1  N   UNL     1     -11.613  13.415  69.692  1.00  0.00    -0.398 NA 
HETATM    2  H2  UNL     1     -11.133  12.614  70.103  1.00  0.00     0.000 HD 
HETATM    3  H1  UNL     1     -12.163  13.913  70.391  1.00  0.00     0.000 HD 
HETATM    4  C   UNL     1     -10.676  14.287  68.997  1.00  0.00    -0.245 C  
ENDROOT
BRANCH   4   5
HETATM    5  C   UNL     1      -9.851  13.540  67.949  1.00  0.00    -0.235 C  
BRANCH   5   6
HETATM    6  C   UNL     1     -10.313  12.095  67.710  1.00  0.00    -0.217 C  
BRANCH   6   7
HETATM    7  C   UNL     1      -9.300  10.963  68.073  1.00  0.00    -0.160 C  
HETATM    8  O   UNL     1      -8.868  10.353  66.801  1.00  0.00    -0.130 OA 
HETATM    9  P   UNL     1      -7.818  11.761  68.792  1.00  0.00     0.046 P  
HETATM   10  P   UNL     1      -9.845   9.596  69.161  1.00  0.00    -0.211 P  
HETATM   11  H   UNL     1      -8.252   9.665  67.022  1.00  0.00     0.000 HD 
HETATM   12  O   UNL     1     -10.306   8.439  70.083  1.00  0.00    -0.202 OA 
HETATM   13  O   UNL     1     -11.000   9.163  68.076  1.00  0.00    -0.125 OA 
HETATM   14  O   UNL     1     -10.756  10.663  70.020  1.00  0.00    -0.251 OA 
HETATM   15  O   UNL     1      -6.565  12.436  69.399  1.00  0.00    -0.108 OA 
HETATM   16  O   UNL     1      -7.104  10.272  68.750  1.00  0.00    -0.067 OA 
HETATM   17  O   UNL     1      -7.303  12.171  67.268  1.00  0.00    -0.140 OA 
ENDBRANCH   6   7
ENDBRANCH   5   6
ENDBRANCH   4   5
TORSDOF 3
ENDMDL
MODEL      251
REMARK 921   NORMALIZED FREE ENERGY PREDICTED BY IDOCK:   -1.89 KCAL/MOL
REMARK 922        TOTAL FREE ENERGY PREDICTED BY IDOCK:   -2.57 KCAL/MOL
REMARK 923 INTER-LIGAND FREE ENERGY PREDICTED BY IDOCK:   -2.55 KCAL/MOL
REMARK 924 INTRA-LIGAND FREE ENERGY PREDICTED BY IDOCK:   -0.02 KCAL/MOL
REMARK 927      BINDING AFFINITY PREDICTED BY RF-SCORE:    0.00 PKD
ROOT
HETATM    1  N   UNL     1     -11.456   4.437  64.990  1.00  0.00    -1.079 NA 
HETATM    2  H2  UNL     1     -11.457   5.457  64.993  1.00  0.00     0.000 HD 
HETATM    3  H1  UNL     1     -12.185   4.070  64.378  1.00  0.00     0.000 HD 
HETATM    4  C   UNL     1     -10.138   3.915  64.659  1.00  0.00    -0.213 C  
ENDROOT
BRANCH   4   5
HETATM    5  C   UNL     1      -9.045   4.464  65.576  1.00  0.00    -0.140 C  
BRANCH   5   6
HETATM    6  C   UNL     1      -9.445   5.749  66.315  1.00  0.00    -0.166 C  
BRANCH   6   7
HETATM    7  C   UNL     1      -8.281   6.655  66.832  1.00  0.00    -0.113 C  
HETATM    8  O   UNL     1      -8.654   7.095  68.190  1.00  0.00    -0.128 OA 
HETATM    9  P   UNL     1      -6.802   5.593  67.022  1.00  0.00    -0.066 P  
HETATM   10  P   UNL     1      -7.835   8.158  65.887  1.00  0.00    -0.105 P  
HETATM   11  H   UNL     1      -7.946   7.645  68.504  1.00  0.00     0.000 HD 
HETATM   12  O   UNL     1      -7.459   9.430  65.088  1.00  0.00    -0.100 OA 
HETATM   13  O   UNL     1      -9.340   8.775  66.118  1.00  0.00    -0.200 OA 
HETATM   14  O   UNL     1      -8.152   7.353  64.488  1.00  0.00    -0.133 OA 
HETATM   15  O   UNL     1      -5.551   4.695  67.183  1.00  0.00    -0.013 OA 
HETATM   16  O   UNL     1      -6.071   6.891  67.736  1.00  0.00    -0.030 OA 
HETATM   17  O   UNL     1      -7.408   5.008  68.452  1.00  0.00    -0.065 OA 
ENDBRANCH   6   7
ENDBRANCH   5   6
ENDBRANCH   4   5
TORSDOF 3
ENDMDL
MODEL      252
REMARK 921   NORMALIZED FREE ENERGY PREDICTED BY IDOCK:   -1.88 KCAL/MOL
REMARK 922        TOTAL FREE ENERGY PREDICTED BY IDOCK:   -2.55 KCAL/MOL
REMARK 923 INTER-LIGAND FREE ENERGY PREDICTED BY IDOCK:   -2.32 KCAL/MOL
REMARK 924 INTRA-LIGAND FREE ENERGY PREDICTED BY IDOCK:   -0.23 KCAL/MOL
REMARK 927      BINDING AFFINITY PREDICTED BY RF-SCORE:    0.00 PKD
ROOT
HETATM    1  N   UNL     1      -5.720  11.149  62.471  1.00  0.00    -0.347 NA 
HETATM    2  H2  UNL     1      -5.822  12.050  62.937  1.00  0.00     0.000 HD 
HETATM    3  H1  UNL     1      -4.885  11.129  61.885  1.00  0.00     0.000 HD 
HETATM    4  C   UNL     1      -5.749  10.056  63.433  1.00  0.00    -0.115 C  
ENDROOT
BRANCH   4   5
HETATM    5  C   UNL     1      -7.000  10.084  64.310  1.00  0.00    -0.128 C  
BRANCH   5   6
HETATM    6  C   UNL     1      -6.995   9.035  65.431  1.00  0.00    -0.080 C  
BRANCH   6   7
HETATM    7  C   UNL     1      -8.088   7.921  65.358  1.00  0.00    -0.130 C  
HETATM    8  O   UNL     1      -8.724   8.034  64.031  1.00  0.00    -0.375 OA 
HETATM    9  P   UNL     1      -7.228   6.305  65.382  1.00  0.00    -0.075 P  
HETATM   10  P   UNL     1      -9.436   7.913  66.596  1.00  0.00    -0.210 P  
HETATM   11  H   UNL     1      -9.388   7.356  63.986  1.00  0.00     0.000 HD 
HETATM   12  O   UNL     1     -10.577   7.907  67.643  1.00  0.00    -0.240 OA 
HETATM   13  O   UNL     1      -9.933   9.397  66.096  1.00  0.00    -0.274 OA 
HETATM   14  O   UNL     1      -8.369   8.425  67.738  1.00  0.00    -0.128 OA 
HETATM   15  O   UNL     1      -6.501   4.939  65.403  1.00  0.00    -0.034 OA 
HETATM   16  O   UNL     1      -8.698   5.618  65.071  1.00  0.00    -0.141 OA 
HETATM   17  O   UNL     1      -6.850   6.485  63.776  1.00  0.00    -0.042 OA 
ENDBRANCH   6   7
ENDBRANCH   5   6
ENDBRANCH   4   5
TORSDOF 3
ENDMDL
MODEL      253
REMARK 921   NORMALIZED FREE ENERGY PREDICTED BY IDOCK:   -1.88 KCAL/MOL
REMARK 922        TOTAL FREE ENERGY PREDICTED BY IDOCK:   -2.55 KCAL/MOL
REMARK 923 INTER-LIGAND FREE ENERGY PREDICTED BY IDOCK:   -2.38 KCAL/MOL
REMARK 924 INTRA-LIGAND FREE ENERGY PREDICTED BY IDOCK:   -0.17 KCAL/MOL
REMARK 927      BINDING AFFINITY PREDICTED BY RF-SCORE:    0.00 PKD
ROOT
HETATM    1  N   UNL     1      -9.793   2.581  71.490  1.00  0.00    -0.157 NA 
HETATM    2  H2  UNL     1      -9.134   2.589  70.712  1.00  0.00     0.000 HD 
HETATM    3  H1  UNL     1      -9.831   1.661  71.931  1.00  0.00     0.000 HD 
HETATM    4  C   UNL     1      -9.493   3.640  72.442  1.00  0.00    -0.128 C  
ENDROOT
BRANCH   4   5
HETATM    5  C   UNL     1      -9.436   5.018  71.783  1.00  0.00    -0.194 C  
BRANCH   5   6
HETATM    6  C   UNL     1      -8.990   4.984  70.314  1.00  0.00    -0.151 C  
BRANCH   6   7
HETATM    7  C   UNL     1      -9.091   6.324  69.516  1.00  0.00    -0.137 C  
HETATM    8  O   UNL     1      -9.455   7.373  70.488  1.00  0.00    -0.162 OA 
HETATM    9  P   UNL     1      -7.411   6.736  68.919  1.00  0.00    -0.098 P  
HETATM   10  P   UNL     1     -10.279   6.447  68.130  1.00  0.00    -0.214 P  
HETATM   11  H   UNL     1      -9.516   8.187  70.003  1.00  0.00     0.000 HD 
HETATM   12  O   UNL     1     -11.284   6.551  66.956  1.00  0.00    -0.397 OA 
HETATM   13  O   UNL     1     -11.534   6.159  69.150  1.00  0.00    -0.379 OA 
HETATM   14  O   UNL     1      -9.963   4.880  67.740  1.00  0.00    -0.161 OA 
HETATM   15  O   UNL     1      -5.990   7.084  68.413  1.00  0.00    -0.023 OA 
HETATM   16  O   UNL     1      -8.036   8.184  68.428  1.00  0.00    -0.124 OA 
HETATM   17  O   UNL     1      -7.013   7.296  70.430  1.00  0.00    -0.055 OA 
ENDBRANCH   6   7
ENDBRANCH   5   6
ENDBRANCH   4   5
TORSDOF 3
ENDMDL
MODEL      254
REMARK 921   NORMALIZED FREE ENERGY PREDICTED BY IDOCK:   -1.85 KCAL/MOL
REMARK 922        TOTAL FREE ENERGY PREDICTED BY IDOCK:   -2.52 KCAL/MOL
REMARK 923 INTER-LIGAND FREE ENERGY PREDICTED BY IDOCK:   -2.57 KCAL/MOL
REMARK 924 INTRA-LIGAND FREE ENERGY PREDICTED BY IDOCK:    0.05 KCAL/MOL
REMARK 927      BINDING AFFINITY PREDICTED BY RF-SCORE:    0.00 PKD
ROOT
HETATM    1  N   UNL     1     -11.442   4.552  65.120  1.00  0.00    -1.109 NA 
HETATM    2  H2  UNL     1     -11.329   5.552  65.289  1.00  0.00     0.000 HD 
HETATM    3  H1  UNL     1     -12.089   4.379  64.351  1.00  0.00     0.000 HD 
HETATM    4  C   UNL     1     -10.153   3.907  64.916  1.00  0.00    -0.182 C  
ENDROOT
BRANCH   4   5
HETATM    5  C   UNL     1      -9.182   4.165  66.069  1.00  0.00    -0.149 C  
BRANCH   5   6
HETATM    6  C   UNL     1      -9.468   5.460  66.842  1.00  0.00    -0.138 C  
BRANCH   6   7
HETATM    7  C   UNL     1      -8.301   6.037  67.706  1.00  0.00    -0.112 C  
HETATM    8  O   UNL     1      -7.383   4.917  67.985  1.00  0.00    -0.069 OA 
HETATM    9  P   UNL     1      -7.373   7.216  66.657  1.00  0.00    -0.087 P  
HETATM   10  P   UNL     1      -8.688   6.824  69.312  1.00  0.00    -0.134 P  
HETATM   11  H   UNL     1      -6.674   5.268  68.510  1.00  0.00     0.000 HD 
HETATM   12  O   UNL     1      -9.015   7.489  70.672  1.00  0.00    -0.152 OA 
HETATM   13  O   UNL     1      -9.326   5.417  69.872  1.00  0.00    -0.132 OA 
HETATM   14  O   UNL     1     -10.070   7.436  68.663  1.00  0.00    -0.168 OA 
HETATM   15  O   UNL     1      -6.587   8.212  65.771  1.00  0.00    -0.051 OA 
HETATM   16  O   UNL     1      -6.266   7.295  67.881  1.00  0.00    -0.042 OA 
HETATM   17  O   UNL     1      -6.613   5.945  65.906  1.00  0.00    -0.044 OA 
ENDBRANCH   6   7
ENDBRANCH   5   6
ENDBRANCH   4   5
TORSDOF 3
ENDMDL
MODEL      255
REMARK 921   NORMALIZED FREE ENERGY PREDICTED BY IDOCK:   -1.84 KCAL/MOL
REMARK 922        TOTAL FREE ENERGY PREDICTED BY IDOCK:   -2.51 KCAL/MOL
REMARK 923 INTER-LIGAND FREE ENERGY PREDICTED BY IDOCK:   -2.27 KCAL/MOL
REMARK 924 INTRA-LIGAND FREE ENERGY PREDICTED BY IDOCK:   -0.23 KCAL/MOL
REMARK 927      BINDING AFFINITY PREDICTED BY RF-SCORE:    0.00 PKD
ROOT
HETATM    1  N   UNL     1      -8.639   3.737  69.962  1.00  0.00    -0.063 NA 
HETATM    2  H2  UNL     1      -7.987   4.245  69.365  1.00  0.00     0.000 HD 
HETATM    3  H1  UNL     1      -8.202   2.904  70.359  1.00  0.00     0.000 HD 
HETATM    4  C   UNL     1      -9.203   4.608  70.983  1.00  0.00    -0.138 C  
ENDROOT
BRANCH   4   5
HETATM    5  C   UNL     1      -9.858   5.855  70.389  1.00  0.00    -0.231 C  
BRANCH   5   6
HETATM    6  C   UNL     1      -8.854   6.906  69.895  1.00  0.00    -0.142 C  
BRANCH   6   7
HETATM    7  C   UNL     1      -9.136   7.546  68.498  1.00  0.00    -0.134 C  
HETATM    8  O   UNL     1      -7.831   7.692  67.824  1.00  0.00    -0.115 OA 
HETATM    9  P   UNL     1     -10.089   6.329  67.518  1.00  0.00    -0.206 P  
HETATM   10  P   UNL     1      -9.963   9.176  68.416  1.00  0.00    -0.194 P  
HETATM   11  H   UNL     1      -8.003   8.081  66.975  1.00  0.00     0.000 HD 
HETATM   12  O   UNL     1     -10.664  10.556  68.346  1.00  0.00    -0.194 OA 
HETATM   13  O   UNL     1      -8.731   9.869  69.252  1.00  0.00    -0.144 OA 
HETATM   14  O   UNL     1     -10.885   8.757  69.712  1.00  0.00    -0.235 OA 
HETATM   15  O   UNL     1     -10.894   5.299  66.689  1.00  0.00    -0.258 OA 
HETATM   16  O   UNL     1      -9.894   7.345  66.230  1.00  0.00    -0.111 OA 
HETATM   17  O   UNL     1      -8.691   5.489  67.206  1.00  0.00    -0.110 OA 
ENDBRANCH   6   7
ENDBRANCH   5   6
ENDBRANCH   4   5
TORSDOF 3
ENDMDL
MODEL      256
REMARK 921   NORMALIZED FREE ENERGY PREDICTED BY IDOCK:   -1.83 KCAL/MOL
REMARK 922        TOTAL FREE ENERGY PREDICTED BY IDOCK:   -2.49 KCAL/MOL
REMARK 923 INTER-LIGAND FREE ENERGY PREDICTED BY IDOCK:   -2.31 KCAL/MOL
REMARK 924 INTRA-LIGAND FREE ENERGY PREDICTED BY IDOCK:   -0.18 KCAL/MOL
REMARK 927      BINDING AFFINITY PREDICTED BY RF-SCORE:    0.00 PKD
ROOT
HETATM    1  N   UNL     1     -10.046   3.728  65.657  1.00  0.00    -0.417 NA 
HETATM    2  H2  UNL     1     -10.703   4.504  65.724  1.00  0.00     0.000 HD 
HETATM    3  H1  UNL     1     -10.481   2.913  65.226  1.00  0.00     0.000 HD 
HETATM    4  C   UNL     1      -8.825   4.132  64.975  1.00  0.00    -0.131 C  
ENDROOT
BRANCH   4   5
HETATM    5  C   UNL     1      -8.172   5.353  65.622  1.00  0.00    -0.124 C  
BRANCH   5   6
HETATM    6  C   UNL     1      -9.158   6.482  65.951  1.00  0.00    -0.065 C  
BRANCH   6   7
HETATM    7  C   UNL     1      -8.995   7.177  67.340  1.00  0.00    -0.122 C  
HETATM    8  O   UNL     1      -7.549   7.388  67.545  1.00  0.00    -0.101 OA 
HETATM    9  P   UNL     1      -9.746   8.842  67.214  1.00  0.00    -0.216 P  
HETATM   10  P   UNL     1      -9.627   6.335  68.837  1.00  0.00    -0.129 P  
HETATM   11  H   UNL     1      -7.450   7.811  68.390  1.00  0.00     0.000 HD 
HETATM   12  O   UNL     1     -10.163   5.622  70.103  1.00  0.00    -0.208 OA 
HETATM   13  O   UNL     1      -8.614   5.068  68.579  1.00  0.00    -0.094 OA 
HETATM   14  O   UNL     1     -10.898   5.767  67.961  1.00  0.00    -0.242 OA 
HETATM   15  O   UNL     1     -10.380  10.250  67.107  1.00  0.00    -0.212 OA 
HETATM   16  O   UNL     1      -9.123   9.140  68.715  1.00  0.00    -0.135 OA 
HETATM   17  O   UNL     1      -8.392   9.390  66.424  1.00  0.00    -0.113 OA 
ENDBRANCH   6   7
ENDBRANCH   5   6
ENDBRANCH   4   5
TORSDOF 3
ENDMDL
MODEL      257
REMARK 921   NORMALIZED FREE ENERGY PREDICTED BY IDOCK:   -1.80 KCAL/MOL
REMARK 922        TOTAL FREE ENERGY PREDICTED BY IDOCK:   -2.46 KCAL/MOL
REMARK 923 INTER-LIGAND FREE ENERGY PREDICTED BY IDOCK:   -2.28 KCAL/MOL
REMARK 924 INTRA-LIGAND FREE ENERGY PREDICTED BY IDOCK:   -0.18 KCAL/MOL
REMARK 927      BINDING AFFINITY PREDICTED BY RF-SCORE:    0.00 PKD
ROOT
HETATM    1  N   UNL     1      -9.473  10.361  68.992  1.00  0.00    -0.188 NA 
HETATM    2  H2  UNL     1      -9.395  10.442  70.005  1.00  0.00     0.000 HD 
HETATM    3  H1  UNL     1      -9.631  11.271  68.560  1.00  0.00     0.000 HD 
HETATM    4  C   UNL     1      -8.320   9.672  68.430  1.00  0.00    -0.117 C  
ENDROOT
BRANCH   4   5
HETATM    5  C   UNL     1      -8.084   8.307  69.076  1.00  0.00    -0.117 C  
BRANCH   5   6
HETATM    6  C   UNL     1      -9.319   7.395  69.067  1.00  0.00    -0.145 C  
BRANCH   6   7
HETATM    7  C   UNL     1      -9.491   6.430  70.284  1.00  0.00    -0.161 C  
HETATM    8  O   UNL     1      -9.580   5.063  69.735  1.00  0.00    -0.138 OA 
HETATM    9  P   UNL     1      -7.942   6.494  71.259  1.00  0.00    -0.109 P  
HETATM   10  P   UNL     1     -10.923   6.652  71.401  1.00  0.00    -0.273 P  
HETATM   11  H   UNL     1      -9.685   4.477  70.476  1.00  0.00     0.000 HD 
HETATM   12  O   UNL     1     -12.136   6.839  72.346  1.00  0.00    -0.206 OA 
HETATM   13  O   UNL     1     -11.962   6.381  70.157  1.00  0.00    -0.354 OA 
HETATM   14  O   UNL     1     -10.797   8.281  71.215  1.00  0.00    -0.226 OA 
HETATM   15  O   UNL     1      -6.633   6.547  72.082  1.00  0.00    -0.057 OA 
HETATM   16  O   UNL     1      -8.557   5.247  72.152  1.00  0.00    -0.124 OA 
HETATM   17  O   UNL     1      -7.211   5.489  70.158  1.00  0.00    -0.063 OA 
ENDBRANCH   6   7
ENDBRANCH   5   6
ENDBRANCH   4   5
TORSDOF 3
ENDMDL
MODEL      258
REMARK 921   NORMALIZED FREE ENERGY PREDICTED BY IDOCK:   -1.76 KCAL/MOL
REMARK 922        TOTAL FREE ENERGY PREDICTED BY IDOCK:   -2.41 KCAL/MOL
REMARK 923 INTER-LIGAND FREE ENERGY PREDICTED BY IDOCK:   -2.57 KCAL/MOL
REMARK 924 INTRA-LIGAND FREE ENERGY PREDICTED BY IDOCK:    0.17 KCAL/MOL
REMARK 927      BINDING AFFINITY PREDICTED BY RF-SCORE:    0.00 PKD
ROOT
HETATM    1  N   UNL     1      -9.092   4.692  74.138  1.00  0.00    -0.111 NA 
HETATM    2  H2  UNL     1      -9.111   5.683  74.376  1.00  0.00     0.000 HD 
HETATM    3  H1  UNL     1      -8.688   4.139  74.894  1.00  0.00     0.000 HD 
HETATM    4  C   UNL     1     -10.414   4.220  73.751  1.00  0.00    -0.212 C  
ENDROOT
BRANCH   4   5
HETATM    5  C   UNL     1     -11.020   5.048  72.618  1.00  0.00    -0.280 C  
BRANCH   5   6
HETATM    6  C   UNL     1     -10.447   6.468  72.512  1.00  0.00    -0.229 C  
BRANCH   6   7
HETATM    7  C   UNL     1      -9.595   6.791  71.243  1.00  0.00    -0.169 C  
HETATM    8  O   UNL     1      -8.204   6.409  71.554  1.00  0.00    -0.115 OA 
HETATM    9  P   UNL     1     -10.151   5.669  69.908  1.00  0.00    -0.270 P  
HETATM   10  P   UNL     1      -9.548   8.510  70.616  1.00  0.00    -0.195 P  
HETATM   11  H   UNL     1      -7.686   6.605  70.782  1.00  0.00     0.000 HD 
HETATM   12  O   UNL     1      -9.509   9.964  70.084  1.00  0.00    -0.237 OA 
HETATM   13  O   UNL     1      -8.898   9.032  72.030  1.00  0.00    -0.373 OA 
HETATM   14  O   UNL     1     -11.129   8.689  71.034  1.00  0.00    -0.244 OA 
HETATM   15  O   UNL     1     -10.622   4.720  68.779  1.00  0.00     0.089 OA 
HETATM   16  O   UNL     1      -8.883   6.242  69.018  1.00  0.00    -0.124 OA 
HETATM   17  O   UNL     1      -9.266   4.436  70.579  1.00  0.00    -0.105 OA 
ENDBRANCH   6   7
ENDBRANCH   5   6
ENDBRANCH   4   5
TORSDOF 3
ENDMDL
MODEL      259
REMARK 921   NORMALIZED FREE ENERGY PREDICTED BY IDOCK:   -1.72 KCAL/MOL
REMARK 922        TOTAL FREE ENERGY PREDICTED BY IDOCK:   -2.37 KCAL/MOL
REMARK 923 INTER-LIGAND FREE ENERGY PREDICTED BY IDOCK:   -2.23 KCAL/MOL
REMARK 924 INTRA-LIGAND FREE ENERGY PREDICTED BY IDOCK:   -0.14 KCAL/MOL
REMARK 927      BINDING AFFINITY PREDICTED BY RF-SCORE:    0.00 PKD
ROOT
HETATM    1  N   UNL     1      -9.529   9.280  65.379  1.00  0.00    -0.397 NA 
HETATM    2  H2  UNL     1     -10.426   9.120  64.920  1.00  0.00     0.000 HD 
HETATM    3  H1  UNL     1      -9.090  10.136  65.040  1.00  0.00     0.000 HD 
HETATM    4  C   UNL     1      -9.672   9.266  66.828  1.00  0.00    -0.200 C  
ENDROOT
BRANCH   4   5
HETATM    5  C   UNL     1     -10.330   7.983  67.337  1.00  0.00    -0.354 C  
BRANCH   5   6
HETATM    6  C   UNL     1      -9.452   7.178  68.305  1.00  0.00    -0.133 C  
BRANCH   6   7
HETATM    7  C   UNL     1      -9.531   5.621  68.199  1.00  0.00    -0.110 C  
HETATM    8  O   UNL     1     -10.641   5.312  67.277  1.00  0.00    -0.209 OA 
HETATM    9  P   UNL     1      -8.000   5.049  67.374  1.00  0.00    -0.095 P  
HETATM   10  P   UNL     1      -9.809   4.638  69.718  1.00  0.00    -0.169 P  
HETATM   11  H   UNL     1     -10.688   4.365  67.213  1.00  0.00     0.000 HD 
HETATM   12  O   UNL     1     -10.045   3.806  71.003  1.00  0.00    -0.119 OA 
HETATM   13  O   UNL     1     -11.252   5.384  69.962  1.00  0.00    -0.034 OA 
HETATM   14  O   UNL     1      -8.879   5.703  70.559  1.00  0.00    -0.134 OA 
HETATM   15  O   UNL     1      -6.706   4.565  66.676  1.00  0.00    -0.049 OA 
HETATM   16  O   UNL     1      -8.690   3.548  67.331  1.00  0.00    -0.101 OA 
HETATM   17  O   UNL     1      -8.627   5.499  65.904  1.00  0.00    -0.130 OA 
ENDBRANCH   6   7
ENDBRANCH   5   6
ENDBRANCH   4   5
TORSDOF 3
ENDMDL
MODEL      260
REMARK 921   NORMALIZED FREE ENERGY PREDICTED BY IDOCK:   -1.72 KCAL/MOL
REMARK 922        TOTAL FREE ENERGY PREDICTED BY IDOCK:   -2.37 KCAL/MOL
REMARK 923 INTER-LIGAND FREE ENERGY PREDICTED BY IDOCK:   -2.38 KCAL/MOL
REMARK 924 INTRA-LIGAND FREE ENERGY PREDICTED BY IDOCK:    0.02 KCAL/MOL
REMARK 927      BINDING AFFINITY PREDICTED BY RF-SCORE:    0.00 PKD
ROOT
HETATM    1  N   UNL     1      -9.441   5.054  64.483  1.00  0.00    -0.355 NA 
HETATM    2  H2  UNL     1     -10.179   5.697  64.198  1.00  0.00     0.000 HD 
HETATM    3  H1  UNL     1      -9.025   4.590  63.676  1.00  0.00     0.000 HD 
HETATM    4  C   UNL     1      -8.449   5.727  65.309  1.00  0.00    -0.148 C  
ENDROOT
BRANCH   4   5
HETATM    5  C   UNL     1      -9.072   6.422  66.519  1.00  0.00    -0.162 C  
BRANCH   5   6
HETATM    6  C   UNL     1      -8.486   5.969  67.864  1.00  0.00    -0.115 C  
BRANCH   6   7
HETATM    7  C   UNL     1      -9.383   5.044  68.748  1.00  0.00    -0.130 C  
HETATM    8  O   UNL     1     -10.123   4.161  67.826  1.00  0.00    -0.033 OA 
HETATM    9  P   UNL     1      -8.270   3.962  69.717  1.00  0.00    -0.053 P  
HETATM   10  P   UNL     1     -10.618   5.805  69.863  1.00  0.00    -0.322 P  
HETATM   11  H   UNL     1     -10.668   3.598  68.364  1.00  0.00     0.000 HD 
HETATM   12  O   UNL     1     -11.664   6.449  70.808  1.00  0.00    -0.366 OA 
HETATM   13  O   UNL     1     -11.388   6.488  68.583  1.00  0.00    -0.265 OA 
HETATM   14  O   UNL     1      -9.570   7.038  70.159  1.00  0.00    -0.165 OA 
HETATM   15  O   UNL     1      -7.328   3.047  70.537  1.00  0.00    -0.037 OA 
HETATM   16  O   UNL     1      -9.625   3.153  70.204  1.00  0.00    -0.169 OA 
HETATM   17  O   UNL     1      -8.043   3.003  68.382  1.00  0.00    -0.064 OA 
ENDBRANCH   6   7
ENDBRANCH   5   6
ENDBRANCH   4   5
TORSDOF 3
ENDMDL
MODEL      261
REMARK 921   NORMALIZED FREE ENERGY PREDICTED BY IDOCK:   -1.70 KCAL/MOL
REMARK 922        TOTAL FREE ENERGY PREDICTED BY IDOCK:   -2.34 KCAL/MOL
REMARK 923 INTER-LIGAND FREE ENERGY PREDICTED BY IDOCK:   -2.10 KCAL/MOL
REMARK 924 INTRA-LIGAND FREE ENERGY PREDICTED BY IDOCK:   -0.24 KCAL/MOL
REMARK 927      BINDING AFFINITY PREDICTED BY RF-SCORE:    0.00 PKD
ROOT
HETATM    1  N   UNL     1      -5.759  11.219  62.423  1.00  0.00    -0.342 NA 
HETATM    2  H2  UNL     1      -6.189  12.064  62.799  1.00  0.00     0.000 HD 
HETATM    3  H1  UNL     1      -4.789  11.387  62.157  1.00  0.00     0.000 HD 
HETATM    4  C   UNL     1      -5.896  10.104  63.349  1.00  0.00    -0.142 C  
ENDROOT
BRANCH   4   5
HETATM    5  C   UNL     1      -7.350   9.853  63.748  1.00  0.00    -0.130 C  
BRANCH   5   6
HETATM    6  C   UNL     1      -7.525   8.718  64.768  1.00  0.00    -0.100 C  
BRANCH   6   7
HETATM    7  C   UNL     1      -7.881   9.136  66.231  1.00  0.00    -0.103 C  
HETATM    8  O   UNL     1      -8.066  10.599  66.224  1.00  0.00    -0.139 OA 
HETATM    9  P   UNL     1      -9.514   8.411  66.628  1.00  0.00    -0.239 P  
HETATM   10  P   UNL     1      -6.701   8.754  67.577  1.00  0.00    -0.067 P  
HETATM   11  H   UNL     1      -8.283  10.853  67.114  1.00  0.00     0.000 HD 
HETATM   12  O   UNL     1      -5.702   8.431  68.716  1.00  0.00    -0.038 OA 
HETATM   13  O   UNL     1      -5.549   9.680  66.859  1.00  0.00    -0.045 OA 
HETATM   14  O   UNL     1      -6.327   7.339  66.828  1.00  0.00    -0.044 OA 
HETATM   15  O   UNL     1     -10.895   7.797  66.963  1.00  0.00    -0.316 OA 
HETATM   16  O   UNL     1      -9.466   9.290  68.025  1.00  0.00    -0.137 OA 
HETATM   17  O   UNL     1     -10.257   9.618  65.764  1.00  0.00    -0.261 OA 
ENDBRANCH   6   7
ENDBRANCH   5   6
ENDBRANCH   4   5
TORSDOF 3
ENDMDL
MODEL      262
REMARK 921   NORMALIZED FREE ENERGY PREDICTED BY IDOCK:   -1.68 KCAL/MOL
REMARK 922        TOTAL FREE ENERGY PREDICTED BY IDOCK:   -2.32 KCAL/MOL
REMARK 923 INTER-LIGAND FREE ENERGY PREDICTED BY IDOCK:   -2.04 KCAL/MOL
REMARK 924 INTRA-LIGAND FREE ENERGY PREDICTED BY IDOCK:   -0.29 KCAL/MOL
REMARK 927      BINDING AFFINITY PREDICTED BY RF-SCORE:    0.00 PKD
ROOT
HETATM    1  N   UNL     1      -8.082   5.434  71.373  1.00  0.00    -0.114 NA 
HETATM    2  H2  UNL     1      -7.952   6.438  71.254  1.00  0.00     0.000 HD 
HETATM    3  H1  UNL     1      -7.827   5.139  72.316  1.00  0.00     0.000 HD 
HETATM    4  C   UNL     1      -9.435   5.034  71.014  1.00  0.00    -0.162 C  
ENDROOT
BRANCH   4   5
HETATM    5  C   UNL     1      -9.818   5.476  69.601  1.00  0.00    -0.258 C  
BRANCH   5   6
HETATM    6  C   UNL     1      -9.381   6.907  69.260  1.00  0.00    -0.144 C  
BRANCH   6   7
HETATM    7  C   UNL     1      -8.461   7.083  68.009  1.00  0.00    -0.125 C  
HETATM    8  O   UNL     1      -7.200   7.681  68.488  1.00  0.00    -0.081 OA 
HETATM    9  P   UNL     1      -8.038   5.409  67.399  1.00  0.00    -0.099 P  
HETATM   10  P   UNL     1      -9.043   8.112  66.612  1.00  0.00    -0.186 P  
HETATM   11  H   UNL     1      -6.640   7.787  67.728  1.00  0.00     0.000 HD 
HETATM   12  O   UNL     1      -9.536   8.982  65.430  1.00  0.00    -0.211 OA 
HETATM   13  O   UNL     1      -9.131   9.428  67.590  1.00  0.00    -0.122 OA 
HETATM   14  O   UNL     1     -10.573   7.562  66.865  1.00  0.00    -0.332 OA 
HETATM   15  O   UNL     1      -7.680   3.994  66.884  1.00  0.00    -0.086 OA 
HETATM   16  O   UNL     1      -6.988   6.149  66.360  1.00  0.00    -0.063 OA 
HETATM   17  O   UNL     1      -6.908   5.257  68.606  1.00  0.00    -0.052 OA 
ENDBRANCH   6   7
ENDBRANCH   5   6
ENDBRANCH   4   5
TORSDOF 3
ENDMDL
MODEL      263
REMARK 921   NORMALIZED FREE ENERGY PREDICTED BY IDOCK:   -1.63 KCAL/MOL
REMARK 922        TOTAL FREE ENERGY PREDICTED BY IDOCK:   -2.26 KCAL/MOL
REMARK 923 INTER-LIGAND FREE ENERGY PREDICTED BY IDOCK:   -2.20 KCAL/MOL
REMARK 924 INTRA-LIGAND FREE ENERGY PREDICTED BY IDOCK:   -0.06 KCAL/MOL
REMARK 927      BINDING AFFINITY PREDICTED BY RF-SCORE:    0.00 PKD
ROOT
HETATM    1  N   UNL     1      -8.226  10.663  69.704  1.00  0.00    -0.382 NA 
HETATM    2  H2  UNL     1      -8.954  10.758  70.412  1.00  0.00     0.000 HD 
HETATM    3  H1  UNL     1      -7.836  11.571  69.452  1.00  0.00     0.000 HD 
HETATM    4  C   UNL     1      -7.203   9.718  70.129  1.00  0.00    -0.145 C  
ENDROOT
BRANCH   4   5
HETATM    5  C   UNL     1      -7.787   8.356  70.508  1.00  0.00    -0.089 C  
BRANCH   5   6
HETATM    6  C   UNL     1      -7.321   7.209  69.601  1.00  0.00    -0.085 C  
BRANCH   6   7
HETATM    7  C   UNL     1      -8.436   6.373  68.894  1.00  0.00    -0.121 C  
HETATM    8  O   UNL     1      -8.268   4.976  69.338  1.00  0.00    -0.081 OA 
HETATM    9  P   UNL     1     -10.047   6.934  69.557  1.00  0.00    -0.184 P  
HETATM   10  P   UNL     1      -8.504   6.347  67.065  1.00  0.00    -0.114 P  
HETATM   11  H   UNL     1      -8.946   4.468  68.908  1.00  0.00     0.000 HD 
HETATM   12  O   UNL     1      -8.563   6.325  65.518  1.00  0.00    -0.150 OA 
HETATM   13  O   UNL     1      -7.003   5.685  66.996  1.00  0.00    -0.062 OA 
HETATM   14  O   UNL     1      -8.039   7.924  67.041  1.00  0.00    -0.113 OA 
HETATM   15  O   UNL     1     -11.409   7.409  70.118  1.00  0.00    -0.255 OA 
HETATM   16  O   UNL     1     -10.727   5.680  68.725  1.00  0.00    -0.241 OA 
HETATM   17  O   UNL     1      -9.795   6.032  70.928  1.00  0.00    -0.178 OA 
ENDBRANCH   6   7
ENDBRANCH   5   6
ENDBRANCH   4   5
TORSDOF 3
ENDMDL
MODEL      264
REMARK 921   NORMALIZED FREE ENERGY PREDICTED BY IDOCK:   -1.58 KCAL/MOL
REMARK 922        TOTAL FREE ENERGY PREDICTED BY IDOCK:   -2.20 KCAL/MOL
REMARK 923 INTER-LIGAND FREE ENERGY PREDICTED BY IDOCK:   -2.00 KCAL/MOL
REMARK 924 INTRA-LIGAND FREE ENERGY PREDICTED BY IDOCK:   -0.20 KCAL/MOL
REMARK 927      BINDING AFFINITY PREDICTED BY RF-SCORE:    0.00 PKD
ROOT
HETATM    1  N   UNL     1     -10.361   5.793  71.478  1.00  0.00    -0.213 NA 
HETATM    2  H2  UNL     1     -10.731   6.693  71.173  1.00  0.00     0.000 HD 
HETATM    3  H1  UNL     1     -11.069   5.252  71.974  1.00  0.00     0.000 HD 
HETATM    4  C   UNL     1      -9.782   5.058  70.363  1.00  0.00    -0.209 C  
ENDROOT
BRANCH   4   5
HETATM    5  C   UNL     1      -8.719   5.868  69.620  1.00  0.00    -0.128 C  
BRANCH   5   6
HETATM    6  C   UNL     1      -9.235   6.540  68.339  1.00  0.00    -0.121 C  
BRANCH   6   7
HETATM    7  C   UNL     1      -8.597   6.071  66.992  1.00  0.00    -0.107 C  
HETATM    8  O   UNL     1      -7.521   5.122  67.337  1.00  0.00    -0.081 OA 
HETATM    9  P   UNL     1      -9.865   5.109  66.089  1.00  0.00    -0.164 P  
HETATM   10  P   UNL     1      -7.866   7.320  65.872  1.00  0.00    -0.119 P  
HETATM   11  H   UNL     1      -7.134   4.837  66.518  1.00  0.00     0.000 HD 
HETATM   12  O   UNL     1      -7.248   8.377  64.923  1.00  0.00    -0.081 OA 
HETATM   13  O   UNL     1      -6.785   7.758  67.028  1.00  0.00    -0.064 OA 
HETATM   14  O   UNL     1      -9.059   8.373  66.292  1.00  0.00    -0.170 OA 
HETATM   15  O   UNL     1     -10.937   4.294  65.325  1.00  0.00    -0.202 OA 
HETATM   16  O   UNL     1      -8.676   4.725  65.007  1.00  0.00    -0.136 OA 
HETATM   17  O   UNL     1      -9.557   3.797  67.059  1.00  0.00    -0.206 OA 
ENDBRANCH   6   7
ENDBRANCH   5   6
ENDBRANCH   4   5
TORSDOF 3
ENDMDL
MODEL      265
REMARK 921   NORMALIZED FREE ENERGY PREDICTED BY IDOCK:   -1.58 KCAL/MOL
REMARK 922        TOTAL FREE ENERGY PREDICTED BY IDOCK:   -2.20 KCAL/MOL
REMARK 923 INTER-LIGAND FREE ENERGY PREDICTED BY IDOCK:   -1.63 KCAL/MOL
REMARK 924 INTRA-LIGAND FREE ENERGY PREDICTED BY IDOCK:   -0.58 KCAL/MOL
REMARK 927      BINDING AFFINITY PREDICTED BY RF-SCORE:    0.00 PKD
ROOT
HETATM    1  N   UNL     1      -9.528   9.103  70.692  1.00  0.00    -0.240 NA 
HETATM    2  H2  UNL     1     -10.040   9.259  71.560  1.00  0.00     0.000 HD 
HETATM    3  H1  UNL     1      -9.889   9.692  69.941  1.00  0.00     0.000 HD 
HETATM    4  C   UNL     1      -8.096   9.272  70.890  1.00  0.00    -0.124 C  
ENDROOT
BRANCH   4   5
HETATM    5  C   UNL     1      -7.554   8.389  72.015  1.00  0.00    -0.152 C  
BRANCH   5   6
HETATM    6  C   UNL     1      -7.226   6.956  71.574  1.00  0.00    -0.079 C  
BRANCH   6   7
HETATM    7  C   UNL     1      -8.106   5.815  72.179  1.00  0.00    -0.108 C  
HETATM    8  O   UNL     1      -9.291   6.460  72.776  1.00  0.00    -0.142 OA 
HETATM    9  P   UNL     1      -8.720   4.798  70.786  1.00  0.00    -0.114 P  
HETATM   10  P   UNL     1      -7.390   4.724  73.462  1.00  0.00    -0.084 P  
HETATM   11  H   UNL     1      -9.826   5.766  73.143  1.00  0.00     0.000 HD 
HETATM   12  O   UNL     1      -6.784   3.801  74.548  1.00  0.00    -0.039 OA 
HETATM   13  O   UNL     1      -7.155   6.010  74.456  1.00  0.00    -0.090 OA 
HETATM   14  O   UNL     1      -5.940   4.791  72.688  1.00  0.00    -0.015 OA 
HETATM   15  O   UNL     1      -9.238   3.938  69.609  1.00  0.00    -0.118 OA 
HETATM   16  O   UNL     1      -9.662   4.011  71.892  1.00  0.00    -0.149 OA 
HETATM   17  O   UNL     1      -9.872   5.946  70.458  1.00  0.00    -0.173 OA 
ENDBRANCH   6   7
ENDBRANCH   5   6
ENDBRANCH   4   5
TORSDOF 3
ENDMDL
MODEL      266
REMARK 921   NORMALIZED FREE ENERGY PREDICTED BY IDOCK:   -1.55 KCAL/MOL
REMARK 922        TOTAL FREE ENERGY PREDICTED BY IDOCK:   -2.16 KCAL/MOL
REMARK 923 INTER-LIGAND FREE ENERGY PREDICTED BY IDOCK:   -2.18 KCAL/MOL
REMARK 924 INTRA-LIGAND FREE ENERGY PREDICTED BY IDOCK:    0.02 KCAL/MOL
REMARK 927      BINDING AFFINITY PREDICTED BY RF-SCORE:    0.00 PKD
ROOT
HETATM    1  N   UNL     1     -10.122   6.007  71.567  1.00  0.00    -0.188 NA 
HETATM    2  H2  UNL     1     -10.599   6.879  71.795  1.00  0.00     0.000 HD 
HETATM    3  H1  UNL     1     -10.790   5.260  71.378  1.00  0.00     0.000 HD 
HETATM    4  C   UNL     1      -9.178   6.197  70.475  1.00  0.00    -0.157 C  
ENDROOT
BRANCH   4   5
HETATM    5  C   UNL     1      -8.175   7.316  70.757  1.00  0.00    -0.112 C  
BRANCH   5   6
HETATM    6  C   UNL     1      -8.773   8.726  70.647  1.00  0.00    -0.208 C  
BRANCH   6   7
HETATM    7  C   UNL     1      -8.312   9.593  69.432  1.00  0.00    -0.145 C  
HETATM    8  O   UNL     1      -7.716  10.823  69.987  1.00  0.00    -0.367 OA 
HETATM    9  P   UNL     1      -6.955   8.692  68.597  1.00  0.00    -0.065 P  
HETATM   10  P   UNL     1      -9.552  10.115  68.191  1.00  0.00    -0.143 P  
HETATM   11  H   UNL     1      -7.435  11.349  69.248  1.00  0.00     0.000 HD 
HETATM   12  O   UNL     1     -10.601  10.556  67.140  1.00  0.00    -0.237 OA 
HETATM   13  O   UNL     1     -10.391  10.935  69.340  1.00  0.00    -0.212 OA 
HETATM   14  O   UNL     1     -10.315   8.668  68.367  1.00  0.00    -0.203 OA 
HETATM   15  O   UNL     1      -5.807   7.930  67.892  1.00  0.00    -0.038 OA 
HETATM   16  O   UNL     1      -6.748  10.042  67.669  1.00  0.00    -0.073 OA 
HETATM   17  O   UNL     1      -5.898   9.203  69.771  1.00  0.00    -0.032 OA 
ENDBRANCH   6   7
ENDBRANCH   5   6
ENDBRANCH   4   5
TORSDOF 3
ENDMDL
MODEL      267
REMARK 921   NORMALIZED FREE ENERGY PREDICTED BY IDOCK:   -1.52 KCAL/MOL
REMARK 922        TOTAL FREE ENERGY PREDICTED BY IDOCK:   -2.13 KCAL/MOL
REMARK 923 INTER-LIGAND FREE ENERGY PREDICTED BY IDOCK:   -1.85 KCAL/MOL
REMARK 924 INTRA-LIGAND FREE ENERGY PREDICTED BY IDOCK:   -0.29 KCAL/MOL
REMARK 927      BINDING AFFINITY PREDICTED BY RF-SCORE:    0.00 PKD
ROOT
HETATM    1  N   UNL     1      -6.688   4.814  64.382  1.00  0.00    -0.043 NA 
HETATM    2  H2  UNL     1      -6.859   5.732  63.974  1.00  0.00     0.000 HD 
HETATM    3  H1  UNL     1      -6.330   4.161  63.684  1.00  0.00     0.000 HD 
HETATM    4  C   UNL     1      -5.822   4.911  65.548  1.00  0.00    -0.018 C  
ENDROOT
BRANCH   4   5
HETATM    5  C   UNL     1      -6.359   5.888  66.594  1.00  0.00    -0.041 C  
BRANCH   5   6
HETATM    6  C   UNL     1      -6.880   7.205  66.002  1.00  0.00    -0.057 C  
BRANCH   6   7
HETATM    7  C   UNL     1      -8.373   7.564  66.287  1.00  0.00    -0.134 C  
HETATM    8  O   UNL     1      -9.016   7.787  64.978  1.00  0.00    -0.373 OA 
HETATM    9  P   UNL     1      -9.168   6.078  67.004  1.00  0.00    -0.128 P  
HETATM   10  P   UNL     1      -8.757   9.021  67.326  1.00  0.00    -0.116 P  
HETATM   11  H   UNL     1      -9.924   8.005  65.152  1.00  0.00     0.000 HD 
HETATM   12  O   UNL     1      -9.081  10.254  68.204  1.00  0.00    -0.133 OA 
HETATM   13  O   UNL     1      -8.006  10.011  66.251  1.00  0.00    -0.107 OA 
HETATM   14  O   UNL     1      -7.442   8.686  68.255  1.00  0.00    -0.092 OA 
HETATM   15  O   UNL     1      -9.839   4.822  67.610  1.00  0.00    -0.164 OA 
HETATM   16  O   UNL     1     -10.600   6.891  66.876  1.00  0.00    -0.288 OA 
HETATM   17  O   UNL     1      -9.285   5.412  65.488  1.00  0.00    -0.152 OA 
ENDBRANCH   6   7
ENDBRANCH   5   6
ENDBRANCH   4   5
TORSDOF 3
ENDMDL
MODEL      268
REMARK 921   NORMALIZED FREE ENERGY PREDICTED BY IDOCK:   -1.49 KCAL/MOL
REMARK 922        TOTAL FREE ENERGY PREDICTED BY IDOCK:   -2.10 KCAL/MOL
REMARK 923 INTER-LIGAND FREE ENERGY PREDICTED BY IDOCK:   -1.94 KCAL/MOL
REMARK 924 INTRA-LIGAND FREE ENERGY PREDICTED BY IDOCK:   -0.16 KCAL/MOL
REMARK 927      BINDING AFFINITY PREDICTED BY RF-SCORE:    0.00 PKD
ROOT
HETATM    1  N   UNL     1     -12.995   9.735  70.010  1.00  0.00    -0.109 NA 
HETATM    2  H2  UNL     1     -13.106   9.001  70.708  1.00  0.00     0.000 HD 
HETATM    3  H1  UNL     1     -13.807  10.352  69.990  1.00  0.00     0.000 HD 
HETATM    4  C   UNL     1     -11.750  10.464  70.210  1.00  0.00    -0.321 C  
ENDROOT
BRANCH   4   5
HETATM    5  C   UNL     1     -10.532   9.541  70.239  1.00  0.00    -0.319 C  
BRANCH   5   6
HETATM    6  C   UNL     1      -9.578   9.736  69.052  1.00  0.00    -0.177 C  
BRANCH   6   7
HETATM    7  C   UNL     1      -8.592   8.564  68.741  1.00  0.00    -0.131 C  
HETATM    8  O   UNL     1      -9.061   7.396  69.512  1.00  0.00    -0.144 OA 
HETATM    9  P   UNL     1      -8.793   8.130  66.974  1.00  0.00    -0.141 P  
HETATM   10  P   UNL     1      -6.814   8.773  69.119  1.00  0.00    -0.056 P  
HETATM   11  H   UNL     1      -8.462   6.684  69.322  1.00  0.00     0.000 HD 
HETATM   12  O   UNL     1      -5.309   8.950  69.439  1.00  0.00    -0.034 OA 
HETATM   13  O   UNL     1      -7.155   8.979  70.713  1.00  0.00    -0.071 OA 
HETATM   14  O   UNL     1      -6.921  10.353  68.677  1.00  0.00    -0.063 OA 
HETATM   15  O   UNL     1      -8.964   7.764  65.480  1.00  0.00    -0.078 OA 
HETATM   16  O   UNL     1      -7.804   6.841  67.269  1.00  0.00    -0.106 OA 
HETATM   17  O   UNL     1     -10.178   7.292  67.340  1.00  0.00    -0.189 OA 
ENDBRANCH   6   7
ENDBRANCH   5   6
ENDBRANCH   4   5
TORSDOF 3
ENDMDL
MODEL      269
REMARK 921   NORMALIZED FREE ENERGY PREDICTED BY IDOCK:   -1.49 KCAL/MOL
REMARK 922        TOTAL FREE ENERGY PREDICTED BY IDOCK:   -2.09 KCAL/MOL
REMARK 923 INTER-LIGAND FREE ENERGY PREDICTED BY IDOCK:   -1.81 KCAL/MOL
REMARK 924 INTRA-LIGAND FREE ENERGY PREDICTED BY IDOCK:   -0.28 KCAL/MOL
REMARK 927      BINDING AFFINITY PREDICTED BY RF-SCORE:    0.00 PKD
ROOT
HETATM    1  N   UNL     1      -9.186   4.146  70.831  1.00  0.00    -0.121 NA 
HETATM    2  H2  UNL     1      -8.376   4.757  70.732  1.00  0.00     0.000 HD 
HETATM    3  H1  UNL     1      -9.030   3.439  71.549  1.00  0.00     0.000 HD 
HETATM    4  C   UNL     1     -10.399   4.917  71.065  1.00  0.00    -0.147 C  
ENDROOT
BRANCH   4   5
HETATM    5  C   UNL     1     -10.634   5.976  69.988  1.00  0.00    -0.340 C  
BRANCH   5   6
HETATM    6  C   UNL     1      -9.485   6.984  69.848  1.00  0.00    -0.157 C  
BRANCH   6   7
HETATM    7  C   UNL     1      -9.091   7.406  68.396  1.00  0.00    -0.132 C  
HETATM    8  O   UNL     1     -10.057   6.759  67.487  1.00  0.00    -0.146 OA 
HETATM    9  P   UNL     1      -9.374   9.208  68.251  1.00  0.00    -0.135 P  
HETATM   10  P   UNL     1      -7.419   6.999  67.774  1.00  0.00    -0.102 P  
HETATM   11  H   UNL     1      -9.817   7.016  66.604  1.00  0.00     0.000 HD 
HETATM   12  O   UNL     1      -6.003   6.655  67.247  1.00  0.00    -0.016 OA 
HETATM   13  O   UNL     1      -7.713   5.395  67.967  1.00  0.00    -0.089 OA 
HETATM   14  O   UNL     1      -6.808   7.281  69.275  1.00  0.00    -0.051 OA 
HETATM   15  O   UNL     1      -9.614  10.733  68.129  1.00  0.00    -0.153 OA 
HETATM   16  O   UNL     1      -9.058   9.039  66.639  1.00  0.00    -0.147 OA 
HETATM   17  O   UNL     1     -11.002   8.936  68.072  1.00  0.00    -0.073 OA 
ENDBRANCH   6   7
ENDBRANCH   5   6
ENDBRANCH   4   5
TORSDOF 3
ENDMDL
MODEL      270
REMARK 921   NORMALIZED FREE ENERGY PREDICTED BY IDOCK:   -1.49 KCAL/MOL
REMARK 922        TOTAL FREE ENERGY PREDICTED BY IDOCK:   -2.09 KCAL/MOL
REMARK 923 INTER-LIGAND FREE ENERGY PREDICTED BY IDOCK:   -1.91 KCAL/MOL
REMARK 924 INTRA-LIGAND FREE ENERGY PREDICTED BY IDOCK:   -0.18 KCAL/MOL
REMARK 927      BINDING AFFINITY PREDICTED BY RF-SCORE:    0.00 PKD
ROOT
HETATM    1  N   UNL     1      -9.891   5.180  72.336  1.00  0.00    -0.163 NA 
HETATM    2  H2  UNL     1      -9.335   4.325  72.350  1.00  0.00     0.000 HD 
HETATM    3  H1  UNL     1      -9.719   5.745  73.167  1.00  0.00     0.000 HD 
HETATM    4  C   UNL     1      -9.676   5.925  71.104  1.00  0.00    -0.174 C  
ENDROOT
BRANCH   4   5
HETATM    5  C   UNL     1      -9.935   5.079  69.857  1.00  0.00    -0.322 C  
BRANCH   5   6
HETATM    6  C   UNL     1      -8.680   4.821  69.012  1.00  0.00    -0.108 C  
BRANCH   6   7
HETATM    7  C   UNL     1      -8.876   4.748  67.464  1.00  0.00    -0.104 C  
HETATM    8  O   UNL     1     -10.308   4.991  67.203  1.00  0.00    -0.203 OA 
HETATM    9  P   UNL     1      -7.971   6.158  66.728  1.00  0.00    -0.106 P  
HETATM   10  P   UNL     1      -8.428   3.208  66.581  1.00  0.00    -0.121 P  
HETATM   11  H   UNL     1     -10.426   4.947  66.262  1.00  0.00     0.000 HD 
HETATM   12  O   UNL     1      -8.048   1.905  65.834  1.00  0.00    -0.076 OA 
HETATM   13  O   UNL     1      -9.531   2.360  67.454  1.00  0.00    -0.130 OA 
HETATM   14  O   UNL     1      -7.155   3.010  67.605  1.00  0.00    -0.049 OA 
HETATM   15  O   UNL     1      -7.205   7.351  66.106  1.00  0.00    -0.074 OA 
HETATM   16  O   UNL     1      -8.666   5.740  65.289  1.00  0.00    -0.151 OA 
HETATM   17  O   UNL     1      -9.210   7.175  67.158  1.00  0.00    -0.128 OA 
ENDBRANCH   6   7
ENDBRANCH   5   6
ENDBRANCH   4   5
TORSDOF 3
ENDMDL
MODEL      271
REMARK 921   NORMALIZED FREE ENERGY PREDICTED BY IDOCK:   -1.47 KCAL/MOL
REMARK 922        TOTAL FREE ENERGY PREDICTED BY IDOCK:   -2.08 KCAL/MOL
REMARK 923 INTER-LIGAND FREE ENERGY PREDICTED BY IDOCK:   -1.78 KCAL/MOL
REMARK 924 INTRA-LIGAND FREE ENERGY PREDICTED BY IDOCK:   -0.30 KCAL/MOL
REMARK 927      BINDING AFFINITY PREDICTED BY RF-SCORE:    0.00 PKD
ROOT
HETATM    1  N   UNL     1      -6.796   4.095  64.624  1.00  0.00    -0.045 NA 
HETATM    2  H2  UNL     1      -6.404   5.029  64.509  1.00  0.00     0.000 HD 
HETATM    3  H1  UNL     1      -6.192   3.387  64.207  1.00  0.00     0.000 HD 
HETATM    4  C   UNL     1      -7.090   3.819  66.023  1.00  0.00    -0.063 C  
ENDROOT
BRANCH   4   5
HETATM    5  C   UNL     1      -7.997   4.879  66.649  1.00  0.00    -0.103 C  
BRANCH   5   6
HETATM    6  C   UNL     1      -8.556   5.891  65.639  1.00  0.00    -0.155 C  
BRANCH   6   7
HETATM    7  C   UNL     1      -8.418   7.404  66.008  1.00  0.00    -0.148 C  
HETATM    8  O   UNL     1      -9.760   8.001  65.866  1.00  0.00    -0.445 OA 
HETATM    9  P   UNL     1      -7.997   7.499  67.787  1.00  0.00    -0.119 P  
HETATM   10  P   UNL     1      -7.263   8.452  65.051  1.00  0.00    -0.089 P  
HETATM   11  H   UNL     1      -9.676   8.920  66.090  1.00  0.00     0.000 HD 
HETATM   12  O   UNL     1      -6.285   9.339  64.241  1.00  0.00    -0.074 OA 
HETATM   13  O   UNL     1      -8.103   8.155  63.671  1.00  0.00    -0.158 OA 
HETATM   14  O   UNL     1      -6.225   7.181  64.940  1.00  0.00    -0.036 OA 
HETATM   15  O   UNL     1      -7.642   7.579  69.291  1.00  0.00    -0.095 OA 
HETATM   16  O   UNL     1      -8.202   9.133  67.657  1.00  0.00    -0.108 OA 
HETATM   17  O   UNL     1      -9.587   7.221  68.176  1.00  0.00    -0.139 OA 
ENDBRANCH   6   7
ENDBRANCH   5   6
ENDBRANCH   4   5
TORSDOF 3
ENDMDL
MODEL      272
REMARK 921   NORMALIZED FREE ENERGY PREDICTED BY IDOCK:   -1.44 KCAL/MOL
REMARK 922        TOTAL FREE ENERGY PREDICTED BY IDOCK:   -2.04 KCAL/MOL
REMARK 923 INTER-LIGAND FREE ENERGY PREDICTED BY IDOCK:   -1.99 KCAL/MOL
REMARK 924 INTRA-LIGAND FREE ENERGY PREDICTED BY IDOCK:   -0.05 KCAL/MOL
REMARK 927      BINDING AFFINITY PREDICTED BY RF-SCORE:    0.00 PKD
ROOT
HETATM    1  N   UNL     1     -11.455   6.534  67.194  1.00  0.00    -0.745 NA 
HETATM    2  H2  UNL     1     -11.778   5.706  67.694  1.00  0.00     0.000 HD 
HETATM    3  H1  UNL     1     -11.754   7.388  67.665  1.00  0.00     0.000 HD 
HETATM    4  C   UNL     1     -10.015   6.492  66.983  1.00  0.00    -0.166 C  
ENDROOT
BRANCH   4   5
HETATM    5  C   UNL     1      -9.567   5.212  66.277  1.00  0.00    -0.174 C  
BRANCH   5   6
HETATM    6  C   UNL     1      -8.056   5.146  66.014  1.00  0.00    -0.109 C  
BRANCH   6   7
HETATM    7  C   UNL     1      -7.609   4.767  64.566  1.00  0.00    -0.073 C  
HETATM    8  O   UNL     1      -6.664   3.641  64.692  1.00  0.00    -0.041 OA 
HETATM    9  P   UNL     1      -9.077   4.113  63.691  1.00  0.00    -0.130 P  
HETATM   10  P   UNL     1      -6.793   6.034  63.527  1.00  0.00    -0.040 P  
HETATM   11  H   UNL     1      -6.393   3.411  63.811  1.00  0.00     0.000 HD 
HETATM   12  O   UNL     1      -6.103   7.106  62.647  1.00  0.00    -0.047 OA 
HETATM   13  O   UNL     1      -5.567   6.166  64.611  1.00  0.00    -0.020 OA 
HETATM   14  O   UNL     1      -7.774   7.181  64.180  1.00  0.00    -0.109 OA 
HETATM   15  O   UNL     1     -10.319   3.560  62.951  1.00  0.00    -0.159 OA 
HETATM   16  O   UNL     1      -8.054   3.708  62.459  1.00  0.00    -0.069 OA 
HETATM   17  O   UNL     1      -8.892   2.660  64.470  1.00  0.00    -0.103 OA 
ENDBRANCH   6   7
ENDBRANCH   5   6
ENDBRANCH   4   5
TORSDOF 3
ENDMDL
MODEL      273
REMARK 921   NORMALIZED FREE ENERGY PREDICTED BY IDOCK:   -1.42 KCAL/MOL
REMARK 922        TOTAL FREE ENERGY PREDICTED BY IDOCK:   -2.01 KCAL/MOL
REMARK 923 INTER-LIGAND FREE ENERGY PREDICTED BY IDOCK:   -2.87 KCAL/MOL
REMARK 924 INTRA-LIGAND FREE ENERGY PREDICTED BY IDOCK:    0.86 KCAL/MOL
REMARK 927      BINDING AFFINITY PREDICTED BY RF-SCORE:    0.00 PKD
ROOT
HETATM    1  N   UNL     1      -7.045  20.658  67.617  1.00  0.00    -0.324 NA 
HETATM    2  H2  UNL     1      -6.568  21.240  68.305  1.00  0.00     0.000 HD 
HETATM    3  H1  UNL     1      -7.256  21.187  66.771  1.00  0.00     0.000 HD 
HETATM    4  C   UNL     1      -6.287  19.446  67.339  1.00  0.00    -0.191 C  
ENDROOT
BRANCH   4   5
HETATM    5  C   UNL     1      -5.970  18.653  68.608  1.00  0.00    -0.211 C  
BRANCH   5   6
HETATM    6  C   UNL     1      -7.084  17.684  69.027  1.00  0.00    -0.227 C  
BRANCH   6   7
HETATM    7  C   UNL     1      -7.952  17.070  67.881  1.00  0.00    -0.189 C  
HETATM    8  O   UNL     1      -7.424  17.606  66.612  1.00  0.00    -0.196 OA 
HETATM    9  P   UNL     1      -7.629  15.268  67.854  1.00  0.00    -0.171 P  
HETATM   10  P   UNL     1      -9.757  17.366  67.876  1.00  0.00    -0.296 P  
HETATM   11  H   UNL     1      -7.951  17.233  65.916  1.00  0.00     0.000 HD 
HETATM   12  O   UNL     1     -11.286  17.617  67.871  1.00  0.00    -0.103 OA 
HETATM   13  O   UNL     1      -9.513  18.987  67.759  1.00  0.00    -0.294 OA 
HETATM   14  O   UNL     1      -9.763  17.274  69.518  1.00  0.00     0.009 OA 
HETATM   15  O   UNL     1      -7.356  13.745  67.830  1.00  0.00    -0.130 OA 
HETATM   16  O   UNL     1      -8.519  15.220  66.463  1.00  0.00    -0.265 OA 
HETATM   17  O   UNL     1      -6.198  15.539  67.058  1.00  0.00    -0.279 OA 
ENDBRANCH   6   7
ENDBRANCH   5   6
ENDBRANCH   4   5
TORSDOF 3
ENDMDL
MODEL      274
REMARK 921   NORMALIZED FREE ENERGY PREDICTED BY IDOCK:   -1.36 KCAL/MOL
REMARK 922        TOTAL FREE ENERGY PREDICTED BY IDOCK:   -1.95 KCAL/MOL
REMARK 923 INTER-LIGAND FREE ENERGY PREDICTED BY IDOCK:   -3.10 KCAL/MOL
REMARK 924 INTRA-LIGAND FREE ENERGY PREDICTED BY IDOCK:    1.15 KCAL/MOL
REMARK 927      BINDING AFFINITY PREDICTED BY RF-SCORE:    0.00 PKD
ROOT
HETATM    1  N   UNL     1      -6.531  14.161  71.321  1.00  0.00    -0.340 NA 
HETATM    2  H2  UNL     1      -7.295  13.488  71.368  1.00  0.00     0.000 HD 
HETATM    3  H1  UNL     1      -5.884  14.039  72.100  1.00  0.00     0.000 HD 
HETATM    4  C   UNL     1      -5.861  14.104  70.029  1.00  0.00    -0.132 C  
ENDROOT
BRANCH   4   5
HETATM    5  C   UNL     1      -6.830  14.287  68.861  1.00  0.00    -0.104 C  
BRANCH   5   6
HETATM    6  C   UNL     1      -7.935  15.318  69.127  1.00  0.00    -0.214 C  
BRANCH   6   7
HETATM    7  C   UNL     1      -9.375  14.946  68.649  1.00  0.00    -0.194 C  
HETATM    8  O   UNL     1     -10.073  14.362  69.810  1.00  0.00    -0.411 OA 
HETATM    9  P   UNL     1     -10.244  16.509  68.257  1.00  0.00    -0.300 P  
HETATM   10  P   UNL     1      -9.576  13.772  67.259  1.00  0.00    -0.254 P  
HETATM   11  H   UNL     1     -10.949  14.137  69.519  1.00  0.00     0.000 HD 
HETATM   12  O   UNL     1      -9.746  12.779  66.083  1.00  0.00    -0.258 OA 
HETATM   13  O   UNL     1      -8.812  12.596  68.114  1.00  0.00    -0.186 OA 
HETATM   14  O   UNL     1      -8.240  14.413  66.545  1.00  0.00     0.135 OA 
HETATM   15  O   UNL     1     -10.979  17.831  67.927  1.00  0.00    -0.308 OA 
HETATM   16  O   UNL     1     -11.611  15.600  68.071  1.00  0.00    -0.332 OA 
HETATM   17  O   UNL     1     -10.504  16.767  69.876  1.00  0.00    -0.198 OA 
ENDBRANCH   6   7
ENDBRANCH   5   6
ENDBRANCH   4   5
TORSDOF 3
ENDMDL
MODEL      275
REMARK 921   NORMALIZED FREE ENERGY PREDICTED BY IDOCK:   -1.35 KCAL/MOL
REMARK 922        TOTAL FREE ENERGY PREDICTED BY IDOCK:   -1.93 KCAL/MOL
REMARK 923 INTER-LIGAND FREE ENERGY PREDICTED BY IDOCK:   -1.71 KCAL/MOL
REMARK 924 INTRA-LIGAND FREE ENERGY PREDICTED BY IDOCK:   -0.22 KCAL/MOL
REMARK 927      BINDING AFFINITY PREDICTED BY RF-SCORE:    0.00 PKD
ROOT
HETATM    1  N   UNL     1      -9.885  13.513  66.302  1.00  0.00    -0.295 NA 
HETATM    2  H2  UNL     1      -9.116  13.766  66.923  1.00  0.00     0.000 HD 
HETATM    3  H1  UNL     1      -9.686  13.787  65.340  1.00  0.00     0.000 HD 
HETATM    4  C   UNL     1     -10.213  12.100  66.421  1.00  0.00    -0.220 C  
ENDROOT
BRANCH   4   5
HETATM    5  C   UNL     1     -10.511  11.689  67.863  1.00  0.00    -0.217 C  
BRANCH   5   6
HETATM    6  C   UNL     1     -10.303  12.816  68.884  1.00  0.00    -0.055 C  
BRANCH   6   7
HETATM    7  C   UNL     1     -11.581  13.576  69.366  1.00  0.00    -0.312 C  
HETATM    8  O   UNL     1     -12.589  13.433  68.298  1.00  0.00    -0.008 OA 
HETATM    9  P   UNL     1     -12.238  12.678  70.819  1.00  0.00     0.121 P  
HETATM   10  P   UNL     1     -11.462  15.360  69.753  1.00  0.00    -0.388 P  
HETATM   11  H   UNL     1     -13.366  13.895  68.592  1.00  0.00     0.000 HD 
HETATM   12  O   UNL     1     -11.363  16.871  70.081  1.00  0.00     0.086 OA 
HETATM   13  O   UNL     1     -11.010  15.688  68.209  1.00  0.00    -0.286 OA 
HETATM   14  O   UNL     1      -9.955  15.112  70.364  1.00  0.00    -0.025 OA 
HETATM   15  O   UNL     1     -12.794  11.919  72.048  1.00  0.00    -0.310 OA 
HETATM   16  O   UNL     1     -13.548  13.680  70.735  1.00  0.00     0.092 OA 
HETATM   17  O   UNL     1     -12.906  11.540  69.812  1.00  0.00     0.110 OA 
ENDBRANCH   6   7
ENDBRANCH   5   6
ENDBRANCH   4   5
TORSDOF 3
ENDMDL
MODEL      276
REMARK 921   NORMALIZED FREE ENERGY PREDICTED BY IDOCK:   -1.34 KCAL/MOL
REMARK 922        TOTAL FREE ENERGY PREDICTED BY IDOCK:   -1.92 KCAL/MOL
REMARK 923 INTER-LIGAND FREE ENERGY PREDICTED BY IDOCK:   -1.85 KCAL/MOL
REMARK 924 INTRA-LIGAND FREE ENERGY PREDICTED BY IDOCK:   -0.06 KCAL/MOL
REMARK 927      BINDING AFFINITY PREDICTED BY RF-SCORE:    0.00 PKD
ROOT
HETATM    1  N   UNL     1     -10.733   7.156  70.862  1.00  0.00    -0.228 NA 
HETATM    2  H2  UNL     1     -10.727   6.140  70.952  1.00  0.00     0.000 HD 
HETATM    3  H1  UNL     1     -10.857   7.605  71.769  1.00  0.00     0.000 HD 
HETATM    4  C   UNL     1      -9.545   7.628  70.166  1.00  0.00    -0.168 C  
ENDROOT
BRANCH   4   5
HETATM    5  C   UNL     1      -9.359   6.954  68.806  1.00  0.00    -0.129 C  
BRANCH   5   6
HETATM    6  C   UNL     1      -9.919   5.527  68.740  1.00  0.00    -0.231 C  
BRANCH   6   7
HETATM    7  C   UNL     1      -9.052   4.465  67.989  1.00  0.00    -0.127 C  
HETATM    8  O   UNL     1      -9.953   3.762  67.056  1.00  0.00    -0.319 OA 
HETATM    9  P   UNL     1      -7.845   5.373  66.956  1.00  0.00    -0.101 P  
HETATM   10  P   UNL     1      -8.181   3.180  68.959  1.00  0.00    -0.062 P  
HETATM   11  H   UNL     1      -9.426   3.117  66.599  1.00  0.00     0.000 HD 
HETATM   12  O   UNL     1      -7.444   2.093  69.779  1.00  0.00    -0.043 OA 
HETATM   13  O   UNL     1      -9.611   2.615  69.536  1.00  0.00    -0.104 OA 
HETATM   14  O   UNL     1      -7.900   4.286  70.143  1.00  0.00    -0.052 OA 
HETATM   15  O   UNL     1      -6.824   6.140  66.082  1.00  0.00    -0.058 OA 
HETATM   16  O   UNL     1      -7.437   3.911  66.304  1.00  0.00    -0.081 OA 
HETATM   17  O   UNL     1      -9.030   5.666  65.832  1.00  0.00    -0.152 OA 
ENDBRANCH   6   7
ENDBRANCH   5   6
ENDBRANCH   4   5
TORSDOF 3
ENDMDL
MODEL      277
REMARK 921   NORMALIZED FREE ENERGY PREDICTED BY IDOCK:   -1.32 KCAL/MOL
REMARK 922        TOTAL FREE ENERGY PREDICTED BY IDOCK:   -1.90 KCAL/MOL
REMARK 923 INTER-LIGAND FREE ENERGY PREDICTED BY IDOCK:   -2.26 KCAL/MOL
REMARK 924 INTRA-LIGAND FREE ENERGY PREDICTED BY IDOCK:    0.36 KCAL/MOL
REMARK 927      BINDING AFFINITY PREDICTED BY RF-SCORE:    0.00 PKD
ROOT
HETATM    1  N   UNL     1      -9.989  12.095  64.963  1.00  0.00    -0.345 NA 
HETATM    2  H2  UNL     1      -9.027  12.193  65.286  1.00  0.00     0.000 HD 
HETATM    3  H1  UNL     1     -10.227  12.822  64.288  1.00  0.00     0.000 HD 
HETATM    4  C   UNL     1     -10.236  10.756  64.448  1.00  0.00    -0.364 C  
ENDROOT
BRANCH   4   5
HETATM    5  C   UNL     1      -9.881   9.667  65.460  1.00  0.00    -0.352 C  
BRANCH   5   6
HETATM    6  C   UNL     1      -8.424   9.191  65.373  1.00  0.00    -0.163 C  
BRANCH   6   7
HETATM    7  C   UNL     1      -7.764   8.697  66.700  1.00  0.00    -0.096 C  
HETATM    8  O   UNL     1      -6.304   8.716  66.483  1.00  0.00    -0.057 OA 
HETATM    9  P   UNL     1      -8.110   9.953  67.986  1.00  0.00    -0.109 P  
HETATM   10  P   UNL     1      -8.186   7.036  67.340  1.00  0.00    -0.120 P  
HETATM   11  H   UNL     1      -5.903   8.416  67.290  1.00  0.00     0.000 HD 
HETATM   12  O   UNL     1      -8.544   5.630  67.883  1.00  0.00    -0.103 OA 
HETATM   13  O   UNL     1      -7.594   6.336  65.978  1.00  0.00    -0.083 OA 
HETATM   14  O   UNL     1      -9.731   7.243  66.815  1.00  0.00    -0.180 OA 
HETATM   15  O   UNL     1      -8.403  11.015  69.073  1.00  0.00    -0.147 OA 
HETATM   16  O   UNL     1      -7.084   9.106  68.965  1.00  0.00    -0.065 OA 
HETATM   17  O   UNL     1      -6.905  10.914  67.370  1.00  0.00    -0.073 OA 
ENDBRANCH   6   7
ENDBRANCH   5   6
ENDBRANCH   4   5
TORSDOF 3
ENDMDL
MODEL      278
REMARK 921   NORMALIZED FREE ENERGY PREDICTED BY IDOCK:   -1.29 KCAL/MOL
REMARK 922        TOTAL FREE ENERGY PREDICTED BY IDOCK:   -1.86 KCAL/MOL
REMARK 923 INTER-LIGAND FREE ENERGY PREDICTED BY IDOCK:   -2.30 KCAL/MOL
REMARK 924 INTRA-LIGAND FREE ENERGY PREDICTED BY IDOCK:    0.44 KCAL/MOL
REMARK 927      BINDING AFFINITY PREDICTED BY RF-SCORE:    0.00 PKD
ROOT
HETATM    1  N   UNL     1     -10.187   5.230  66.996  1.00  0.00    -0.214 NA 
HETATM    2  H2  UNL     1     -10.293   6.241  67.070  1.00  0.00     0.000 HD 
HETATM    3  H1  UNL     1      -9.893   4.958  66.058  1.00  0.00     0.000 HD 
HETATM    4  C   UNL     1      -9.293   4.719  68.026  1.00  0.00    -0.133 C  
ENDROOT
BRANCH   4   5
HETATM    5  C   UNL     1      -9.732   5.126  69.433  1.00  0.00    -0.248 C  
BRANCH   5   6
HETATM    6  C   UNL     1      -8.577   5.585  70.335  1.00  0.00    -0.131 C  
BRANCH   6   7
HETATM    7  C   UNL     1      -8.644   7.050  70.873  1.00  0.00    -0.139 C  
HETATM    8  O   UNL     1      -8.453   7.940  69.712  1.00  0.00    -0.128 OA 
HETATM    9  P   UNL     1     -10.350   7.340  71.469  1.00  0.00    -0.199 P  
HETATM   10  P   UNL     1      -7.452   7.583  72.155  1.00  0.00    -0.085 P  
HETATM   11  H   UNL     1      -8.494   8.831  70.039  1.00  0.00     0.000 HD 
HETATM   12  O   UNL     1      -6.443   8.034  73.240  1.00  0.00    -0.078 OA 
HETATM   13  O   UNL     1      -6.194   7.280  71.143  1.00  0.00    -0.036 OA 
HETATM   14  O   UNL     1      -7.538   6.087  72.834  1.00  0.00    -0.100 OA 
HETATM   15  O   UNL     1     -11.793   7.584  71.972  1.00  0.00    -0.278 OA 
HETATM   16  O   UNL     1      -9.921   8.923  71.660  1.00  0.00    -0.282 OA 
HETATM   17  O   UNL     1     -10.859   7.553  69.903  1.00  0.00    -0.248 OA 
ENDBRANCH   6   7
ENDBRANCH   5   6
ENDBRANCH   4   5
TORSDOF 3
ENDMDL
MODEL      279
REMARK 921   NORMALIZED FREE ENERGY PREDICTED BY IDOCK:   -1.28 KCAL/MOL
REMARK 922        TOTAL FREE ENERGY PREDICTED BY IDOCK:   -1.85 KCAL/MOL
REMARK 923 INTER-LIGAND FREE ENERGY PREDICTED BY IDOCK:   -1.82 KCAL/MOL
REMARK 924 INTRA-LIGAND FREE ENERGY PREDICTED BY IDOCK:   -0.03 KCAL/MOL
REMARK 927      BINDING AFFINITY PREDICTED BY RF-SCORE:    0.00 PKD
ROOT
HETATM    1  N   UNL     1      -9.452  10.449  68.991  1.00  0.00    -0.188 NA 
HETATM    2  H2  UNL     1      -9.281  10.563  69.989  1.00  0.00     0.000 HD 
HETATM    3  H1  UNL     1      -9.632  11.348  68.543  1.00  0.00     0.000 HD 
HETATM    4  C   UNL     1      -8.365   9.720  68.353  1.00  0.00    -0.110 C  
ENDROOT
BRANCH   4   5
HETATM    5  C   UNL     1      -8.094   8.372  69.023  1.00  0.00    -0.116 C  
BRANCH   5   6
HETATM    6  C   UNL     1      -9.364   7.571  69.338  1.00  0.00    -0.152 C  
BRANCH   6   7
HETATM    7  C   UNL     1      -9.191   6.034  69.559  1.00  0.00    -0.136 C  
HETATM    8  O   UNL     1     -10.225   5.366  68.746  1.00  0.00    -0.178 OA 
HETATM    9  P   UNL     1      -7.578   5.554  68.837  1.00  0.00    -0.089 P  
HETATM   10  P   UNL     1      -9.325   5.357  71.254  1.00  0.00    -0.153 P  
HETATM   11  H   UNL     1     -10.119   4.432  68.880  1.00  0.00     0.000 HD 
HETATM   12  O   UNL     1      -9.440   4.784  72.689  1.00  0.00    -0.132 OA 
HETATM   13  O   UNL     1     -10.873   5.896  71.370  1.00  0.00    -0.256 OA 
HETATM   14  O   UNL     1      -8.589   6.708  71.836  1.00  0.00    -0.124 OA 
HETATM   15  O   UNL     1      -6.215   5.149  68.227  1.00  0.00    -0.032 OA 
HETATM   16  O   UNL     1      -8.017   3.987  69.121  1.00  0.00    -0.056 OA 
HETATM   17  O   UNL     1      -8.251   5.583  67.320  1.00  0.00    -0.102 OA 
ENDBRANCH   6   7
ENDBRANCH   5   6
ENDBRANCH   4   5
TORSDOF 3
ENDMDL
MODEL      280
REMARK 921   NORMALIZED FREE ENERGY PREDICTED BY IDOCK:   -1.15 KCAL/MOL
REMARK 922        TOTAL FREE ENERGY PREDICTED BY IDOCK:   -1.70 KCAL/MOL
REMARK 923 INTER-LIGAND FREE ENERGY PREDICTED BY IDOCK:   -1.53 KCAL/MOL
REMARK 924 INTRA-LIGAND FREE ENERGY PREDICTED BY IDOCK:   -0.17 KCAL/MOL
REMARK 927      BINDING AFFINITY PREDICTED BY RF-SCORE:    0.00 PKD
ROOT
HETATM    1  N   UNL     1      -7.842   8.414  71.051  1.00  0.00    -0.090 NA 
HETATM    2  H2  UNL     1      -8.214   8.997  71.801  1.00  0.00     0.000 HD 
HETATM    3  H1  UNL     1      -7.459   8.984  70.297  1.00  0.00     0.000 HD 
HETATM    4  C   UNL     1      -6.879   7.450  71.564  1.00  0.00    -0.054 C  
ENDROOT
BRANCH   4   5
HETATM    5  C   UNL     1      -7.453   6.595  72.694  1.00  0.00    -0.092 C  
BRANCH   5   6
HETATM    6  C   UNL     1      -7.467   5.091  72.387  1.00  0.00    -0.094 C  
BRANCH   6   7
HETATM    7  C   UNL     1      -8.744   4.528  71.685  1.00  0.00    -0.116 C  
HETATM    8  O   UNL     1      -9.368   5.654  70.965  1.00  0.00    -0.150 OA 
HETATM    9  P   UNL     1      -8.190   3.341  70.407  1.00  0.00    -0.052 P  
HETATM   10  P   UNL     1     -10.054   3.757  72.705  1.00  0.00    -0.165 P  
HETATM   11  H   UNL     1     -10.144   5.311  70.538  1.00  0.00     0.000 HD 
HETATM   12  O   UNL     1     -11.162   3.105  73.569  1.00  0.00    -0.221 OA 
HETATM   13  O   UNL     1     -10.282   5.167  73.517  1.00  0.00    -0.171 OA 
HETATM   14  O   UNL     1      -8.896   3.133  73.693  1.00  0.00    -0.076 OA 
HETATM   15  O   UNL     1      -7.721   2.338  69.325  1.00  0.00    -0.043 OA 
HETATM   16  O   UNL     1      -9.764   3.278  69.908  1.00  0.00    -0.144 OA 
HETATM   17  O   UNL     1      -7.808   4.606  69.402  1.00  0.00    -0.062 OA 
ENDBRANCH   6   7
ENDBRANCH   5   6
ENDBRANCH   4   5
TORSDOF 3
ENDMDL
MODEL      281
REMARK 921   NORMALIZED FREE ENERGY PREDICTED BY IDOCK:   -1.09 KCAL/MOL
REMARK 922        TOTAL FREE ENERGY PREDICTED BY IDOCK:   -1.62 KCAL/MOL
REMARK 923 INTER-LIGAND FREE ENERGY PREDICTED BY IDOCK:   -2.08 KCAL/MOL
REMARK 924 INTRA-LIGAND FREE ENERGY PREDICTED BY IDOCK:    0.46 KCAL/MOL
REMARK 927      BINDING AFFINITY PREDICTED BY RF-SCORE:    0.00 PKD
ROOT
HETATM    1  N   UNL     1      -9.967  12.190  64.897  1.00  0.00    -0.369 NA 
HETATM    2  H2  UNL     1      -9.018  12.212  65.269  1.00  0.00     0.000 HD 
HETATM    3  H1  UNL     1     -10.066  12.821  64.102  1.00  0.00     0.000 HD 
HETATM    4  C   UNL     1     -10.374  10.829  64.580  1.00  0.00    -0.324 C  
ENDROOT
BRANCH   4   5
HETATM    5  C   UNL     1     -10.226   9.883  65.772  1.00  0.00    -0.251 C  
BRANCH   5   6
HETATM    6  C   UNL     1      -9.046  10.225  66.692  1.00  0.00    -0.163 C  
BRANCH   6   7
HETATM    7  C   UNL     1      -8.056   9.064  67.028  1.00  0.00    -0.106 C  
HETATM    8  O   UNL     1      -7.342   9.454  68.259  1.00  0.00    -0.077 OA 
HETATM    9  P   UNL     1      -9.058   7.594  67.457  1.00  0.00    -0.127 P  
HETATM   10  P   UNL     1      -6.783   8.596  65.799  1.00  0.00    -0.064 P  
HETATM   11  H   UNL     1      -6.741   8.748  68.463  1.00  0.00     0.000 HD 
HETATM   12  O   UNL     1      -5.705   8.201  64.759  1.00  0.00    -0.044 OA 
HETATM   13  O   UNL     1      -6.127  10.101  65.873  1.00  0.00    -0.072 OA 
HETATM   14  O   UNL     1      -7.859   8.897  64.592  1.00  0.00    -0.111 OA 
HETATM   15  O   UNL     1      -9.906   6.351  67.820  1.00  0.00    -0.119 OA 
HETATM   16  O   UNL     1      -7.642   6.866  67.898  1.00  0.00    -0.102 OA 
HETATM   17  O   UNL     1      -9.332   8.224  68.968  1.00  0.00    -0.147 OA 
ENDBRANCH   6   7
ENDBRANCH   5   6
ENDBRANCH   4   5
TORSDOF 3
ENDMDL
MODEL      282
REMARK 921   NORMALIZED FREE ENERGY PREDICTED BY IDOCK:   -1.05 KCAL/MOL
REMARK 922        TOTAL FREE ENERGY PREDICTED BY IDOCK:   -1.57 KCAL/MOL
REMARK 923 INTER-LIGAND FREE ENERGY PREDICTED BY IDOCK:   -1.94 KCAL/MOL
REMARK 924 INTRA-LIGAND FREE ENERGY PREDICTED BY IDOCK:    0.36 KCAL/MOL
REMARK 927      BINDING AFFINITY PREDICTED BY RF-SCORE:    0.00 PKD
ROOT
HETATM    1  N   UNL     1      -6.398  12.497  69.102  1.00  0.00    -0.089 NA 
HETATM    2  H2  UNL     1      -5.413  12.519  69.365  1.00  0.00     0.000 HD 
HETATM    3  H1  UNL     1      -6.862  13.374  69.338  1.00  0.00     0.000 HD 
HETATM    4  C   UNL     1      -6.558  12.144  67.699  1.00  0.00    -0.116 C  
ENDROOT
BRANCH   4   5
HETATM    5  C   UNL     1      -5.863  10.829  67.344  1.00  0.00    -0.045 C  
BRANCH   5   6
HETATM    6  C   UNL     1      -6.823   9.728  66.872  1.00  0.00    -0.083 C  
BRANCH   6   7
HETATM    7  C   UNL     1      -7.444   9.899  65.448  1.00  0.00    -0.132 C  
HETATM    8  O   UNL     1      -6.672  10.958  64.770  1.00  0.00    -0.350 OA 
HETATM    9  P   UNL     1      -7.125   8.354  64.521  1.00  0.00    -0.082 P  
HETATM   10  P   UNL     1      -9.212  10.348  65.297  1.00  0.00    -0.241 P  
HETATM   11  H   UNL     1      -7.050  11.061  63.905  1.00  0.00     0.000 HD 
HETATM   12  O   UNL     1     -10.708  10.727  65.168  1.00  0.00    -0.215 OA 
HETATM   13  O   UNL     1      -8.947  11.754  66.103  1.00  0.00    -0.201 OA 
HETATM   14  O   UNL     1      -9.546   9.414  66.609  1.00  0.00    -0.165 OA 
HETATM   15  O   UNL     1      -6.855   7.047  63.736  1.00  0.00    -0.048 OA 
HETATM   16  O   UNL     1      -7.719   9.133  63.191  1.00  0.00    -0.107 OA 
HETATM   17  O   UNL     1      -5.563   8.844  64.246  1.00  0.00    -0.062 OA 
ENDBRANCH   6   7
ENDBRANCH   5   6
ENDBRANCH   4   5
TORSDOF 3
ENDMDL
MODEL      283
REMARK 921   NORMALIZED FREE ENERGY PREDICTED BY IDOCK:   -0.99 KCAL/MOL
REMARK 922        TOTAL FREE ENERGY PREDICTED BY IDOCK:   -1.51 KCAL/MOL
REMARK 923 INTER-LIGAND FREE ENERGY PREDICTED BY IDOCK:   -3.26 KCAL/MOL
REMARK 924 INTRA-LIGAND FREE ENERGY PREDICTED BY IDOCK:    1.75 KCAL/MOL
REMARK 927      BINDING AFFINITY PREDICTED BY RF-SCORE:    0.00 PKD
ROOT
HETATM    1  N   UNL     1      -7.744  16.012  66.231  1.00  0.00    -0.133 NA 
HETATM    2  H2  UNL     1      -8.218  16.891  66.024  1.00  0.00     0.000 HD 
HETATM    3  H1  UNL     1      -6.731  16.113  66.155  1.00  0.00     0.000 HD 
HETATM    4  C   UNL     1      -8.154  15.487  67.525  1.00  0.00    -0.165 C  
ENDROOT
BRANCH   4   5
HETATM    5  C   UNL     1      -9.671  15.335  67.639  1.00  0.00    -0.208 C  
BRANCH   5   6
HETATM    6  C   UNL     1     -10.311  14.603  66.451  1.00  0.00    -0.293 C  
BRANCH   6   7
HETATM    7  C   UNL     1     -10.817  13.148  66.710  1.00  0.00    -0.276 C  
HETATM    8  O   UNL     1     -12.048  12.976  65.915  1.00  0.00    -0.412 OA 
HETATM    9  P   UNL     1      -9.580  12.001  66.000  1.00  0.00    -0.179 P  
HETATM   10  P   UNL     1     -11.212  12.634  68.422  1.00  0.00    -0.328 P  
HETATM   11  H   UNL     1     -12.355  12.091  66.072  1.00  0.00     0.000 HD 
HETATM   12  O   UNL     1     -11.547  12.200  69.870  1.00  0.00    -0.285 OA 
HETATM   13  O   UNL     1     -12.372  13.793  68.525  1.00  0.00    -0.269 OA 
HETATM   14  O   UNL     1      -9.957  13.546  68.969  1.00  0.00    -0.043 OA 
HETATM   15  O   UNL     1      -8.533  11.032  65.399  1.00  0.00    -0.138 OA 
HETATM   16  O   UNL     1     -10.650  10.785  66.323  1.00  0.00    -0.246 OA 
HETATM   17  O   UNL     1     -10.191  12.284  64.483  1.00  0.00    -0.290 OA 
ENDBRANCH   6   7
ENDBRANCH   5   6
ENDBRANCH   4   5
TORSDOF 3
ENDMDL
MODEL      284
REMARK 921   NORMALIZED FREE ENERGY PREDICTED BY IDOCK:   -0.91 KCAL/MOL
REMARK 922        TOTAL FREE ENERGY PREDICTED BY IDOCK:   -1.42 KCAL/MOL
REMARK 923 INTER-LIGAND FREE ENERGY PREDICTED BY IDOCK:   -1.88 KCAL/MOL
REMARK 924 INTRA-LIGAND FREE ENERGY PREDICTED BY IDOCK:    0.46 KCAL/MOL
REMARK 927      BINDING AFFINITY PREDICTED BY RF-SCORE:    0.00 PKD
ROOT
HETATM    1  N   UNL     1      -8.088   9.162  70.811  1.00  0.00    -0.165 NA 
HETATM    2  H2  UNL     1      -8.620   9.919  71.240  1.00  0.00     0.000 HD 
HETATM    3  H1  UNL     1      -7.416   9.522  70.134  1.00  0.00     0.000 HD 
HETATM    4  C   UNL     1      -7.463   8.323  71.823  1.00  0.00    -0.096 C  
ENDROOT
BRANCH   4   5
HETATM    5  C   UNL     1      -8.471   7.783  72.838  1.00  0.00    -0.205 C  
BRANCH   5   6
HETATM    6  C   UNL     1      -8.457   6.254  72.973  1.00  0.00    -0.117 C  
BRANCH   6   7
HETATM    7  C   UNL     1      -9.358   5.451  71.981  1.00  0.00    -0.144 C  
HETATM    8  O   UNL     1      -8.808   5.673  70.630  1.00  0.00    -0.135 OA 
HETATM    9  P   UNL     1      -9.127   3.672  72.346  1.00  0.00    -0.111 P  
HETATM   10  P   UNL     1     -11.146   5.829  71.897  1.00  0.00    -0.171 P  
HETATM   11  H   UNL     1      -9.356   5.184  70.027  1.00  0.00     0.000 HD 
HETATM   12  O   UNL     1     -12.660   6.150  71.826  1.00  0.00    -0.084 OA 
HETATM   13  O   UNL     1     -10.821   7.372  71.435  1.00  0.00    -0.228 OA 
HETATM   14  O   UNL     1     -11.151   6.095  73.520  1.00  0.00    -0.173 OA 
HETATM   15  O   UNL     1      -8.932   2.168  72.654  1.00  0.00    -0.069 OA 
HETATM   16  O   UNL     1     -10.023   3.369  70.991  1.00  0.00    -0.128 OA 
HETATM   17  O   UNL     1      -7.687   3.692  71.521  1.00  0.00    -0.054 OA 
ENDBRANCH   6   7
ENDBRANCH   5   6
ENDBRANCH   4   5
TORSDOF 3
ENDMDL
MODEL      285
REMARK 921   NORMALIZED FREE ENERGY PREDICTED BY IDOCK:   -0.84 KCAL/MOL
REMARK 922        TOTAL FREE ENERGY PREDICTED BY IDOCK:   -1.33 KCAL/MOL
REMARK 923 INTER-LIGAND FREE ENERGY PREDICTED BY IDOCK:   -1.82 KCAL/MOL
REMARK 924 INTRA-LIGAND FREE ENERGY PREDICTED BY IDOCK:    0.50 KCAL/MOL
REMARK 927      BINDING AFFINITY PREDICTED BY RF-SCORE:    0.00 PKD
ROOT
HETATM    1  N   UNL     1      -9.967  12.190  64.897  1.00  0.00    -0.369 NA 
HETATM    2  H2  UNL     1      -9.019  12.205  65.273  1.00  0.00     0.000 HD 
HETATM    3  H1  UNL     1     -10.060  12.826  64.105  1.00  0.00     0.000 HD 
HETATM    4  C   UNL     1     -10.380  10.833  64.571  1.00  0.00    -0.331 C  
ENDROOT
BRANCH   4   5
HETATM    5  C   UNL     1     -10.242   9.879  65.757  1.00  0.00    -0.251 C  
BRANCH   5   6
HETATM    6  C   UNL     1      -9.064  10.209  66.684  1.00  0.00    -0.164 C  
BRANCH   6   7
HETATM    7  C   UNL     1      -8.081   9.041  67.017  1.00  0.00    -0.106 C  
HETATM    8  O   UNL     1      -8.812   8.105  67.891  1.00  0.00    -0.130 OA 
HETATM    9  P   UNL     1      -7.751   8.140  65.458  1.00  0.00    -0.108 P  
HETATM   10  P   UNL     1      -6.496   9.421  67.849  1.00  0.00    -0.063 P  
HETATM   11  H   UNL     1      -8.214   7.394  68.093  1.00  0.00     0.000 HD 
HETATM   12  O   UNL     1      -5.154   9.743  68.553  1.00  0.00    -0.034 OA 
HETATM   13  O   UNL     1      -7.298  10.034  69.145  1.00  0.00    -0.075 OA 
HETATM   14  O   UNL     1      -6.395  10.818  66.986  1.00  0.00    -0.067 OA 
HETATM   15  O   UNL     1      -7.472   7.378  64.140  1.00  0.00    -0.084 OA 
HETATM   16  O   UNL     1      -6.955   7.021  66.376  1.00  0.00    -0.065 OA 
HETATM   17  O   UNL     1      -9.216   7.371  65.595  1.00  0.00     0.024 OA 
ENDBRANCH   6   7
ENDBRANCH   5   6
ENDBRANCH   4   5
TORSDOF 3
ENDMDL
MODEL      286
REMARK 921   NORMALIZED FREE ENERGY PREDICTED BY IDOCK:   -0.71 KCAL/MOL
REMARK 922        TOTAL FREE ENERGY PREDICTED BY IDOCK:   -1.17 KCAL/MOL
REMARK 923 INTER-LIGAND FREE ENERGY PREDICTED BY IDOCK:   -1.56 KCAL/MOL
REMARK 924 INTRA-LIGAND FREE ENERGY PREDICTED BY IDOCK:    0.39 KCAL/MOL
REMARK 927      BINDING AFFINITY PREDICTED BY RF-SCORE:    0.00 PKD
ROOT
HETATM    1  N   UNL     1      -8.004   9.035  70.741  1.00  0.00    -0.134 NA 
HETATM    2  H2  UNL     1      -8.371   9.613  71.497  1.00  0.00     0.000 HD 
HETATM    3  H1  UNL     1      -7.623   9.609  69.990  1.00  0.00     0.000 HD 
HETATM    4  C   UNL     1      -7.041   8.066  71.243  1.00  0.00    -0.057 C  
ENDROOT
BRANCH   4   5
HETATM    5  C   UNL     1      -7.613   7.204  72.369  1.00  0.00    -0.088 C  
BRANCH   5   6
HETATM    6  C   UNL     1      -7.632   5.702  72.052  1.00  0.00    -0.100 C  
BRANCH   6   7
HETATM    7  C   UNL     1      -8.914   5.147  71.352  1.00  0.00    -0.137 C  
HETATM    8  O   UNL     1      -9.372   3.995  72.152  1.00  0.00    -0.118 OA 
HETATM    9  P   UNL     1     -10.216   6.425  71.495  1.00  0.00    -0.199 P  
HETATM   10  P   UNL     1      -8.805   4.580  69.615  1.00  0.00    -0.096 P  
HETATM   11  H   UNL     1     -10.152   3.658  71.726  1.00  0.00     0.000 HD 
HETATM   12  O   UNL     1      -8.712   4.100  68.145  1.00  0.00    -0.094 OA 
HETATM   13  O   UNL     1      -7.702   3.437  70.034  1.00  0.00    -0.044 OA 
HETATM   14  O   UNL     1      -7.739   5.794  69.302  1.00  0.00    -0.086 OA 
HETATM   15  O   UNL     1     -11.317   7.507  71.617  1.00  0.00    -0.244 OA 
HETATM   16  O   UNL     1     -11.260   5.306  70.873  1.00  0.00     0.038 OA 
HETATM   17  O   UNL     1     -10.489   5.967  73.067  1.00  0.00    -0.201 OA 
ENDBRANCH   6   7
ENDBRANCH   5   6
ENDBRANCH   4   5
TORSDOF 3
ENDMDL
MODEL      287
REMARK 921   NORMALIZED FREE ENERGY PREDICTED BY IDOCK:   -0.61 KCAL/MOL
REMARK 922        TOTAL FREE ENERGY PREDICTED BY IDOCK:   -1.06 KCAL/MOL
REMARK 923 INTER-LIGAND FREE ENERGY PREDICTED BY IDOCK:   -1.37 KCAL/MOL
REMARK 924 INTRA-LIGAND FREE ENERGY PREDICTED BY IDOCK:    0.30 KCAL/MOL
REMARK 927      BINDING AFFINITY PREDICTED BY RF-SCORE:    0.00 PKD
ROOT
HETATM    1  N   UNL     1      -7.925   8.337  71.022  1.00  0.00    -0.093 NA 
HETATM    2  H2  UNL     1      -8.110   8.917  71.839  1.00  0.00     0.000 HD 
HETATM    3  H1  UNL     1      -7.452   8.870  70.291  1.00  0.00     0.000 HD 
HETATM    4  C   UNL     1      -7.196   7.131  71.388  1.00  0.00    -0.077 C  
ENDROOT
BRANCH   4   5
HETATM    5  C   UNL     1      -7.905   6.331  72.482  1.00  0.00    -0.102 C  
BRANCH   5   6
HETATM    6  C   UNL     1      -7.338   4.919  72.683  1.00  0.00    -0.089 C  
BRANCH   6   7
HETATM    7  C   UNL     1      -7.995   3.771  71.852  1.00  0.00    -0.067 C  
HETATM    8  O   UNL     1      -8.605   2.839  72.819  1.00  0.00    -0.070 OA 
HETATM    9  P   UNL     1      -9.377   4.504  70.901  1.00  0.00    -0.181 P  
HETATM   10  P   UNL     1      -6.948   2.771  70.733  1.00  0.00    -0.033 P  
HETATM   11  H   UNL     1      -9.005   2.141  72.312  1.00  0.00     0.000 HD 
HETATM   12  O   UNL     1      -6.062   1.924  69.786  1.00  0.00    -0.022 OA 
HETATM   13  O   UNL     1      -6.038   2.263  72.003  1.00  0.00    -0.012 OA 
HETATM   14  O   UNL     1      -6.073   4.116  70.373  1.00  0.00    -0.017 OA 
HETATM   15  O   UNL     1     -10.546   5.124  70.097  1.00  0.00    -0.272 OA 
HETATM   16  O   UNL     1      -9.782   2.962  70.470  1.00  0.00    -0.141 OA 
HETATM   17  O   UNL     1     -10.322   4.488  72.265  1.00  0.00    -0.189 OA 
ENDBRANCH   6   7
ENDBRANCH   5   6
ENDBRANCH   4   5
TORSDOF 3
ENDMDL
MODEL      288
REMARK 921   NORMALIZED FREE ENERGY PREDICTED BY IDOCK:    0.37 KCAL/MOL
REMARK 922        TOTAL FREE ENERGY PREDICTED BY IDOCK:    0.09 KCAL/MOL
REMARK 923 INTER-LIGAND FREE ENERGY PREDICTED BY IDOCK:   -1.97 KCAL/MOL
REMARK 924 INTRA-LIGAND FREE ENERGY PREDICTED BY IDOCK:    2.06 KCAL/MOL
REMARK 927      BINDING AFFINITY PREDICTED BY RF-SCORE:    0.00 PKD
ROOT
HETATM    1  N   UNL     1     -10.594  17.665  65.461  1.00  0.00    -0.615 NA 
HETATM    2  H2  UNL     1     -10.343  18.491  64.918  1.00  0.00     0.000 HD 
HETATM    3  H1  UNL     1     -11.488  17.281  65.156  1.00  0.00     0.000 HD 
HETATM    4  C   UNL     1      -9.527  16.675  65.433  1.00  0.00     0.560 C  
ENDROOT
BRANCH   4   5
HETATM    5  C   UNL     1      -8.186  17.249  65.891  1.00  0.00    -0.027 C  
BRANCH   5   6
HETATM    6  C   UNL     1      -8.270  18.056  67.194  1.00  0.00    -0.231 C  
BRANCH   6   7
HETATM    7  C   UNL     1      -8.645  17.264  68.489  1.00  0.00    -0.270 C  
HETATM    8  O   UNL     1      -9.085  18.260  69.485  1.00  0.00     0.318 OA 
HETATM    9  P   UNL     1     -10.111  16.240  68.101  1.00  0.00    -0.262 P  
HETATM   10  P   UNL     1      -7.373  16.227  69.297  1.00  0.00    -0.095 P  
HETATM   11  H   UNL     1      -9.313  17.778  70.271  1.00  0.00     0.000 HD 
HETATM   12  O   UNL     1      -6.296  15.348  69.981  1.00  0.00    -0.160 OA 
HETATM   13  O   UNL     1      -6.425  17.545  69.548  1.00  0.00    -0.251 OA 
HETATM   14  O   UNL     1      -6.781  15.824  67.816  1.00  0.00    -0.127 OA 
HETATM   15  O   UNL     1     -11.352  15.374  67.773  1.00  0.00    -0.328 OA 
HETATM   16  O   UNL     1     -10.173  15.876  69.711  1.00  0.00    -0.268 OA 
HETATM   17  O   UNL     1     -11.083  17.577  68.254  1.00  0.00    -0.212 OA 
ENDBRANCH   6   7
ENDBRANCH   5   6
ENDBRANCH   4   5
TORSDOF 3
ENDMDL
MODEL      289
REMARK 921   NORMALIZED FREE ENERGY PREDICTED BY IDOCK:    3.43 KCAL/MOL
REMARK 922        TOTAL FREE ENERGY PREDICTED BY IDOCK:    3.69 KCAL/MOL
REMARK 923 INTER-LIGAND FREE ENERGY PREDICTED BY IDOCK:   -3.01 KCAL/MOL
REMARK 924 INTRA-LIGAND FREE ENERGY PREDICTED BY IDOCK:    6.70 KCAL/MOL
REMARK 927      BINDING AFFINITY PREDICTED BY RF-SCORE:    0.00 PKD
ROOT
HETATM    1  N   UNL     1      -6.801  21.267  68.052  1.00  0.00    -0.167 NA 
HETATM    2  H2  UNL     1      -7.107  22.104  68.545  1.00  0.00     0.000 HD 
HETATM    3  H1  UNL     1      -5.803  21.305  67.845  1.00  0.00     0.000 HD 
HETATM    4  C   UNL     1      -7.170  20.063  68.782  1.00  0.00    -0.213 C  
ENDROOT
BRANCH   4   5
HETATM    5  C   UNL     1      -8.666  20.004  69.092  1.00  0.00     0.247 C  
BRANCH   5   6
HETATM    6  C   UNL     1      -9.431  18.965  68.260  1.00  0.00    -0.395 C  
BRANCH   6   7
HETATM    7  C   UNL     1      -8.633  17.699  67.809  1.00  0.00    -0.228 C  
HETATM    8  O   UNL     1      -8.594  16.785  68.966  1.00  0.00    -0.232 OA 
HETATM    9  P   UNL     1      -9.623  16.857  66.520  1.00  0.00    -0.300 P  
HETATM   10  P   UNL     1      -6.910  17.895  67.224  1.00  0.00    -0.185 P  
HETATM   11  H   UNL     1      -8.109  16.015  68.691  1.00  0.00     0.000 HD 
HETATM   12  O   UNL     1      -5.452  18.060  66.729  1.00  0.00    -0.127 OA 
HETATM   13  O   UNL     1      -6.462  18.505  68.681  1.00  0.00    -0.216 OA 
HETATM   14  O   UNL     1      -7.327  19.321  66.519  1.00  0.00    -0.218 OA 
HETATM   15  O   UNL     1     -10.460  16.145  65.430  1.00  0.00    -0.426 OA 
HETATM   16  O   UNL     1      -8.525  15.626  66.606  1.00  0.00    -0.247 OA 
HETATM   17  O   UNL     1     -10.602  16.213  67.695  1.00  0.00    -0.302 OA 
ENDBRANCH   6   7
ENDBRANCH   5   6
ENDBRANCH   4   5
TORSDOF 3
ENDMDL
