MODEL        1
REMARK 921   NORMALIZED FREE ENERGY PREDICTED BY IDOCK:   -7.72 KCAL/MOL
REMARK 922        TOTAL FREE ENERGY PREDICTED BY IDOCK:  -10.18 KCAL/MOL
REMARK 923 INTER-LIGAND FREE ENERGY PREDICTED BY IDOCK:   -9.08 KCAL/MOL
REMARK 924 INTRA-LIGAND FREE ENERGY PREDICTED BY IDOCK:   -1.10 KCAL/MOL
REMARK 927      BINDING AFFINITY PREDICTED BY RF-SCORE:    0.00 PKD
ROOT
HETATM    1  C   UNL     1     -11.292   6.935  70.409  1.00  0.00    -0.376 C  
HETATM    2  C   UNL     1     -10.701   8.340  70.522  1.00  0.00    -0.238 C  
HETATM    3  C   UNL     1     -10.307   8.623  71.978  1.00  0.00    -0.416 C  
HETATM    4  C   UNL     1      -9.450   8.531  69.653  1.00  0.00    -0.165 C  
ENDROOT
BRANCH   4   5
HETATM    5  C   UNL     1      -9.645   8.398  68.141  1.00  0.00    -0.158 C  
BRANCH   5   6
HETATM    6  C   UNL     1     -10.694   9.443  67.704  1.00  0.00    -0.295 C  
HETATM    7  C   UNL     1     -10.136  10.736  67.066  1.00  0.00    -0.249 C  
HETATM    8  C   UNL     1      -9.237  10.335  65.882  1.00  0.00    -0.205 C  
HETATM    9  C   UNL     1     -11.342  11.825  66.773  1.00  0.00    -0.385 C  
HETATM   10  C   UNL     1     -11.889  12.297  68.121  1.00  0.00    -0.372 C  
HETATM   11  C   UNL     1     -10.981  13.438  68.527  1.00  0.00    -0.292 C  
HETATM   12  C   UNL     1     -10.040  13.724  67.320  1.00  0.00    -0.239 C  
HETATM   13  C   UNL     1      -9.579  15.172  67.365  1.00  0.00    -0.208 C  
HETATM   14  C   UNL     1      -9.357  15.826  68.529  1.00  0.00    -0.198 C  
HETATM   15  C   UNL     1      -9.374  15.754  66.004  1.00  0.00    -0.384 C  
HETATM   16  C   UNL     1     -10.337  12.752  64.687  1.00  0.00    -0.362 C  
HETATM   17  C   UNL     1     -10.635  15.529  65.133  1.00  0.00    -0.455 C  
HETATM   18  C   UNL     1     -10.853  13.179  66.082  1.00  0.00    -0.293 C  
HETATM   19  C   UNL     1     -11.666  14.460  65.696  1.00  0.00    -0.356 C  
BRANCH  14  20
HETATM   20  C   UNL     1      -8.336  16.830  68.669  1.00  0.00    -0.252 C  
HETATM   21  C   UNL     1      -7.231  18.998  68.981  1.00  0.00    -0.351 C  
HETATM   22  C   UNL     1      -8.370  18.154  68.431  1.00  0.00    -0.311 C  
HETATM   23  C   UNL     1      -6.526  19.774  67.874  1.00  0.00    -0.233 C  
HETATM   24  O   UNL     1      -5.813  18.893  67.005  1.00  0.00    -0.156 OA 
HETATM   25  C   UNL     1      -7.526  20.606  67.080  1.00  0.00    -0.381 C  
HETATM   26  H   UNL     1      -5.373  19.376  66.315  1.00  0.00     0.000 HD 
HETATM   27  C   UNL     1      -8.687  19.755  66.544  1.00  0.00    -0.360 C  
HETATM   28  C   UNL     1      -9.345  18.928  67.656  1.00  0.00    -0.331 C  
HETATM   29  O   UNL     1      -9.629  20.624  65.921  1.00  0.00    -0.631 OA 
HETATM   30  C   UNL     1     -10.657  18.966  67.915  1.00  0.00    -0.425 C  
HETATM   31  H   UNL     1     -10.347  20.098  65.590  1.00  0.00     0.000 HD 
ENDBRANCH  14  20
ENDBRANCH   5   6
ENDBRANCH   4   5
TORSDOF 3
ENDMDL
MODEL        2
REMARK 921   NORMALIZED FREE ENERGY PREDICTED BY IDOCK:   -7.66 KCAL/MOL
REMARK 922        TOTAL FREE ENERGY PREDICTED BY IDOCK:  -10.10 KCAL/MOL
REMARK 923 INTER-LIGAND FREE ENERGY PREDICTED BY IDOCK:   -9.16 KCAL/MOL
REMARK 924 INTRA-LIGAND FREE ENERGY PREDICTED BY IDOCK:   -0.94 KCAL/MOL
REMARK 927      BINDING AFFINITY PREDICTED BY RF-SCORE:    0.00 PKD
ROOT
HETATM    1  C   UNL     1     -10.282   5.318  67.769  1.00  0.00    -0.211 C  
HETATM    2  C   UNL     1     -10.903   6.465  68.564  1.00  0.00    -0.382 C  
HETATM    3  C   UNL     1     -11.068   6.051  70.032  1.00  0.00    -0.451 C  
HETATM    4  C   UNL     1     -10.052   7.742  68.531  1.00  0.00    -0.216 C  
ENDROOT
BRANCH   4   5
HETATM    5  C   UNL     1      -9.850   8.389  67.159  1.00  0.00    -0.279 C  
BRANCH   5   6
HETATM    6  C   UNL     1     -10.876   9.535  67.021  1.00  0.00    -0.125 C  
HETATM    7  C   UNL     1     -10.332  10.865  66.448  1.00  0.00    -0.306 C  
HETATM    8  C   UNL     1      -9.661  10.565  65.096  1.00  0.00    -0.341 C  
HETATM    9  C   UNL     1     -11.487  12.045  66.482  1.00  0.00    -0.413 C  
HETATM   10  C   UNL     1     -11.781  12.377  67.946  1.00  0.00    -0.421 C  
HETATM   11  C   UNL     1     -10.740  13.409  68.323  1.00  0.00    -0.273 C  
HETATM   12  C   UNL     1      -9.981  13.790  67.018  1.00  0.00    -0.251 C  
HETATM   13  C   UNL     1      -9.415  15.195  67.149  1.00  0.00    -0.224 C  
HETATM   14  C   UNL     1      -8.966  15.688  68.327  1.00  0.00    -0.181 C  
HETATM   15  C   UNL     1      -9.384  15.927  65.846  1.00  0.00    -0.353 C  
HETATM   16  C   UNL     1     -10.757  13.166  64.377  1.00  0.00    -0.426 C  
HETATM   17  C   UNL     1     -10.779  15.878  65.175  1.00  0.00    -0.449 C  
HETATM   18  C   UNL     1     -11.016  13.445  65.877  1.00  0.00    -0.284 C  
HETATM   19  C   UNL     1     -11.784  14.805  65.775  1.00  0.00    -0.252 C  
BRANCH  14  20
HETATM   20  C   UNL     1      -7.866  16.612  68.410  1.00  0.00    -0.202 C  
HETATM   21  C   UNL     1      -6.555  18.636  68.859  1.00  0.00    -0.282 C  
HETATM   22  C   UNL     1      -7.851  17.956  68.445  1.00  0.00    -0.288 C  
HETATM   23  C   UNL     1      -6.063  19.601  67.786  1.00  0.00    -0.203 C  
HETATM   24  O   UNL     1      -5.637  18.895  66.619  1.00  0.00    -0.153 OA 
HETATM   25  C   UNL     1      -7.150  20.607  67.428  1.00  0.00    -0.399 C  
HETATM   26  H   UNL     1      -5.330  19.496  65.950  1.00  0.00     0.000 HD 
HETATM   27  C   UNL     1      -8.466  19.919  67.032  1.00  0.00    -0.328 C  
HETATM   28  C   UNL     1      -8.914  18.902  68.089  1.00  0.00    -0.346 C  
HETATM   29  O   UNL     1      -9.454  20.925  66.831  1.00  0.00    -0.670 OA 
HETATM   30  C   UNL     1     -10.125  18.924  68.655  1.00  0.00    -0.447 C  
HETATM   31  H   UNL     1     -10.267  20.499  66.586  1.00  0.00     0.000 HD 
ENDBRANCH  14  20
ENDBRANCH   5   6
ENDBRANCH   4   5
TORSDOF 3
ENDMDL
MODEL        3
REMARK 921   NORMALIZED FREE ENERGY PREDICTED BY IDOCK:   -7.55 KCAL/MOL
REMARK 922        TOTAL FREE ENERGY PREDICTED BY IDOCK:   -9.97 KCAL/MOL
REMARK 923 INTER-LIGAND FREE ENERGY PREDICTED BY IDOCK:   -9.17 KCAL/MOL
REMARK 924 INTRA-LIGAND FREE ENERGY PREDICTED BY IDOCK:   -0.81 KCAL/MOL
REMARK 927      BINDING AFFINITY PREDICTED BY RF-SCORE:    0.00 PKD
ROOT
HETATM    1  C   UNL     1     -10.192   7.094  73.776  1.00  0.00    -0.395 C  
HETATM    2  C   UNL     1     -10.813   6.808  72.409  1.00  0.00    -0.270 C  
HETATM    3  C   UNL     1     -11.774   5.617  72.513  1.00  0.00    -0.255 C  
HETATM    4  C   UNL     1     -11.602   8.001  71.852  1.00  0.00    -0.348 C  
ENDROOT
BRANCH   4   5
HETATM    5  C   UNL     1     -10.802   9.274  71.570  1.00  0.00    -0.442 C  
BRANCH   5   6
HETATM    6  C   UNL     1     -11.694  10.219  70.737  1.00  0.00    -0.453 C  
HETATM    7  C   UNL     1     -10.973  11.047  69.649  1.00  0.00    -0.286 C  
HETATM    8  C   UNL     1     -10.207  10.073  68.736  1.00  0.00    -0.201 C  
HETATM    9  C   UNL     1     -12.007  12.115  68.928  1.00  0.00    -0.296 C  
HETATM   10  C   UNL     1     -12.408  13.160  69.970  1.00  0.00    -0.241 C  
HETATM   11  C   UNL     1     -11.314  14.205  69.907  1.00  0.00    -0.232 C  
HETATM   12  C   UNL     1     -10.400  13.836  68.702  1.00  0.00    -0.225 C  
HETATM   13  C   UNL     1      -9.716  15.090  68.178  1.00  0.00    -0.215 C  
HETATM   14  C   UNL     1      -9.338  16.102  68.992  1.00  0.00    -0.248 C  
HETATM   15  C   UNL     1      -9.490  15.048  66.701  1.00  0.00    -0.288 C  
HETATM   16  C   UNL     1     -10.973  11.970  66.663  1.00  0.00    -0.330 C  
HETATM   17  C   UNL     1     -10.811  14.707  65.969  1.00  0.00    -0.318 C  
HETATM   18  C   UNL     1     -11.347  12.989  67.767  1.00  0.00    -0.333 C  
HETATM   19  C   UNL     1     -11.969  14.128  66.891  1.00  0.00    -0.479 C  
BRANCH  14  20
HETATM   20  C   UNL     1      -8.168  16.900  68.741  1.00  0.00    -0.244 C  
HETATM   21  C   UNL     1      -6.675  18.832  68.502  1.00  0.00    -0.278 C  
HETATM   22  C   UNL     1      -8.047  18.189  68.375  1.00  0.00    -0.313 C  
HETATM   23  C   UNL     1      -6.194  19.391  67.167  1.00  0.00    -0.185 C  
HETATM   24  O   UNL     1      -5.914  18.338  66.242  1.00  0.00    -0.152 OA 
HETATM   25  C   UNL     1      -7.226  20.348  66.582  1.00  0.00    -0.317 C  
HETATM   26  H   UNL     1      -5.615  18.686  65.410  1.00  0.00     0.000 HD 
HETATM   27  C   UNL     1      -8.616  19.704  66.475  1.00  0.00    -0.354 C  
HETATM   28  C   UNL     1      -9.059  19.087  67.808  1.00  0.00    -0.331 C  
HETATM   29  O   UNL     1      -9.537  20.697  66.035  1.00  0.00    -0.625 OA 
HETATM   30  C   UNL     1     -10.218  19.389  68.403  1.00  0.00    -0.516 C  
HETATM   31  H   UNL     1     -10.397  20.298  65.969  1.00  0.00     0.000 HD 
ENDBRANCH  14  20
ENDBRANCH   5   6
ENDBRANCH   4   5
TORSDOF 3
ENDMDL
MODEL        4
REMARK 921   NORMALIZED FREE ENERGY PREDICTED BY IDOCK:   -7.53 KCAL/MOL
REMARK 922        TOTAL FREE ENERGY PREDICTED BY IDOCK:   -9.95 KCAL/MOL
REMARK 923 INTER-LIGAND FREE ENERGY PREDICTED BY IDOCK:   -9.16 KCAL/MOL
REMARK 924 INTRA-LIGAND FREE ENERGY PREDICTED BY IDOCK:   -0.80 KCAL/MOL
REMARK 927      BINDING AFFINITY PREDICTED BY RF-SCORE:    0.00 PKD
ROOT
HETATM    1  C   UNL     1     -10.812   6.711  70.440  1.00  0.00    -0.316 C  
HETATM    2  C   UNL     1     -11.074   7.870  71.401  1.00  0.00    -0.275 C  
HETATM    3  C   UNL     1     -11.400   7.325  72.798  1.00  0.00    -0.318 C  
HETATM    4  C   UNL     1      -9.872   8.815  71.536  1.00  0.00    -0.371 C  
ENDROOT
BRANCH   4   5
HETATM    5  C   UNL     1      -9.442   9.555  70.267  1.00  0.00    -0.307 C  
BRANCH   5   6
HETATM    6  C   UNL     1     -10.658  10.353  69.749  1.00  0.00    -0.302 C  
HETATM    7  C   UNL     1     -10.437  11.155  68.446  1.00  0.00    -0.211 C  
HETATM    8  C   UNL     1      -9.921  10.183  67.369  1.00  0.00    -0.238 C  
HETATM    9  C   UNL     1     -11.760  12.070  68.076  1.00  0.00    -0.398 C  
HETATM   10  C   UNL     1     -11.898  13.154  69.147  1.00  0.00    -0.364 C  
HETATM   11  C   UNL     1     -11.008  14.281  68.670  1.00  0.00    -0.268 C  
HETATM   12  C   UNL     1     -10.516  13.902  67.242  1.00  0.00    -0.271 C  
HETATM   13  C   UNL     1     -10.186  15.166  66.464  1.00  0.00    -0.283 C  
HETATM   14  C   UNL     1      -9.668  16.267  67.057  1.00  0.00    -0.244 C  
HETATM   15  C   UNL     1     -10.465  15.031  65.002  1.00  0.00    -0.415 C  
HETATM   16  C   UNL     1     -11.536  11.843  65.603  1.00  0.00    -0.314 C  
HETATM   17  C   UNL     1     -11.910  14.522  64.780  1.00  0.00    -0.446 C  
HETATM   18  C   UNL     1     -11.626  12.907  66.724  1.00  0.00    -0.416 C  
HETATM   19  C   UNL     1     -12.623  13.918  66.065  1.00  0.00    -0.467 C  
BRANCH  14  20
HETATM   20  C   UNL     1      -8.743  17.142  66.388  1.00  0.00    -0.291 C  
HETATM   21  C   UNL     1      -6.712  18.407  65.846  1.00  0.00    -0.312 C  
HETATM   22  C   UNL     1      -7.686  17.826  66.859  1.00  0.00    -0.242 C  
HETATM   23  C   UNL     1      -6.565  19.916  66.013  1.00  0.00    -0.231 C  
HETATM   24  O   UNL     1      -7.770  20.591  65.648  1.00  0.00    -0.530 OA 
HETATM   25  C   UNL     1      -6.177  20.262  67.445  1.00  0.00    -0.245 C  
HETATM   26  H   UNL     1      -7.679  21.531  65.752  1.00  0.00     0.000 HD 
HETATM   27  C   UNL     1      -7.149  19.656  68.469  1.00  0.00    -0.321 C  
HETATM   28  C   UNL     1      -7.340  18.151  68.247  1.00  0.00    -0.265 C  
HETATM   29  O   UNL     1      -6.649  19.927  69.775  1.00  0.00    -0.344 OA 
HETATM   30  C   UNL     1      -7.150  17.242  69.210  1.00  0.00    -0.155 C  
HETATM   31  H   UNL     1      -7.250  19.552  70.408  1.00  0.00     0.000 HD 
ENDBRANCH  14  20
ENDBRANCH   5   6
ENDBRANCH   4   5
TORSDOF 3
ENDMDL
MODEL        5
REMARK 921   NORMALIZED FREE ENERGY PREDICTED BY IDOCK:   -7.38 KCAL/MOL
REMARK 922        TOTAL FREE ENERGY PREDICTED BY IDOCK:   -9.78 KCAL/MOL
REMARK 923 INTER-LIGAND FREE ENERGY PREDICTED BY IDOCK:   -9.14 KCAL/MOL
REMARK 924 INTRA-LIGAND FREE ENERGY PREDICTED BY IDOCK:   -0.64 KCAL/MOL
REMARK 927      BINDING AFFINITY PREDICTED BY RF-SCORE:    0.00 PKD
ROOT
HETATM    1  C   UNL     1      -9.951   7.604  73.208  1.00  0.00    -0.379 C  
HETATM    2  C   UNL     1     -10.655   7.236  71.902  1.00  0.00    -0.238 C  
HETATM    3  C   UNL     1     -11.684   6.128  72.160  1.00  0.00    -0.361 C  
HETATM    4  C   UNL     1     -11.393   8.424  71.269  1.00  0.00    -0.314 C  
ENDROOT
BRANCH   4   5
HETATM    5  C   UNL     1     -10.529   9.608  70.833  1.00  0.00    -0.359 C  
BRANCH   5   6
HETATM    6  C   UNL     1     -11.463  10.678  70.227  1.00  0.00    -0.422 C  
HETATM    7  C   UNL     1     -10.982  11.328  68.909  1.00  0.00    -0.274 C  
HETATM    8  C   UNL     1     -10.707  10.204  67.894  1.00  0.00    -0.317 C  
HETATM    9  C   UNL     1     -11.994  12.547  68.442  1.00  0.00    -0.271 C  
HETATM   10  C   UNL     1     -11.875  13.678  69.465  1.00  0.00    -0.394 C  
HETATM   11  C   UNL     1     -10.695  14.501  68.995  1.00  0.00    -0.258 C  
HETATM   12  C   UNL     1     -10.269  13.936  67.608  1.00  0.00    -0.242 C  
HETATM   13  C   UNL     1      -9.579  15.027  66.804  1.00  0.00    -0.260 C  
HETATM   14  C   UNL     1      -8.807  15.975  67.382  1.00  0.00    -0.197 C  
HETATM   15  C   UNL     1      -9.827  14.903  65.334  1.00  0.00    -0.303 C  
HETATM   16  C   UNL     1     -11.743  12.152  65.992  1.00  0.00    -0.388 C  
HETATM   17  C   UNL     1     -11.347  14.791  65.058  1.00  0.00    -0.391 C  
HETATM   18  C   UNL     1     -11.585  13.253  67.069  1.00  0.00    -0.404 C  
HETATM   19  C   UNL     1     -12.245  14.462  66.326  1.00  0.00    -0.366 C  
BRANCH  14  20
HETATM   20  C   UNL     1      -7.654  16.537  66.730  1.00  0.00    -0.298 C  
HETATM   21  C   UNL     1      -5.677  17.917  66.279  1.00  0.00    -0.224 C  
HETATM   22  C   UNL     1      -7.068  17.739  66.867  1.00  0.00    -0.217 C  
HETATM   23  C   UNL     1      -5.638  19.066  65.276  1.00  0.00    -0.192 C  
HETATM   24  O   UNL     1      -6.389  18.748  64.103  1.00  0.00    -0.225 OA 
HETATM   25  C   UNL     1      -6.162  20.349  65.909  1.00  0.00    -0.247 C  
HETATM   26  H   UNL     1      -6.364  19.463  63.478  1.00  0.00     0.000 HD 
HETATM   27  C   UNL     1      -7.557  20.162  66.523  1.00  0.00    -0.282 C  
HETATM   28  C   UNL     1      -7.600  18.962  67.478  1.00  0.00    -0.246 C  
HETATM   29  O   UNL     1      -7.918  21.367  67.191  1.00  0.00    -0.705 OA 
HETATM   30  C   UNL     1      -8.025  19.052  68.743  1.00  0.00    -0.368 C  
HETATM   31  H   UNL     1      -8.781  21.251  67.571  1.00  0.00     0.000 HD 
ENDBRANCH  14  20
ENDBRANCH   5   6
ENDBRANCH   4   5
TORSDOF 3
ENDMDL
MODEL        6
REMARK 921   NORMALIZED FREE ENERGY PREDICTED BY IDOCK:   -7.35 KCAL/MOL
REMARK 922        TOTAL FREE ENERGY PREDICTED BY IDOCK:   -9.74 KCAL/MOL
REMARK 923 INTER-LIGAND FREE ENERGY PREDICTED BY IDOCK:   -8.75 KCAL/MOL
REMARK 924 INTRA-LIGAND FREE ENERGY PREDICTED BY IDOCK:   -0.99 KCAL/MOL
REMARK 927      BINDING AFFINITY PREDICTED BY RF-SCORE:    0.00 PKD
ROOT
HETATM    1  C   UNL     1     -11.889   9.392  71.748  1.00  0.00    -0.452 C  
HETATM    2  C   UNL     1     -12.831   8.234  72.075  1.00  0.00    -0.369 C  
HETATM    3  C   UNL     1     -14.288   8.704  71.975  1.00  0.00    -0.512 C  
HETATM    4  C   UNL     1     -12.657   7.040  71.126  1.00  0.00    -0.387 C  
ENDROOT
BRANCH   4   5
HETATM    5  C   UNL     1     -11.294   6.346  71.147  1.00  0.00    -0.376 C  
BRANCH   5   6
HETATM    6  C   UNL     1     -10.693   6.439  69.728  1.00  0.00    -0.341 C  
HETATM    7  C   UNL     1      -9.697   7.597  69.488  1.00  0.00    -0.168 C  
HETATM    8  C   UNL     1      -8.585   7.498  70.548  1.00  0.00    -0.138 C  
HETATM    9  C   UNL     1      -9.237   7.669  67.904  1.00  0.00    -0.139 C  
HETATM   10  C   UNL     1     -10.459   8.068  67.075  1.00  0.00    -0.410 C  
HETATM   11  C   UNL     1     -10.478   9.581  67.120  1.00  0.00    -0.322 C  
HETATM   12  C   UNL     1      -9.163  10.033  67.820  1.00  0.00    -0.143 C  
HETATM   13  C   UNL     1      -8.794  11.433  67.355  1.00  0.00    -0.150 C  
HETATM   14  C   UNL     1      -9.726  12.368  67.062  1.00  0.00    -0.211 C  
HETATM   15  C   UNL     1      -7.315  11.649  67.298  1.00  0.00    -0.136 C  
HETATM   16  C   UNL     1      -6.905   8.427  68.358  1.00  0.00    -0.065 C  
HETATM   17  C   UNL     1      -6.643  10.522  66.476  1.00  0.00    -0.100 C  
HETATM   18  C   UNL     1      -8.182   8.822  67.576  1.00  0.00    -0.110 C  
HETATM   19  C   UNL     1      -7.549   9.244  66.209  1.00  0.00    -0.096 C  
BRANCH  14  20
HETATM   20  C   UNL     1      -9.515  13.772  67.299  1.00  0.00    -0.236 C  
HETATM   21  C   UNL     1      -9.930  16.171  67.592  1.00  0.00    -0.241 C  
HETATM   22  C   UNL     1     -10.230  14.844  66.914  1.00  0.00    -0.254 C  
HETATM   23  C   UNL     1      -9.549  17.243  66.577  1.00  0.00    -0.273 C  
HETATM   24  O   UNL     1      -8.284  16.955  65.978  1.00  0.00    -0.447 OA 
HETATM   25  C   UNL     1     -10.624  17.376  65.506  1.00  0.00    -0.115 C  
HETATM   26  H   UNL     1      -8.046  17.622  65.346  1.00  0.00     0.000 HD 
HETATM   27  C   UNL     1     -10.941  16.029  64.837  1.00  0.00    -0.384 C  
HETATM   28  C   UNL     1     -11.257  14.943  65.873  1.00  0.00    -0.328 C  
HETATM   29  O   UNL     1     -12.031  16.221  63.940  1.00  0.00    -1.357 OA 
HETATM   30  C   UNL     1     -12.379  14.215  65.847  1.00  0.00    -0.486 C  
HETATM   31  H   UNL     1     -12.227  15.388  63.527  1.00  0.00     0.000 HD 
ENDBRANCH  14  20
ENDBRANCH   5   6
ENDBRANCH   4   5
TORSDOF 3
ENDMDL
MODEL        7
REMARK 921   NORMALIZED FREE ENERGY PREDICTED BY IDOCK:   -7.33 KCAL/MOL
REMARK 922        TOTAL FREE ENERGY PREDICTED BY IDOCK:   -9.72 KCAL/MOL
REMARK 923 INTER-LIGAND FREE ENERGY PREDICTED BY IDOCK:   -8.51 KCAL/MOL
REMARK 924 INTRA-LIGAND FREE ENERGY PREDICTED BY IDOCK:   -1.21 KCAL/MOL
REMARK 927      BINDING AFFINITY PREDICTED BY RF-SCORE:    0.00 PKD
ROOT
HETATM    1  C   UNL     1     -13.667  15.123  71.153  1.00  0.00    -0.510 C  
HETATM    2  C   UNL     1     -12.345  15.831  71.445  1.00  0.00    -0.505 C  
HETATM    3  C   UNL     1     -11.788  15.359  72.795  1.00  0.00    -0.563 C  
HETATM    4  C   UNL     1     -11.276  15.560  70.377  1.00  0.00    -0.356 C  
ENDROOT
BRANCH   4   5
HETATM    5  C   UNL     1     -11.587  16.054  68.963  1.00  0.00    -0.350 C  
BRANCH   5   6
HETATM    6  C   UNL     1     -10.538  15.448  68.007  1.00  0.00    -0.263 C  
HETATM    7  C   UNL     1     -10.813  14.005  67.526  1.00  0.00    -0.277 C  
HETATM    8  C   UNL     1     -12.215  13.972  66.890  1.00  0.00    -0.415 C  
HETATM    9  C   UNL     1      -9.555  13.424  66.627  1.00  0.00    -0.272 C  
HETATM   10  C   UNL     1      -8.347  13.270  67.552  1.00  0.00    -0.186 C  
HETATM   11  C   UNL     1      -8.510  11.900  68.175  1.00  0.00    -0.163 C  
HETATM   12  C   UNL     1      -9.711  11.214  67.459  1.00  0.00    -0.193 C  
HETATM   13  C   UNL     1      -9.554   9.704  67.534  1.00  0.00    -0.180 C  
HETATM   14  C   UNL     1      -8.996   9.085  68.600  1.00  0.00    -0.137 C  
HETATM   15  C   UNL     1     -10.108   9.008  66.332  1.00  0.00    -0.351 C  
HETATM   16  C   UNL     1     -10.961  12.068  65.077  1.00  0.00    -0.355 C  
HETATM   17  C   UNL     1      -9.527   9.632  65.039  1.00  0.00    -0.312 C  
HETATM   18  C   UNL     1      -9.774  11.947  66.063  1.00  0.00    -0.257 C  
HETATM   19  C   UNL     1      -8.813  11.039  65.226  1.00  0.00    -0.139 C  
BRANCH  14  20
HETATM   20  C   UNL     1      -9.417   7.784  69.047  1.00  0.00    -0.150 C  
HETATM   21  C   UNL     1     -10.814   5.952  69.888  1.00  0.00    -0.439 C  
HETATM   22  C   UNL     1     -10.421   7.420  69.864  1.00  0.00    -0.238 C  
HETATM   23  C   UNL     1     -10.720   5.371  71.295  1.00  0.00    -0.179 C  
HETATM   24  O   UNL     1      -9.360   5.295  71.728  1.00  0.00    -0.143 OA 
HETATM   25  C   UNL     1     -11.542   6.201  72.274  1.00  0.00    -0.362 C  
HETATM   26  H   UNL     1      -9.302   4.934  72.605  1.00  0.00     0.000 HD 
HETATM   27  C   UNL     1     -11.159   7.689  72.233  1.00  0.00    -0.286 C  
HETATM   28  C   UNL     1     -11.193   8.242  70.803  1.00  0.00    -0.284 C  
HETATM   29  O   UNL     1     -12.050   8.403  73.084  1.00  0.00    -0.479 OA 
HETATM   30  C   UNL     1     -11.899   9.324  70.455  1.00  0.00    -0.173 C  
HETATM   31  H   UNL     1     -11.814   9.323  73.057  1.00  0.00     0.000 HD 
ENDBRANCH  14  20
ENDBRANCH   5   6
ENDBRANCH   4   5
TORSDOF 3
ENDMDL
MODEL        8
REMARK 921   NORMALIZED FREE ENERGY PREDICTED BY IDOCK:   -7.19 KCAL/MOL
REMARK 922        TOTAL FREE ENERGY PREDICTED BY IDOCK:   -9.56 KCAL/MOL
REMARK 923 INTER-LIGAND FREE ENERGY PREDICTED BY IDOCK:   -8.60 KCAL/MOL
REMARK 924 INTRA-LIGAND FREE ENERGY PREDICTED BY IDOCK:   -0.96 KCAL/MOL
REMARK 927      BINDING AFFINITY PREDICTED BY RF-SCORE:    0.00 PKD
ROOT
HETATM    1  C   UNL     1     -10.261  18.139  68.532  1.00  0.00    -0.399 C  
HETATM    2  C   UNL     1     -10.673  19.128  67.442  1.00  0.00    -0.578 C  
HETATM    3  C   UNL     1      -9.983  20.479  67.677  1.00  0.00    -0.454 C  
HETATM    4  C   UNL     1     -10.299  18.650  66.032  1.00  0.00    -0.436 C  
ENDROOT
BRANCH   4   5
HETATM    5  C   UNL     1     -10.968  17.362  65.551  1.00  0.00     0.133 C  
BRANCH   5   6
HETATM    6  C   UNL     1      -9.932  16.222  65.654  1.00  0.00    -0.306 C  
HETATM    7  C   UNL     1     -10.506  14.802  65.866  1.00  0.00    -0.324 C  
HETATM    8  C   UNL     1     -11.516  14.522  64.739  1.00  0.00    -0.408 C  
HETATM    9  C   UNL     1      -9.298  13.699  66.098  1.00  0.00    -0.093 C  
HETATM   10  C   UNL     1      -8.621  14.017  67.433  1.00  0.00    -0.211 C  
HETATM   11  C   UNL     1      -9.455  13.295  68.469  1.00  0.00    -0.113 C  
HETATM   12  C   UNL     1     -10.490  12.425  67.697  1.00  0.00    -0.229 C  
HETATM   13  C   UNL     1     -10.903  11.241  68.557  1.00  0.00    -0.245 C  
HETATM   14  C   UNL     1     -11.002  11.323  69.904  1.00  0.00    -0.096 C  
HETATM   15  C   UNL     1     -11.209  10.022  67.748  1.00  0.00    -0.137 C  
HETATM   16  C   UNL     1     -10.455  11.817  64.941  1.00  0.00    -0.334 C  
HETATM   17  C   UNL     1     -10.037   9.713  66.784  1.00  0.00    -0.301 C  
HETATM   18  C   UNL     1      -9.806  12.198  66.294  1.00  0.00    -0.250 C  
HETATM   19  C   UNL     1      -8.992  10.894  66.586  1.00  0.00    -0.173 C  
BRANCH  14  20
HETATM   20  C   UNL     1     -11.976  10.576  70.654  1.00  0.00    -0.455 C  
HETATM   21  C   UNL     1     -12.985   9.053  72.292  1.00  0.00    -0.490 C  
HETATM   22  C   UNL     1     -11.861   9.423  71.336  1.00  0.00    -0.447 C  
HETATM   23  C   UNL     1     -13.585   7.694  71.950  1.00  0.00    -0.252 C  
HETATM   24  O   UNL     1     -14.292   7.743  70.709  1.00  0.00    -0.558 OA 
HETATM   25  C   UNL     1     -12.500   6.625  71.900  1.00  0.00    -0.334 C  
HETATM   26  H   UNL     1     -14.665   6.896  70.496  1.00  0.00     0.000 HD 
HETATM   27  C   UNL     1     -11.355   7.010  70.951  1.00  0.00    -0.295 C  
HETATM   28  C   UNL     1     -10.805   8.407  71.263  1.00  0.00    -0.293 C  
HETATM   29  O   UNL     1     -10.336   6.019  71.054  1.00  0.00    -0.201 OA 
HETATM   30  C   UNL     1      -9.510   8.647  71.496  1.00  0.00    -0.320 C  
HETATM   31  H   UNL     1      -9.628   6.258  70.468  1.00  0.00     0.000 HD 
ENDBRANCH  14  20
ENDBRANCH   5   6
ENDBRANCH   4   5
TORSDOF 3
ENDMDL
MODEL        9
REMARK 921   NORMALIZED FREE ENERGY PREDICTED BY IDOCK:   -7.19 KCAL/MOL
REMARK 922        TOTAL FREE ENERGY PREDICTED BY IDOCK:   -9.56 KCAL/MOL
REMARK 923 INTER-LIGAND FREE ENERGY PREDICTED BY IDOCK:   -8.08 KCAL/MOL
REMARK 924 INTRA-LIGAND FREE ENERGY PREDICTED BY IDOCK:   -1.48 KCAL/MOL
REMARK 927      BINDING AFFINITY PREDICTED BY RF-SCORE:    0.00 PKD
ROOT
HETATM    1  C   UNL     1     -11.024   9.301  71.605  1.00  0.00    -0.433 C  
HETATM    2  C   UNL     1     -12.069   8.444  72.318  1.00  0.00    -0.456 C  
HETATM    3  C   UNL     1     -13.463   9.056  72.128  1.00  0.00    -0.514 C  
HETATM    4  C   UNL     1     -12.115   7.002  71.793  1.00  0.00    -0.371 C  
ENDROOT
BRANCH   4   5
HETATM    5  C   UNL     1     -10.847   6.168  71.982  1.00  0.00    -0.292 C  
BRANCH   5   6
HETATM    6  C   UNL     1     -10.428   5.621  70.601  1.00  0.00    -0.340 C  
HETATM    7  C   UNL     1      -9.567   6.565  69.731  1.00  0.00    -0.161 C  
HETATM    8  C   UNL     1      -8.333   6.978  70.552  1.00  0.00    -0.132 C  
HETATM    9  C   UNL     1      -9.306   5.922  68.232  1.00  0.00    -0.118 C  
HETATM   10  C   UNL     1     -10.646   5.879  67.497  1.00  0.00    -0.347 C  
HETATM   11  C   UNL     1     -10.785   7.248  66.867  1.00  0.00    -0.346 C  
HETATM   12  C   UNL     1      -9.437   7.994  67.095  1.00  0.00    -0.207 C  
HETATM   13  C   UNL     1      -9.243   9.039  66.009  1.00  0.00    -0.284 C  
HETATM   14  C   UNL     1     -10.277   9.722  65.467  1.00  0.00    -0.114 C  
HETATM   15  C   UNL     1      -7.804   9.236  65.651  1.00  0.00    -0.099 C  
HETATM   16  C   UNL     1      -7.007   6.850  67.962  1.00  0.00    -0.083 C  
HETATM   17  C   UNL     1      -7.144   7.873  65.329  1.00  0.00    -0.060 C  
HETATM   18  C   UNL     1      -8.395   6.823  67.279  1.00  0.00    -0.121 C  
HETATM   19  C   UNL     1      -7.966   6.594  65.791  1.00  0.00    -0.112 C  
BRANCH  14  20
HETATM   20  C   UNL     1     -10.156  11.085  65.022  1.00  0.00    -0.354 C  
HETATM   21  C   UNL     1      -9.786  13.510  65.023  1.00  0.00    -0.084 C  
HETATM   22  C   UNL     1     -10.293  12.242  65.693  1.00  0.00    -0.287 C  
HETATM   23  C   UNL     1     -10.892  14.551  64.889  1.00  0.00    -0.421 C  
HETATM   24  O   UNL     1     -11.884  14.128  63.951  1.00  0.00    -0.653 OA 
HETATM   25  C   UNL     1     -11.531  14.833  66.244  1.00  0.00    -0.316 C  
HETATM   26  H   UNL     1     -12.573  14.777  63.868  1.00  0.00     0.000 HD 
HETATM   27  C   UNL     1     -12.023  13.549  66.929  1.00  0.00    -0.399 C  
HETATM   28  C   UNL     1     -10.919  12.486  66.996  1.00  0.00    -0.306 C  
HETATM   29  O   UNL     1     -12.494  13.888  68.229  1.00  0.00    -0.440 OA 
HETATM   30  C   UNL     1     -10.543  11.896  68.137  1.00  0.00    -0.233 C  
HETATM   31  H   UNL     1     -12.797  13.093  68.653  1.00  0.00     0.000 HD 
ENDBRANCH  14  20
ENDBRANCH   5   6
ENDBRANCH   4   5
TORSDOF 3
ENDMDL
MODEL       10
REMARK 921   NORMALIZED FREE ENERGY PREDICTED BY IDOCK:   -7.14 KCAL/MOL
REMARK 922        TOTAL FREE ENERGY PREDICTED BY IDOCK:   -9.50 KCAL/MOL
REMARK 923 INTER-LIGAND FREE ENERGY PREDICTED BY IDOCK:   -8.27 KCAL/MOL
REMARK 924 INTRA-LIGAND FREE ENERGY PREDICTED BY IDOCK:   -1.23 KCAL/MOL
REMARK 927      BINDING AFFINITY PREDICTED BY RF-SCORE:    0.00 PKD
ROOT
HETATM    1  C   UNL     1      -6.762   9.335  68.007  1.00  0.00    -0.060 C  
HETATM    2  C   UNL     1      -7.567   8.381  68.890  1.00  0.00    -0.096 C  
HETATM    3  C   UNL     1      -7.193   8.594  70.362  1.00  0.00    -0.045 C  
HETATM    4  C   UNL     1      -9.083   8.584  68.757  1.00  0.00    -0.143 C  
ENDROOT
BRANCH   4   5
HETATM    5  C   UNL     1      -9.687   8.316  67.378  1.00  0.00    -0.225 C  
BRANCH   5   6
HETATM    6  C   UNL     1     -10.745   9.406  67.103  1.00  0.00    -0.234 C  
HETATM    7  C   UNL     1     -10.209  10.744  66.543  1.00  0.00    -0.287 C  
HETATM    8  C   UNL     1      -9.396  10.439  65.272  1.00  0.00    -0.263 C  
HETATM    9  C   UNL     1     -11.414  11.867  66.426  1.00  0.00    -0.371 C  
HETATM   10  C   UNL     1     -11.865  12.225  67.843  1.00  0.00    -0.358 C  
HETATM   11  C   UNL     1     -10.915  13.317  68.285  1.00  0.00    -0.280 C  
HETATM   12  C   UNL     1     -10.049  13.698  67.048  1.00  0.00    -0.248 C  
HETATM   13  C   UNL     1      -9.563  15.131  67.188  1.00  0.00    -0.224 C  
HETATM   14  C   UNL     1      -9.255  15.678  68.387  1.00  0.00    -0.191 C  
HETATM   15  C   UNL     1      -9.438  15.828  65.871  1.00  0.00    -0.377 C  
HETATM   16  C   UNL     1     -10.532  12.963  64.366  1.00  0.00    -0.419 C  
HETATM   17  C   UNL     1     -10.756  15.692  65.070  1.00  0.00    -0.458 C  
HETATM   18  C   UNL     1     -10.950  13.271  65.824  1.00  0.00    -0.284 C  
HETATM   19  C   UNL     1     -11.766  14.589  65.605  1.00  0.00    -0.335 C  
BRANCH  14  20
HETATM   20  C   UNL     1      -8.212  16.656  68.546  1.00  0.00    -0.231 C  
HETATM   21  C   UNL     1      -7.057  18.788  68.921  1.00  0.00    -0.333 C  
HETATM   22  C   UNL     1      -8.224  17.988  68.362  1.00  0.00    -0.305 C  
HETATM   23  C   UNL     1      -6.359  19.594  67.831  1.00  0.00    -0.213 C  
HETATM   24  O   UNL     1      -5.682  18.735  66.912  1.00  0.00    -0.151 OA 
HETATM   25  C   UNL     1      -7.358  20.477  67.093  1.00  0.00    -0.374 C  
HETATM   26  H   UNL     1      -5.247  19.237  66.234  1.00  0.00     0.000 HD 
HETATM   27  C   UNL     1      -8.547  19.671  66.548  1.00  0.00    -0.354 C  
HETATM   28  C   UNL     1      -9.198  18.813  67.639  1.00  0.00    -0.310 C  
HETATM   29  O   UNL     1      -9.483  20.583  65.981  1.00  0.00    -0.642 OA 
HETATM   30  C   UNL     1     -10.503  18.865  67.927  1.00  0.00    -0.459 C  
HETATM   31  H   UNL     1     -10.218  20.085  65.644  1.00  0.00     0.000 HD 
ENDBRANCH  14  20
ENDBRANCH   5   6
ENDBRANCH   4   5
TORSDOF 3
ENDMDL
MODEL       11
REMARK 921   NORMALIZED FREE ENERGY PREDICTED BY IDOCK:   -7.02 KCAL/MOL
REMARK 922        TOTAL FREE ENERGY PREDICTED BY IDOCK:   -9.35 KCAL/MOL
REMARK 923 INTER-LIGAND FREE ENERGY PREDICTED BY IDOCK:   -8.61 KCAL/MOL
REMARK 924 INTRA-LIGAND FREE ENERGY PREDICTED BY IDOCK:   -0.74 KCAL/MOL
REMARK 927      BINDING AFFINITY PREDICTED BY RF-SCORE:    0.00 PKD
ROOT
HETATM    1  C   UNL     1      -7.411  18.525  68.398  1.00  0.00    -0.315 C  
HETATM    2  C   UNL     1      -7.960  18.398  66.977  1.00  0.00    -0.238 C  
HETATM    3  C   UNL     1      -7.500  19.593  66.132  1.00  0.00    -0.316 C  
HETATM    4  C   UNL     1      -7.492  17.117  66.271  1.00  0.00    -0.344 C  
ENDROOT
BRANCH   4   5
HETATM    5  C   UNL     1      -7.938  15.794  66.896  1.00  0.00    -0.285 C  
BRANCH   5   6
HETATM    6  C   UNL     1      -9.455  15.886  67.168  1.00  0.00    -0.221 C  
HETATM    7  C   UNL     1      -9.931  15.354  68.539  1.00  0.00    -0.213 C  
HETATM    8  C   UNL     1      -9.133  16.080  69.637  1.00  0.00     0.037 C  
HETATM    9  C   UNL     1     -11.579  15.379  68.650  1.00  0.00    -0.373 C  
HETATM   10  C   UNL     1     -12.134  14.359  67.655  1.00  0.00    -0.312 C  
HETATM   11  C   UNL     1     -12.122  13.044  68.405  1.00  0.00    -0.193 C  
HETATM   12  C   UNL     1     -11.733  13.362  69.878  1.00  0.00    -0.337 C  
HETATM   13  C   UNL     1     -12.299  12.292  70.798  1.00  0.00    -0.383 C  
HETATM   14  C   UNL     1     -12.407  10.997  70.422  1.00  0.00    -0.442 C  
HETATM   15  C   UNL     1     -12.677  12.829  72.141  1.00  0.00    -0.070 C  
HETATM   16  C   UNL     1     -11.655  15.913  71.085  1.00  0.00    -0.481 C  
HETATM   17  C   UNL     1     -13.598  14.064  71.982  1.00  0.00    -0.552 C  
HETATM   18  C   UNL     1     -12.153  14.874  70.051  1.00  0.00    -0.387 C  
HETATM   19  C   UNL     1     -13.634  14.700  70.526  1.00  0.00     0.175 C  
BRANCH  14  20
HETATM   20  C   UNL     1     -12.254   9.907  71.349  1.00  0.00    -0.499 C  
HETATM   21  C   UNL     1     -11.299   8.005  72.568  1.00  0.00    -0.469 C  
HETATM   22  C   UNL     1     -11.483   8.807  71.290  1.00  0.00    -0.355 C  
HETATM   23  C   UNL     1     -11.738   6.556  72.388  1.00  0.00    -0.234 C  
HETATM   24  O   UNL     1     -13.154   6.468  72.215  1.00  0.00    -0.548 OA 
HETATM   25  C   UNL     1     -11.020   5.921  71.203  1.00  0.00    -0.327 C  
HETATM   26  H   UNL     1     -13.428   5.565  72.103  1.00  0.00     0.000 HD 
HETATM   27  C   UNL     1     -11.189   6.744  69.917  1.00  0.00    -0.326 C  
HETATM   28  C   UNL     1     -10.807   8.214  70.131  1.00  0.00    -0.241 C  
HETATM   29  O   UNL     1     -10.394   6.147  68.897  1.00  0.00    -0.170 OA 
HETATM   30  C   UNL     1      -9.912   8.853  69.371  1.00  0.00    -0.192 C  
HETATM   31  H   UNL     1     -10.498   6.656  68.101  1.00  0.00     0.000 HD 
ENDBRANCH  14  20
ENDBRANCH   5   6
ENDBRANCH   4   5
TORSDOF 3
ENDMDL
MODEL       12
REMARK 921   NORMALIZED FREE ENERGY PREDICTED BY IDOCK:   -7.00 KCAL/MOL
REMARK 922        TOTAL FREE ENERGY PREDICTED BY IDOCK:   -9.34 KCAL/MOL
REMARK 923 INTER-LIGAND FREE ENERGY PREDICTED BY IDOCK:   -8.50 KCAL/MOL
REMARK 924 INTRA-LIGAND FREE ENERGY PREDICTED BY IDOCK:   -0.84 KCAL/MOL
REMARK 927      BINDING AFFINITY PREDICTED BY RF-SCORE:    0.00 PKD
ROOT
HETATM    1  C   UNL     1      -8.841   6.657  70.808  1.00  0.00    -0.147 C  
HETATM    2  C   UNL     1      -9.248   5.876  69.559  1.00  0.00    -0.149 C  
HETATM    3  C   UNL     1     -10.016   4.611  69.964  1.00  0.00    -0.302 C  
HETATM    4  C   UNL     1     -10.147   6.689  68.617  1.00  0.00    -0.169 C  
ENDROOT
BRANCH   4   5
HETATM    5  C   UNL     1      -9.530   7.949  68.007  1.00  0.00    -0.159 C  
BRANCH   5   6
HETATM    6  C   UNL     1     -10.626   9.035  67.956  1.00  0.00    -0.242 C  
HETATM    7  C   UNL     1     -10.328  10.256  67.055  1.00  0.00    -0.299 C  
HETATM    8  C   UNL     1     -10.003   9.739  65.642  1.00  0.00    -0.352 C  
HETATM    9  C   UNL     1     -11.508  11.403  67.195  1.00  0.00    -0.268 C  
HETATM   10  C   UNL     1     -11.443  11.977  68.611  1.00  0.00    -0.350 C  
HETATM   11  C   UNL     1     -10.406  13.077  68.534  1.00  0.00    -0.247 C  
HETATM   12  C   UNL     1     -10.027  13.242  67.033  1.00  0.00    -0.238 C  
HETATM   13  C   UNL     1      -9.533  14.658  66.784  1.00  0.00    -0.275 C  
HETATM   14  C   UNL     1      -8.833  15.355  67.709  1.00  0.00    -0.170 C  
HETATM   15  C   UNL     1      -9.878  15.156  65.417  1.00  0.00    -0.309 C  
HETATM   16  C   UNL     1     -11.403  12.158  64.820  1.00  0.00    -0.378 C  
HETATM   17  C   UNL     1     -11.391  14.966  65.147  1.00  0.00    -0.379 C  
HETATM   18  C   UNL     1     -11.292  12.687  66.270  1.00  0.00    -0.376 C  
HETATM   19  C   UNL     1     -12.144  13.995  66.153  1.00  0.00    -0.471 C  
BRANCH  14  20
HETATM   20  C   UNL     1      -7.808  16.299  67.353  1.00  0.00    -0.184 C  
HETATM   21  C   UNL     1      -6.450  18.340  67.271  1.00  0.00    -0.191 C  
HETATM   22  C   UNL     1      -7.794  17.642  67.413  1.00  0.00    -0.217 C  
HETATM   23  C   UNL     1      -6.456  19.334  66.115  1.00  0.00    -0.197 C  
HETATM   24  O   UNL     1      -6.542  18.659  64.859  1.00  0.00    -0.514 OA 
HETATM   25  C   UNL     1      -7.604  20.325  66.264  1.00  0.00    -0.255 C  
HETATM   26  H   UNL     1      -6.546  19.278  64.138  1.00  0.00     0.000 HD 
HETATM   27  C   UNL     1      -8.958  19.618  66.429  1.00  0.00    -0.378 C  
HETATM   28  C   UNL     1      -8.919  18.573  67.551  1.00  0.00    -0.286 C  
HETATM   29  O   UNL     1      -9.952  20.607  66.679  1.00  0.00    -0.579 OA 
HETATM   30  C   UNL     1      -9.788  18.561  68.567  1.00  0.00    -0.414 C  
HETATM   31  H   UNL     1     -10.789  20.170  66.781  1.00  0.00     0.000 HD 
ENDBRANCH  14  20
ENDBRANCH   5   6
ENDBRANCH   4   5
TORSDOF 3
ENDMDL
MODEL       13
REMARK 921   NORMALIZED FREE ENERGY PREDICTED BY IDOCK:   -6.87 KCAL/MOL
REMARK 922        TOTAL FREE ENERGY PREDICTED BY IDOCK:   -9.18 KCAL/MOL
REMARK 923 INTER-LIGAND FREE ENERGY PREDICTED BY IDOCK:   -8.13 KCAL/MOL
REMARK 924 INTRA-LIGAND FREE ENERGY PREDICTED BY IDOCK:   -1.05 KCAL/MOL
REMARK 927      BINDING AFFINITY PREDICTED BY RF-SCORE:    0.00 PKD
ROOT
HETATM    1  C   UNL     1     -10.643  19.575  66.017  1.00  0.00    -0.589 C  
HETATM    2  C   UNL     1      -9.506  19.175  66.955  1.00  0.00    -0.367 C  
HETATM    3  C   UNL     1      -8.722  20.423  67.384  1.00  0.00    -0.415 C  
HETATM    4  C   UNL     1     -10.002  18.473  68.227  1.00  0.00    -0.409 C  
ENDROOT
BRANCH   4   5
HETATM    5  C   UNL     1     -10.724  17.139  68.030  1.00  0.00    -0.372 C  
BRANCH   5   6
HETATM    6  C   UNL     1      -9.771  16.193  67.268  1.00  0.00    -0.233 C  
HETATM    7  C   UNL     1     -10.270  14.742  67.073  1.00  0.00    -0.253 C  
HETATM    8  C   UNL     1     -11.648  14.799  66.388  1.00  0.00    -0.301 C  
HETATM    9  C   UNL     1      -9.109  13.800  66.372  1.00  0.00    -0.083 C  
HETATM   10  C   UNL     1      -7.957  13.654  67.368  1.00  0.00    -0.177 C  
HETATM   11  C   UNL     1      -8.351  12.484  68.244  1.00  0.00    -0.167 C  
HETATM   12  C   UNL     1      -9.636  11.861  67.622  1.00  0.00    -0.185 C  
HETATM   13  C   UNL     1      -9.727  10.393  68.006  1.00  0.00    -0.166 C  
HETATM   14  C   UNL     1      -9.295   9.928  69.200  1.00  0.00    -0.197 C  
HETATM   15  C   UNL     1     -10.368   9.559  66.942  1.00  0.00    -0.307 C  
HETATM   16  C   UNL     1     -10.692  12.391  65.059  1.00  0.00    -0.329 C  
HETATM   17  C   UNL     1      -9.672   9.805  65.581  1.00  0.00    -0.357 C  
HETATM   18  C   UNL     1      -9.556  12.291  66.106  1.00  0.00    -0.248 C  
HETATM   19  C   UNL     1      -8.742  11.092  65.517  1.00  0.00    -0.144 C  
BRANCH  14  20
HETATM   20  C   UNL     1      -9.930   8.829  69.878  1.00  0.00    -0.193 C  
HETATM   21  C   UNL     1     -11.650   7.319  70.761  1.00  0.00    -0.334 C  
HETATM   22  C   UNL     1     -11.166   8.714  70.396  1.00  0.00    -0.236 C  
HETATM   23  C   UNL     1     -12.052   7.234  72.229  1.00  0.00    -0.191 C  
HETATM   24  O   UNL     1     -10.911   7.354  73.080  1.00  0.00    -0.343 OA 
HETATM   25  C   UNL     1     -13.080   8.306  72.568  1.00  0.00    -0.129 C  
HETATM   26  H   UNL     1     -11.161   7.300  73.995  1.00  0.00     0.000 HD 
HETATM   27  C   UNL     1     -12.598   9.711  72.179  1.00  0.00    -0.308 C  
HETATM   28  C   UNL     1     -12.134   9.767  70.718  1.00  0.00    -0.364 C  
HETATM   29  O   UNL     1     -13.660  10.631  72.419  1.00  0.00    -0.565 OA 
HETATM   30  C   UNL     1     -12.613  10.649  69.833  1.00  0.00    -0.168 C  
HETATM   31  H   UNL     1     -13.361  11.500  72.177  1.00  0.00     0.000 HD 
ENDBRANCH  14  20
ENDBRANCH   5   6
ENDBRANCH   4   5
TORSDOF 3
ENDMDL
MODEL       14
REMARK 921   NORMALIZED FREE ENERGY PREDICTED BY IDOCK:   -6.79 KCAL/MOL
REMARK 922        TOTAL FREE ENERGY PREDICTED BY IDOCK:   -9.09 KCAL/MOL
REMARK 923 INTER-LIGAND FREE ENERGY PREDICTED BY IDOCK:   -7.99 KCAL/MOL
REMARK 924 INTRA-LIGAND FREE ENERGY PREDICTED BY IDOCK:   -1.10 KCAL/MOL
REMARK 927      BINDING AFFINITY PREDICTED BY RF-SCORE:    0.00 PKD
ROOT
HETATM    1  C   UNL     1      -8.825  18.434  68.391  1.00  0.00    -0.340 C  
HETATM    2  C   UNL     1     -10.122  18.136  67.640  1.00  0.00    -0.367 C  
HETATM    3  C   UNL     1     -10.764  19.448  67.169  1.00  0.00    -0.593 C  
HETATM    4  C   UNL     1      -9.905  17.251  66.405  1.00  0.00    -0.310 C  
ENDROOT
BRANCH   4   5
HETATM    5  C   UNL     1      -9.366  15.843  66.664  1.00  0.00    -0.274 C  
BRANCH   5   6
HETATM    6  C   UNL     1     -10.574  14.897  66.839  1.00  0.00    -0.300 C  
HETATM    7  C   UNL     1     -10.555  13.999  68.097  1.00  0.00    -0.252 C  
HETATM    8  C   UNL     1     -10.388  14.907  69.330  1.00  0.00    -0.240 C  
HETATM    9  C   UNL     1     -11.823  12.942  68.095  1.00  0.00    -0.380 C  
HETATM   10  C   UNL     1     -11.613  11.955  66.946  1.00  0.00    -0.358 C  
HETATM   11  C   UNL     1     -10.733  10.870  67.526  1.00  0.00    -0.299 C  
HETATM   12  C   UNL     1     -10.602  11.155  69.052  1.00  0.00    -0.251 C  
HETATM   13  C   UNL     1     -10.316   9.857  69.790  1.00  0.00    -0.278 C  
HETATM   14  C   UNL     1      -9.570   8.866  69.251  1.00  0.00    -0.162 C  
HETATM   15  C   UNL     1     -10.916   9.830  71.160  1.00  0.00    -0.386 C  
HETATM   16  C   UNL     1     -12.161  12.956  70.566  1.00  0.00    -0.395 C  
HETATM   17  C   UNL     1     -12.420  10.189  71.090  1.00  0.00    -0.490 C  
HETATM   18  C   UNL     1     -11.896  11.997  69.380  1.00  0.00    -0.384 C  
HETATM   19  C   UNL     1     -12.899  10.846  69.725  1.00  0.00     0.125 C  
BRANCH  14  20
HETATM   20  C   UNL     1      -8.724   8.015  70.045  1.00  0.00    -0.135 C  
HETATM   21  C   UNL     1      -7.853   6.056  71.237  1.00  0.00    -0.112 C  
HETATM   22  C   UNL     1      -9.013   6.923  70.773  1.00  0.00    -0.150 C  
HETATM   23  C   UNL     1      -7.840   5.905  72.754  1.00  0.00    -0.104 C  
HETATM   24  O   UNL     1      -7.522   7.145  73.390  1.00  0.00    -0.075 OA 
HETATM   25  C   UNL     1      -9.182   5.383  73.253  1.00  0.00    -0.132 C  
HETATM   26  H   UNL     1      -7.514   7.051  74.335  1.00  0.00     0.000 HD 
HETATM   27  C   UNL     1     -10.355   6.247  72.766  1.00  0.00    -0.197 C  
HETATM   28  C   UNL     1     -10.318   6.447  71.246  1.00  0.00    -0.244 C  
HETATM   29  O   UNL     1     -11.569   5.625  73.175  1.00  0.00    -0.508 OA 
HETATM   30  C   UNL     1     -11.351   6.159  70.446  1.00  0.00    -0.399 C  
HETATM   31  H   UNL     1     -12.294   6.159  72.873  1.00  0.00     0.000 HD 
ENDBRANCH  14  20
ENDBRANCH   5   6
ENDBRANCH   4   5
TORSDOF 3
ENDMDL
MODEL       15
REMARK 921   NORMALIZED FREE ENERGY PREDICTED BY IDOCK:   -6.70 KCAL/MOL
REMARK 922        TOTAL FREE ENERGY PREDICTED BY IDOCK:   -8.98 KCAL/MOL
REMARK 923 INTER-LIGAND FREE ENERGY PREDICTED BY IDOCK:   -8.09 KCAL/MOL
REMARK 924 INTRA-LIGAND FREE ENERGY PREDICTED BY IDOCK:   -0.89 KCAL/MOL
REMARK 927      BINDING AFFINITY PREDICTED BY RF-SCORE:    0.00 PKD
ROOT
HETATM    1  C   UNL     1      -8.891  20.560  67.066  1.00  0.00    -0.357 C  
HETATM    2  C   UNL     1      -7.468  20.005  67.103  1.00  0.00    -0.306 C  
HETATM    3  C   UNL     1      -6.467  21.112  66.749  1.00  0.00    -0.376 C  
HETATM    4  C   UNL     1      -7.082  19.448  68.481  1.00  0.00    -0.350 C  
ENDROOT
BRANCH   4   5
HETATM    5  C   UNL     1      -7.894  18.253  68.983  1.00  0.00    -0.128 C  
BRANCH   5   6
HETATM    6  C   UNL     1      -7.829  17.148  67.907  1.00  0.00    -0.196 C  
HETATM    7  C   UNL     1      -9.041  16.192  67.843  1.00  0.00    -0.192 C  
HETATM    8  C   UNL     1     -10.314  17.042  67.677  1.00  0.00    -0.332 C  
HETATM    9  C   UNL     1      -8.788  14.978  66.752  1.00  0.00    -0.299 C  
HETATM   10  C   UNL     1      -7.659  14.094  67.284  1.00  0.00    -0.104 C  
HETATM   11  C   UNL     1      -8.345  13.103  68.200  1.00  0.00    -0.161 C  
HETATM   12  C   UNL     1      -9.878  13.316  68.036  1.00  0.00    -0.230 C  
HETATM   13  C   UNL     1     -10.612  12.028  68.375  1.00  0.00    -0.236 C  
HETATM   14  C   UNL     1     -10.175  11.175  69.330  1.00  0.00    -0.110 C  
HETATM   15  C   UNL     1     -11.857  11.845  67.568  1.00  0.00    -0.249 C  
HETATM   16  C   UNL     1     -11.164  14.808  66.014  1.00  0.00    -0.341 C  
HETATM   17  C   UNL     1     -11.543  12.006  66.060  1.00  0.00    -0.371 C  
HETATM   18  C   UNL     1     -10.009  13.961  66.602  1.00  0.00    -0.279 C  
HETATM   19  C   UNL     1     -10.139  12.671  65.725  1.00  0.00    -0.284 C  
BRANCH  14  20
HETATM   20  C   UNL     1     -11.072  10.401  70.145  1.00  0.00    -0.383 C  
HETATM   21  C   UNL     1     -11.942   8.973  71.940  1.00  0.00    -0.445 C  
HETATM   22  C   UNL     1     -10.835   9.371  70.976  1.00  0.00    -0.406 C  
HETATM   23  C   UNL     1     -12.336   7.510  71.765  1.00  0.00    -0.326 C  
HETATM   24  O   UNL     1     -12.984   7.301  70.508  1.00  0.00    -0.540 OA 
HETATM   25  C   UNL     1     -11.115   6.606  71.888  1.00  0.00    -0.289 C  
HETATM   26  H   UNL     1     -13.229   6.390  70.399  1.00  0.00     0.000 HD 
HETATM   27  C   UNL     1      -9.989   7.024  70.929  1.00  0.00    -0.193 C  
HETATM   28  C   UNL     1      -9.649   8.513  71.069  1.00  0.00    -0.241 C  
HETATM   29  O   UNL     1      -8.852   6.207  71.193  1.00  0.00    -0.138 OA 
HETATM   30  C   UNL     1      -8.411   8.959  71.306  1.00  0.00    -0.223 C  
HETATM   31  H   UNL     1      -8.156   6.466  70.600  1.00  0.00     0.000 HD 
ENDBRANCH  14  20
ENDBRANCH   5   6
ENDBRANCH   4   5
TORSDOF 3
ENDMDL
MODEL       16
REMARK 921   NORMALIZED FREE ENERGY PREDICTED BY IDOCK:   -6.64 KCAL/MOL
REMARK 922        TOTAL FREE ENERGY PREDICTED BY IDOCK:   -8.91 KCAL/MOL
REMARK 923 INTER-LIGAND FREE ENERGY PREDICTED BY IDOCK:   -7.93 KCAL/MOL
REMARK 924 INTRA-LIGAND FREE ENERGY PREDICTED BY IDOCK:   -0.98 KCAL/MOL
REMARK 927      BINDING AFFINITY PREDICTED BY RF-SCORE:    0.00 PKD
ROOT
HETATM    1  C   UNL     1      -5.752  14.984  69.027  1.00  0.00    -0.096 C  
HETATM    2  C   UNL     1      -6.051  14.240  67.727  1.00  0.00    -0.132 C  
HETATM    3  C   UNL     1      -5.782  12.741  67.911  1.00  0.00    -0.116 C  
HETATM    4  C   UNL     1      -7.507  14.403  67.269  1.00  0.00    -0.103 C  
ENDROOT
BRANCH   4   5
HETATM    5  C   UNL     1      -7.957  15.824  66.924  1.00  0.00    -0.285 C  
BRANCH   5   6
HETATM    6  C   UNL     1      -9.472  15.922  67.206  1.00  0.00    -0.217 C  
HETATM    7  C   UNL     1      -9.941  15.393  68.581  1.00  0.00    -0.210 C  
HETATM    8  C   UNL     1      -9.134  16.117  69.673  1.00  0.00     0.119 C  
HETATM    9  C   UNL     1     -11.588  15.425  68.702  1.00  0.00    -0.373 C  
HETATM   10  C   UNL     1     -12.154  14.406  67.712  1.00  0.00    -0.304 C  
HETATM   11  C   UNL     1     -12.142  13.091  68.463  1.00  0.00    -0.185 C  
HETATM   12  C   UNL     1     -11.742  13.410  69.933  1.00  0.00    -0.337 C  
HETATM   13  C   UNL     1     -12.306  12.343  70.858  1.00  0.00    -0.358 C  
HETATM   14  C   UNL     1     -12.422  11.047  70.484  1.00  0.00    -0.432 C  
HETATM   15  C   UNL     1     -12.674  12.882  72.203  1.00  0.00    -0.086 C  
HETATM   16  C   UNL     1     -11.646  15.961  71.137  1.00  0.00    -0.481 C  
HETATM   17  C   UNL     1     -13.591  14.121  72.048  1.00  0.00    -0.540 C  
HETATM   18  C   UNL     1     -12.155  14.923  70.108  1.00  0.00    -0.379 C  
HETATM   19  C   UNL     1     -13.634  14.755  70.592  1.00  0.00    -0.033 C  
BRANCH  14  20
HETATM   20  C   UNL     1     -12.267   9.958  71.411  1.00  0.00    -0.499 C  
HETATM   21  C   UNL     1     -11.309   8.057  72.630  1.00  0.00    -0.469 C  
HETATM   22  C   UNL     1     -11.495   8.859  71.352  1.00  0.00    -0.381 C  
HETATM   23  C   UNL     1     -11.746   6.608  72.450  1.00  0.00    -0.225 C  
HETATM   24  O   UNL     1     -13.162   6.517  72.278  1.00  0.00    -0.539 OA 
HETATM   25  C   UNL     1     -11.027   5.973  71.266  1.00  0.00    -0.340 C  
HETATM   26  H   UNL     1     -13.434   5.614  72.166  1.00  0.00     0.000 HD 
HETATM   27  C   UNL     1     -11.198   6.796  69.979  1.00  0.00    -0.328 C  
HETATM   28  C   UNL     1     -10.818   8.266  70.193  1.00  0.00    -0.237 C  
HETATM   29  O   UNL     1     -10.402   6.200  68.959  1.00  0.00    -0.173 OA 
HETATM   30  C   UNL     1      -9.924   8.907  69.432  1.00  0.00    -0.192 C  
HETATM   31  H   UNL     1     -10.507   6.709  68.163  1.00  0.00     0.000 HD 
ENDBRANCH  14  20
ENDBRANCH   5   6
ENDBRANCH   4   5
TORSDOF 3
ENDMDL
MODEL       17
REMARK 921   NORMALIZED FREE ENERGY PREDICTED BY IDOCK:   -6.62 KCAL/MOL
REMARK 922        TOTAL FREE ENERGY PREDICTED BY IDOCK:   -8.89 KCAL/MOL
REMARK 923 INTER-LIGAND FREE ENERGY PREDICTED BY IDOCK:   -7.50 KCAL/MOL
REMARK 924 INTRA-LIGAND FREE ENERGY PREDICTED BY IDOCK:   -1.39 KCAL/MOL
REMARK 927      BINDING AFFINITY PREDICTED BY RF-SCORE:    0.00 PKD
ROOT
HETATM    1  C   UNL     1      -7.064   8.210  69.728  1.00  0.00    -0.060 C  
HETATM    2  C   UNL     1      -7.316   9.612  69.175  1.00  0.00    -0.077 C  
HETATM    3  C   UNL     1      -6.882  10.664  70.204  1.00  0.00    -0.119 C  
HETATM    4  C   UNL     1      -6.550   9.885  67.873  1.00  0.00    -0.064 C  
ENDROOT
BRANCH   4   5
HETATM    5  C   UNL     1      -6.912   9.008  66.673  1.00  0.00    -0.081 C  
BRANCH   5   6
HETATM    6  C   UNL     1      -8.424   9.173  66.405  1.00  0.00    -0.129 C  
HETATM    7  C   UNL     1      -8.854  10.504  65.747  1.00  0.00    -0.190 C  
HETATM    8  C   UNL     1      -8.046  10.678  64.448  1.00  0.00     0.044 C  
HETATM    9  C   UNL     1     -10.498  10.614  65.643  1.00  0.00    -0.235 C  
HETATM   10  C   UNL     1     -11.055  10.719  67.063  1.00  0.00    -0.245 C  
HETATM   11  C   UNL     1     -10.995  12.195  67.393  1.00  0.00    -0.308 C  
HETATM   12  C   UNL     1     -10.577  12.937  66.090  1.00  0.00    -0.287 C  
HETATM   13  C   UNL     1     -11.097  14.365  66.127  1.00  0.00    -0.330 C  
HETATM   14  C   UNL     1     -11.185  15.074  67.277  1.00  0.00    -0.339 C  
HETATM   15  C   UNL     1     -11.454  14.883  64.771  1.00  0.00    -0.410 C  
HETATM   16  C   UNL     1     -10.527  11.859  63.482  1.00  0.00    -0.505 C  
HETATM   17  C   UNL     1     -12.405  13.893  64.056  1.00  0.00    -0.355 C  
HETATM   18  C   UNL     1     -11.026  11.949  64.944  1.00  0.00    -0.367 C  
HETATM   19  C   UNL     1     -12.491  12.445  64.705  1.00  0.00    -0.500 C  
BRANCH  14  20
HETATM   20  C   UNL     1     -10.985  16.498  67.324  1.00  0.00    -0.084 C  
HETATM   21  C   UNL     1      -9.971  18.716  67.061  1.00  0.00    -0.368 C  
HETATM   22  C   UNL     1      -9.854  17.225  67.332  1.00  0.00    -0.272 C  
HETATM   23  C   UNL     1      -9.390  19.540  68.204  1.00  0.00    -0.350 C  
HETATM   24  O   UNL     1     -10.189  19.417  69.383  1.00  0.00    -0.591 OA 
HETATM   25  C   UNL     1      -7.953  19.121  68.492  1.00  0.00    -0.386 C  
HETATM   26  H   UNL     1      -9.826  19.930  70.095  1.00  0.00     0.000 HD 
HETATM   27  C   UNL     1      -7.832  17.611  68.744  1.00  0.00    -0.242 C  
HETATM   28  C   UNL     1      -8.481  16.795  67.620  1.00  0.00    -0.197 C  
HETATM   29  O   UNL     1      -6.452  17.290  68.886  1.00  0.00    -0.180 OA 
HETATM   30  C   UNL     1      -7.833  15.838  66.946  1.00  0.00    -0.271 C  
HETATM   31  H   UNL     1      -6.377  16.355  69.041  1.00  0.00     0.000 HD 
ENDBRANCH  14  20
ENDBRANCH   5   6
ENDBRANCH   4   5
TORSDOF 3
ENDMDL
MODEL       18
REMARK 921   NORMALIZED FREE ENERGY PREDICTED BY IDOCK:   -6.52 KCAL/MOL
REMARK 922        TOTAL FREE ENERGY PREDICTED BY IDOCK:   -8.77 KCAL/MOL
REMARK 923 INTER-LIGAND FREE ENERGY PREDICTED BY IDOCK:   -7.84 KCAL/MOL
REMARK 924 INTRA-LIGAND FREE ENERGY PREDICTED BY IDOCK:   -0.93 KCAL/MOL
REMARK 927      BINDING AFFINITY PREDICTED BY RF-SCORE:    0.00 PKD
ROOT
HETATM    1  C   UNL     1     -10.086  19.726  68.339  1.00  0.00    -0.568 C  
HETATM    2  C   UNL     1     -10.516  18.984  67.074  1.00  0.00    -0.514 C  
HETATM    3  C   UNL     1     -10.491  19.940  65.875  1.00  0.00    -0.567 C  
HETATM    4  C   UNL     1      -9.604  17.794  66.743  1.00  0.00    -0.301 C  
ENDROOT
BRANCH   4   5
HETATM    5  C   UNL     1      -9.565  16.660  67.770  1.00  0.00    -0.236 C  
BRANCH   5   6
HETATM    6  C   UNL     1      -9.073  15.386  67.051  1.00  0.00    -0.247 C  
HETATM    7  C   UNL     1      -9.822  14.079  67.400  1.00  0.00    -0.240 C  
HETATM    8  C   UNL     1     -11.323  14.306  67.144  1.00  0.00    -0.352 C  
HETATM    9  C   UNL     1      -9.114  12.774  66.676  1.00  0.00    -0.188 C  
HETATM   10  C   UNL     1      -7.733  12.577  67.305  1.00  0.00    -0.146 C  
HETATM   11  C   UNL     1      -7.988  11.734  68.536  1.00  0.00    -0.145 C  
HETATM   12  C   UNL     1      -9.484  11.306  68.494  1.00  0.00    -0.191 C  
HETATM   13  C   UNL     1      -9.665  10.008  69.265  1.00  0.00    -0.227 C  
HETATM   14  C   UNL     1      -8.937   9.713  70.367  1.00  0.00    -0.239 C  
HETATM   15  C   UNL     1     -10.739   9.141  68.690  1.00  0.00    -0.156 C  
HETATM   16  C   UNL     1     -11.236  11.522  66.291  1.00  0.00    -0.286 C  
HETATM   17  C   UNL     1     -10.504   8.937  67.173  1.00  0.00    -0.344 C  
HETATM   18  C   UNL     1      -9.847  11.385  66.960  1.00  0.00    -0.214 C  
HETATM   19  C   UNL     1      -9.464   9.936  66.507  1.00  0.00    -0.230 C  
BRANCH  14  20
HETATM   20  C   UNL     1      -9.471   8.950  71.464  1.00  0.00    -0.347 C  
HETATM   21  C   UNL     1      -9.785   7.182  73.135  1.00  0.00    -0.232 C  
HETATM   22  C   UNL     1      -9.398   7.635  71.736  1.00  0.00    -0.176 C  
HETATM   23  C   UNL     1     -10.905   6.148  73.097  1.00  0.00    -0.254 C  
HETATM   24  O   UNL     1     -12.130   6.736  72.655  1.00  0.00    -0.498 OA 
HETATM   25  C   UNL     1     -10.526   4.977  72.199  1.00  0.00    -0.274 C  
HETATM   26  H   UNL     1     -12.828   6.092  72.632  1.00  0.00     0.000 HD 
HETATM   27  C   UNL     1     -10.114   5.439  70.793  1.00  0.00    -0.220 C  
HETATM   28  C   UNL     1      -9.034   6.527  70.847  1.00  0.00    -0.147 C  
HETATM   29  O   UNL     1      -9.664   4.302  70.062  1.00  0.00    -0.193 OA 
HETATM   30  C   UNL     1      -7.870   6.433  70.195  1.00  0.00    -0.107 C  
HETATM   31  H   UNL     1      -9.409   4.587  69.193  1.00  0.00     0.000 HD 
ENDBRANCH  14  20
ENDBRANCH   5   6
ENDBRANCH   4   5
TORSDOF 3
ENDMDL
MODEL       19
REMARK 921   NORMALIZED FREE ENERGY PREDICTED BY IDOCK:   -6.45 KCAL/MOL
REMARK 922        TOTAL FREE ENERGY PREDICTED BY IDOCK:   -8.69 KCAL/MOL
REMARK 923 INTER-LIGAND FREE ENERGY PREDICTED BY IDOCK:   -8.02 KCAL/MOL
REMARK 924 INTRA-LIGAND FREE ENERGY PREDICTED BY IDOCK:   -0.67 KCAL/MOL
REMARK 927      BINDING AFFINITY PREDICTED BY RF-SCORE:    0.00 PKD
ROOT
HETATM    1  C   UNL     1      -5.884   7.772  67.799  1.00  0.00    -0.040 C  
HETATM    2  C   UNL     1      -6.863   7.938  68.960  1.00  0.00    -0.057 C  
HETATM    3  C   UNL     1      -6.124   8.474  70.193  1.00  0.00    -0.034 C  
HETATM    4  C   UNL     1      -8.006   8.911  68.640  1.00  0.00    -0.103 C  
ENDROOT
BRANCH   4   5
HETATM    5  C   UNL     1      -8.943   8.508  67.499  1.00  0.00    -0.142 C  
BRANCH   5   6
HETATM    6  C   UNL     1     -10.180   9.430  67.554  1.00  0.00    -0.288 C  
HETATM    7  C   UNL     1     -10.190  10.609  66.554  1.00  0.00    -0.288 C  
HETATM    8  C   UNL     1      -9.997  10.037  65.138  1.00  0.00    -0.350 C  
HETATM    9  C   UNL     1     -11.491  11.595  66.806  1.00  0.00    -0.299 C  
HETATM   10  C   UNL     1     -11.310  12.276  68.164  1.00  0.00    -0.349 C  
HETATM   11  C   UNL     1     -10.465  13.497  67.873  1.00  0.00    -0.253 C  
HETATM   12  C   UNL     1     -10.328  13.598  66.325  1.00  0.00    -0.293 C  
HETATM   13  C   UNL     1     -10.083  15.046  65.928  1.00  0.00    -0.343 C  
HETATM   14  C   UNL     1      -9.368  15.897  66.699  1.00  0.00    -0.274 C  
HETATM   15  C   UNL     1     -10.685  15.389  64.604  1.00  0.00    -0.214 C  
HETATM   16  C   UNL     1     -11.832  12.177  64.406  1.00  0.00    -0.436 C  
HETATM   17  C   UNL     1     -12.178  14.979  64.574  1.00  0.00    -0.344 C  
HETATM   18  C   UNL     1     -11.595  12.823  65.792  1.00  0.00    -0.419 C  
HETATM   19  C   UNL     1     -12.634  13.992  65.733  1.00  0.00    -0.512 C  
BRANCH  14  20
HETATM   20  C   UNL     1      -8.549  16.941  66.143  1.00  0.00    -0.277 C  
HETATM   21  C   UNL     1      -6.704  18.522  65.806  1.00  0.00    -0.316 C  
HETATM   22  C   UNL     1      -7.632  17.738  66.720  1.00  0.00    -0.248 C  
HETATM   23  C   UNL     1      -6.792  20.021  66.072  1.00  0.00    -0.257 C  
HETATM   24  O   UNL     1      -8.064  20.538  65.675  1.00  0.00    -0.513 OA 
HETATM   25  C   UNL     1      -6.536  20.321  67.544  1.00  0.00    -0.270 C  
HETATM   26  H   UNL     1      -8.119  21.472  65.841  1.00  0.00     0.000 HD 
HETATM   27  C   UNL     1      -7.459  19.511  68.468  1.00  0.00    -0.333 C  
HETATM   28  C   UNL     1      -7.411  18.012  68.144  1.00  0.00    -0.249 C  
HETATM   29  O   UNL     1      -7.074  19.760  69.816  1.00  0.00    -0.283 OA 
HETATM   30  C   UNL     1      -7.140  17.076  69.060  1.00  0.00    -0.233 C  
HETATM   31  H   UNL     1      -7.645  19.259  70.387  1.00  0.00     0.000 HD 
ENDBRANCH  14  20
ENDBRANCH   5   6
ENDBRANCH   4   5
TORSDOF 3
ENDMDL
MODEL       20
REMARK 921   NORMALIZED FREE ENERGY PREDICTED BY IDOCK:   -6.45 KCAL/MOL
REMARK 922        TOTAL FREE ENERGY PREDICTED BY IDOCK:   -8.68 KCAL/MOL
REMARK 923 INTER-LIGAND FREE ENERGY PREDICTED BY IDOCK:   -7.27 KCAL/MOL
REMARK 924 INTRA-LIGAND FREE ENERGY PREDICTED BY IDOCK:   -1.41 KCAL/MOL
REMARK 927      BINDING AFFINITY PREDICTED BY RF-SCORE:    0.00 PKD
ROOT
HETATM    1  C   UNL     1      -8.985   5.761  65.796  1.00  0.00    -0.144 C  
HETATM    2  C   UNL     1      -7.489   5.638  66.078  1.00  0.00    -0.082 C  
HETATM    3  C   UNL     1      -6.716   6.671  65.248  1.00  0.00    -0.050 C  
HETATM    4  C   UNL     1      -7.140   5.867  67.555  1.00  0.00    -0.074 C  
ENDROOT
BRANCH   4   5
HETATM    5  C   UNL     1      -7.728   4.870  68.556  1.00  0.00    -0.078 C  
BRANCH   5   6
HETATM    6  C   UNL     1      -8.154   5.657  69.814  1.00  0.00    -0.102 C  
HETATM    7  C   UNL     1      -9.447   6.495  69.683  1.00  0.00    -0.149 C  
HETATM    8  C   UNL     1     -10.577   5.561  69.213  1.00  0.00    -0.325 C  
HETATM    9  C   UNL     1      -9.716   7.393  71.043  1.00  0.00    -0.164 C  
HETATM   10  C   UNL     1      -8.612   8.447  71.138  1.00  0.00    -0.187 C  
HETATM   11  C   UNL     1      -9.109   9.603  70.298  1.00  0.00    -0.272 C  
HETATM   12  C   UNL     1     -10.573   9.269  69.883  1.00  0.00    -0.246 C  
HETATM   13  C   UNL     1     -11.335  10.559  69.622  1.00  0.00    -0.345 C  
HETATM   14  C   UNL     1     -10.745  11.654  69.091  1.00  0.00    -0.188 C  
HETATM   15  C   UNL     1     -12.782  10.454  69.983  1.00  0.00    -0.071 C  
HETATM   16  C   UNL     1     -12.203   7.232  70.959  1.00  0.00    -0.350 C  
HETATM   17  C   UNL     1     -12.934   9.923  71.429  1.00  0.00    -0.504 C  
HETATM   18  C   UNL     1     -11.052   8.266  71.002  1.00  0.00    -0.284 C  
HETATM   19  C   UNL     1     -11.626   9.273  72.054  1.00  0.00    -0.305 C  
BRANCH  14  20
HETATM   20  C   UNL     1     -11.444  12.564  68.222  1.00  0.00    -0.355 C  
HETATM   21  C   UNL     1     -12.638  13.477  66.283  1.00  0.00    -0.298 C  
HETATM   22  C   UNL     1     -11.572  12.574  66.883  1.00  0.00    -0.436 C  
HETATM   23  C   UNL     1     -12.038  14.464  65.287  1.00  0.00    -0.380 C  
HETATM   24  O   UNL     1     -11.213  15.424  65.950  1.00  0.00    -0.290 OA 
HETATM   25  C   UNL     1     -11.240  13.729  64.217  1.00  0.00    -0.321 C  
HETATM   26  H   UNL     1     -10.839  16.038  65.330  1.00  0.00     0.000 HD 
HETATM   27  C   UNL     1     -10.178  12.800  64.825  1.00  0.00    -0.281 C  
HETATM   28  C   UNL     1     -10.783  11.859  65.874  1.00  0.00    -0.326 C  
HETATM   29  O   UNL     1      -9.565  12.069  63.768  1.00  0.00    -0.529 OA 
HETATM   30  C   UNL     1     -10.645  10.529  65.827  1.00  0.00    -0.137 C  
HETATM   31  H   UNL     1      -8.909  11.494  64.144  1.00  0.00     0.000 HD 
ENDBRANCH  14  20
ENDBRANCH   5   6
ENDBRANCH   4   5
TORSDOF 3
ENDMDL
MODEL       21
REMARK 921   NORMALIZED FREE ENERGY PREDICTED BY IDOCK:   -6.42 KCAL/MOL
REMARK 922        TOTAL FREE ENERGY PREDICTED BY IDOCK:   -8.65 KCAL/MOL
REMARK 923 INTER-LIGAND FREE ENERGY PREDICTED BY IDOCK:   -7.57 KCAL/MOL
REMARK 924 INTRA-LIGAND FREE ENERGY PREDICTED BY IDOCK:   -1.08 KCAL/MOL
REMARK 927      BINDING AFFINITY PREDICTED BY RF-SCORE:    0.00 PKD
ROOT
HETATM    1  C   UNL     1     -10.769  19.170  67.063  1.00  0.00    -0.542 C  
HETATM    2  C   UNL     1      -9.771  18.496  68.003  1.00  0.00    -0.354 C  
HETATM    3  C   UNL     1      -9.003  19.561  68.798  1.00  0.00    -0.364 C  
HETATM    4  C   UNL     1     -10.445  17.555  69.011  1.00  0.00    -0.250 C  
ENDROOT
BRANCH   4   5
HETATM    5  C   UNL     1     -11.184  16.349  68.427  1.00  0.00    -0.324 C  
BRANCH   5   6
HETATM    6  C   UNL     1     -10.187  15.561  67.550  1.00  0.00    -0.254 C  
HETATM    7  C   UNL     1     -10.574  14.099  67.232  1.00  0.00    -0.277 C  
HETATM    8  C   UNL     1     -11.977  14.102  66.597  1.00  0.00    -0.470 C  
HETATM    9  C   UNL     1      -9.367  13.327  66.410  1.00  0.00    -0.185 C  
HETATM   10  C   UNL     1      -8.171  13.186  67.352  1.00  0.00    -0.187 C  
HETATM   11  C   UNL     1      -8.436  11.911  68.124  1.00  0.00    -0.163 C  
HETATM   12  C   UNL     1      -9.688  11.243  67.484  1.00  0.00    -0.192 C  
HETATM   13  C   UNL     1      -9.646   9.743  67.728  1.00  0.00    -0.157 C  
HETATM   14  C   UNL     1      -9.132   9.207  68.859  1.00  0.00    -0.139 C  
HETATM   15  C   UNL     1     -10.256   8.961  66.609  1.00  0.00    -0.338 C  
HETATM   16  C   UNL     1     -10.879  11.917  65.015  1.00  0.00    -0.351 C  
HETATM   17  C   UNL     1      -9.634   9.390  65.257  1.00  0.00    -0.251 C  
HETATM   18  C   UNL     1      -9.701  11.817  66.014  1.00  0.00    -0.254 C  
HETATM   19  C   UNL     1      -8.814  10.750  65.289  1.00  0.00    -0.200 C  
BRANCH  14  20
HETATM   20  C   UNL     1      -9.650   8.000  69.447  1.00  0.00    -0.160 C  
HETATM   21  C   UNL     1     -11.204   6.338  70.364  1.00  0.00    -0.439 C  
HETATM   22  C   UNL     1     -10.770   7.781  70.157  1.00  0.00    -0.242 C  
HETATM   23  C   UNL     1     -11.329   6.000  71.846  1.00  0.00    -0.279 C  
HETATM   24  O   UNL     1     -10.048   5.991  72.480  1.00  0.00    -0.176 OA 
HETATM   25  C   UNL     1     -12.258   6.984  72.545  1.00  0.00     0.038 C  
HETATM   26  H   UNL     1     -10.126   5.780  73.402  1.00  0.00     0.000 HD 
HETATM   27  C   UNL     1     -11.832   8.442  72.316  1.00  0.00    -0.389 C  
HETATM   28  C   UNL     1     -11.645   8.751  70.826  1.00  0.00    -0.288 C  
HETATM   29  O   UNL     1     -12.815   9.292  72.900  1.00  0.00    -0.330 OA 
HETATM   30  C   UNL     1     -12.263   9.762  70.206  1.00  0.00    -0.051 C  
HETATM   31  H   UNL     1     -12.552  10.194  72.758  1.00  0.00     0.000 HD 
ENDBRANCH  14  20
ENDBRANCH   5   6
ENDBRANCH   4   5
TORSDOF 3
ENDMDL
MODEL       22
REMARK 921   NORMALIZED FREE ENERGY PREDICTED BY IDOCK:   -6.40 KCAL/MOL
REMARK 922        TOTAL FREE ENERGY PREDICTED BY IDOCK:   -8.63 KCAL/MOL
REMARK 923 INTER-LIGAND FREE ENERGY PREDICTED BY IDOCK:   -7.50 KCAL/MOL
REMARK 924 INTRA-LIGAND FREE ENERGY PREDICTED BY IDOCK:   -1.13 KCAL/MOL
REMARK 927      BINDING AFFINITY PREDICTED BY RF-SCORE:    0.00 PKD
ROOT
HETATM    1  C   UNL     1      -7.051   2.794  66.966  1.00  0.00    -0.053 C  
HETATM    2  C   UNL     1      -8.161   3.844  66.934  1.00  0.00    -0.100 C  
HETATM    3  C   UNL     1      -8.626   4.066  65.489  1.00  0.00    -0.114 C  
HETATM    4  C   UNL     1      -9.387   3.438  67.764  1.00  0.00    -0.243 C  
ENDROOT
BRANCH   4   5
HETATM    5  C   UNL     1      -9.165   3.268  69.268  1.00  0.00    -0.218 C  
BRANCH   5   6
HETATM    6  C   UNL     1      -8.702   4.627  69.835  1.00  0.00    -0.116 C  
HETATM    7  C   UNL     1      -9.592   5.843  69.492  1.00  0.00    -0.174 C  
HETATM    8  C   UNL     1     -11.030   5.525  69.940  1.00  0.00    -0.192 C  
HETATM    9  C   UNL     1      -8.917   7.249  70.036  1.00  0.00    -0.142 C  
HETATM   10  C   UNL     1      -7.639   7.500  69.234  1.00  0.00    -0.100 C  
HETATM   11  C   UNL     1      -8.102   8.225  67.988  1.00  0.00    -0.127 C  
HETATM   12  C   UNL     1      -9.614   8.543  68.181  1.00  0.00    -0.158 C  
HETATM   13  C   UNL     1      -9.989   9.760  67.352  1.00  0.00    -0.239 C  
HETATM   14  C   UNL     1      -9.419  10.024  66.153  1.00  0.00    -0.242 C  
HETATM   15  C   UNL     1     -11.059  10.586  67.992  1.00  0.00    -0.361 C  
HETATM   16  C   UNL     1     -11.078   8.364  70.588  1.00  0.00    -0.278 C  
HETATM   17  C   UNL     1     -10.670  10.922  69.453  1.00  0.00    -0.265 C  
HETATM   18  C   UNL     1      -9.791   8.554  69.749  1.00  0.00    -0.186 C  
HETATM   19  C   UNL     1      -9.481  10.057  70.055  1.00  0.00    -0.184 C  
BRANCH  14  20
HETATM   20  C   UNL     1     -10.136  10.658  65.079  1.00  0.00    -0.388 C  
HETATM   21  C   UNL     1     -10.909  12.342  63.471  1.00  0.00    -0.508 C  
HETATM   22  C   UNL     1     -10.415  11.955  64.856  1.00  0.00    -0.331 C  
HETATM   23  C   UNL     1     -12.264  13.039  63.535  1.00  0.00    -0.501 C  
HETATM   24  O   UNL     1     -13.289  12.130  63.943  1.00  0.00    -0.711 OA 
HETATM   25  C   UNL     1     -12.209  14.233  64.479  1.00  0.00    -0.476 C  
HETATM   26  H   UNL     1     -14.133  12.564  63.983  1.00  0.00     0.000 HD 
HETATM   27  C   UNL     1     -11.689  13.845  65.872  1.00  0.00    -0.359 C  
HETATM   28  C   UNL     1     -10.359  13.086  65.788  1.00  0.00    -0.296 C  
HETATM   29  O   UNL     1     -11.558  15.032  66.647  1.00  0.00    -0.311 OA 
HETATM   30  C   UNL     1      -9.261  13.461  66.454  1.00  0.00    -0.131 C  
HETATM   31  H   UNL     1     -11.235  14.792  67.508  1.00  0.00     0.000 HD 
ENDBRANCH  14  20
ENDBRANCH   5   6
ENDBRANCH   4   5
TORSDOF 3
ENDMDL
MODEL       23
REMARK 921   NORMALIZED FREE ENERGY PREDICTED BY IDOCK:   -6.38 KCAL/MOL
REMARK 922        TOTAL FREE ENERGY PREDICTED BY IDOCK:   -8.60 KCAL/MOL
REMARK 923 INTER-LIGAND FREE ENERGY PREDICTED BY IDOCK:   -7.45 KCAL/MOL
REMARK 924 INTRA-LIGAND FREE ENERGY PREDICTED BY IDOCK:   -1.15 KCAL/MOL
REMARK 927      BINDING AFFINITY PREDICTED BY RF-SCORE:    0.00 PKD
ROOT
HETATM    1  C   UNL     1     -10.053   6.430  74.247  1.00  0.00    -0.365 C  
HETATM    2  C   UNL     1     -10.508   5.179  73.496  1.00  0.00    -0.281 C  
HETATM    3  C   UNL     1     -10.635   4.003  74.473  1.00  0.00    -0.220 C  
HETATM    4  C   UNL     1     -11.866   5.362  72.804  1.00  0.00    -0.162 C  
ENDROOT
BRANCH   4   5
HETATM    5  C   UNL     1     -11.933   6.424  71.705  1.00  0.00    -0.370 C  
BRANCH   5   6
HETATM    6  C   UNL     1     -11.004   5.976  70.556  1.00  0.00    -0.388 C  
HETATM    7  C   UNL     1     -10.128   7.082  69.923  1.00  0.00    -0.202 C  
HETATM    8  C   UNL     1      -9.321   7.755  71.048  1.00  0.00    -0.160 C  
HETATM    9  C   UNL     1      -9.289   6.507  68.622  1.00  0.00    -0.125 C  
HETATM   10  C   UNL     1     -10.298   6.172  67.521  1.00  0.00    -0.259 C  
HETATM   11  C   UNL     1     -10.511   7.477  66.785  1.00  0.00    -0.319 C  
HETATM   12  C   UNL     1      -9.484   8.497  67.357  1.00  0.00    -0.188 C  
HETATM   13  C   UNL     1      -9.180   9.557  66.310  1.00  0.00    -0.219 C  
HETATM   14  C   UNL     1     -10.113   9.998  65.434  1.00  0.00    -0.317 C  
HETATM   15  C   UNL     1      -7.775  10.059  66.389  1.00  0.00    -0.103 C  
HETATM   16  C   UNL     1      -7.261   7.909  68.994  1.00  0.00    -0.075 C  
HETATM   17  C   UNL     1      -6.782   8.870  66.378  1.00  0.00    -0.074 C  
HETATM   18  C   UNL     1      -8.333   7.580  67.927  1.00  0.00    -0.123 C  
HETATM   19  C   UNL     1      -7.427   7.445  66.658  1.00  0.00    -0.088 C  
BRANCH  14  20
HETATM   20  C   UNL     1     -10.142  11.354  64.953  1.00  0.00    -0.323 C  
HETATM   21  C   UNL     1      -9.959  13.799  64.869  1.00  0.00    -0.178 C  
HETATM   22  C   UNL     1     -10.297  12.515  65.612  1.00  0.00    -0.294 C  
HETATM   23  C   UNL     1     -11.149  14.751  64.831  1.00  0.00    -0.407 C  
HETATM   24  O   UNL     1     -12.196  14.231  64.009  1.00  0.00    -0.682 OA 
HETATM   25  C   UNL     1     -11.666  15.022  66.239  1.00  0.00    -0.096 C  
HETATM   26  H   UNL     1     -12.937  14.825  63.985  1.00  0.00     0.000 HD 
HETATM   27  C   UNL     1     -11.986  13.724  66.996  1.00  0.00    -0.413 C  
HETATM   28  C   UNL     1     -10.804  12.747  66.969  1.00  0.00    -0.282 C  
HETATM   29  O   UNL     1     -12.346  14.063  68.332  1.00  0.00    -0.533 OA 
HETATM   30  C   UNL     1     -10.269  12.218  68.075  1.00  0.00    -0.206 C  
HETATM   31  H   UNL     1     -12.543  13.260  68.800  1.00  0.00     0.000 HD 
ENDBRANCH  14  20
ENDBRANCH   5   6
ENDBRANCH   4   5
TORSDOF 3
ENDMDL
MODEL       24
REMARK 921   NORMALIZED FREE ENERGY PREDICTED BY IDOCK:   -6.34 KCAL/MOL
REMARK 922        TOTAL FREE ENERGY PREDICTED BY IDOCK:   -8.56 KCAL/MOL
REMARK 923 INTER-LIGAND FREE ENERGY PREDICTED BY IDOCK:   -7.75 KCAL/MOL
REMARK 924 INTRA-LIGAND FREE ENERGY PREDICTED BY IDOCK:   -0.81 KCAL/MOL
REMARK 927      BINDING AFFINITY PREDICTED BY RF-SCORE:    0.00 PKD
ROOT
HETATM    1  C   UNL     1      -6.817   7.856  63.378  1.00  0.00    -0.075 C  
HETATM    2  C   UNL     1      -6.389   8.137  64.818  1.00  0.00    -0.049 C  
HETATM    3  C   UNL     1      -5.216   9.125  64.830  1.00  0.00    -0.045 C  
HETATM    4  C   UNL     1      -7.518   8.740  65.667  1.00  0.00    -0.085 C  
ENDROOT
BRANCH   4   5
HETATM    5  C   UNL     1      -8.754   7.864  65.876  1.00  0.00    -0.180 C  
BRANCH   5   6
HETATM    6  C   UNL     1      -9.928   8.786  66.270  1.00  0.00    -0.315 C  
HETATM    7  C   UNL     1      -9.886  10.220  65.693  1.00  0.00    -0.332 C  
HETATM    8  C   UNL     1      -9.763  10.115  64.162  1.00  0.00    -0.301 C  
HETATM    9  C   UNL     1     -11.114  11.143  66.298  1.00  0.00    -0.176 C  
HETATM   10  C   UNL     1     -10.858  11.348  67.792  1.00  0.00    -0.281 C  
HETATM   11  C   UNL     1      -9.943  12.552  67.863  1.00  0.00    -0.212 C  
HETATM   12  C   UNL     1      -9.836  13.130  66.422  1.00  0.00    -0.279 C  
HETATM   13  C   UNL     1      -9.508  14.613  66.490  1.00  0.00    -0.319 C  
HETATM   14  C   UNL     1      -8.721  15.137  67.459  1.00  0.00    -0.188 C  
HETATM   15  C   UNL     1     -10.117  15.390  65.368  1.00  0.00    -0.394 C  
HETATM   16  C   UNL     1     -11.473  12.472  64.219  1.00  0.00    -0.423 C  
HETATM   17  C   UNL     1     -11.634  15.091  65.274  1.00  0.00    -0.258 C  
HETATM   18  C   UNL     1     -11.162  12.633  65.727  1.00  0.00    -0.347 C  
HETATM   19  C   UNL     1     -12.125  13.814  66.083  1.00  0.00    -0.477 C  
BRANCH  14  20
HETATM   20  C   UNL     1      -7.850  16.258  67.225  1.00  0.00    -0.203 C  
HETATM   21  C   UNL     1      -6.850  18.494  67.350  1.00  0.00    -0.207 C  
HETATM   22  C   UNL     1      -8.063  17.578  67.365  1.00  0.00    -0.213 C  
HETATM   23  C   UNL     1      -6.961  19.552  66.256  1.00  0.00    -0.232 C  
HETATM   24  O   UNL     1      -6.868  18.959  64.959  1.00  0.00    -0.491 OA 
HETATM   25  C   UNL     1      -8.264  20.329  66.391  1.00  0.00    -0.228 C  
HETATM   26  H   UNL     1      -6.937  19.618  64.278  1.00  0.00     0.000 HD 
HETATM   27  C   UNL     1      -9.488  19.401  66.428  1.00  0.00    -0.373 C  
HETATM   28  C   UNL     1      -9.334  18.301  67.486  1.00  0.00    -0.263 C  
HETATM   29  O   UNL     1     -10.645  20.195  66.674  1.00  0.00    -0.401 OA 
HETATM   30  C   UNL     1     -10.241  18.078  68.444  1.00  0.00    -0.399 C  
HETATM   31  H   UNL     1     -11.402  19.621  66.697  1.00  0.00     0.000 HD 
ENDBRANCH  14  20
ENDBRANCH   5   6
ENDBRANCH   4   5
TORSDOF 3
ENDMDL
MODEL       25
REMARK 921   NORMALIZED FREE ENERGY PREDICTED BY IDOCK:   -6.33 KCAL/MOL
REMARK 922        TOTAL FREE ENERGY PREDICTED BY IDOCK:   -8.54 KCAL/MOL
REMARK 923 INTER-LIGAND FREE ENERGY PREDICTED BY IDOCK:   -7.46 KCAL/MOL
REMARK 924 INTRA-LIGAND FREE ENERGY PREDICTED BY IDOCK:   -1.09 KCAL/MOL
REMARK 927      BINDING AFFINITY PREDICTED BY RF-SCORE:    0.00 PKD
ROOT
HETATM    1  C   UNL     1      -9.760   3.543  71.165  1.00  0.00    -0.237 C  
HETATM    2  C   UNL     1      -9.984   5.054  71.117  1.00  0.00    -0.276 C  
HETATM    3  C   UNL     1     -10.814   5.497  72.328  1.00  0.00    -0.297 C  
HETATM    4  C   UNL     1      -8.672   5.851  71.131  1.00  0.00    -0.132 C  
ENDROOT
BRANCH   4   5
HETATM    5  C   UNL     1      -7.733   5.638  69.942  1.00  0.00    -0.083 C  
BRANCH   5   6
HETATM    6  C   UNL     1      -8.517   5.968  68.654  1.00  0.00    -0.113 C  
HETATM    7  C   UNL     1      -8.283   7.376  68.061  1.00  0.00    -0.124 C  
HETATM    8  C   UNL     1      -6.770   7.557  67.841  1.00  0.00    -0.066 C  
HETATM    9  C   UNL     1      -9.279   7.655  66.773  1.00  0.00    -0.197 C  
HETATM   10  C   UNL     1     -10.716   7.718  67.293  1.00  0.00    -0.326 C  
HETATM   11  C   UNL     1     -10.906   9.155  67.727  1.00  0.00    -0.159 C  
HETATM   12  C   UNL     1      -9.637   9.938  67.280  1.00  0.00    -0.195 C  
HETATM   13  C   UNL     1      -9.986  11.405  67.084  1.00  0.00    -0.217 C  
HETATM   14  C   UNL     1     -10.902  12.040  67.850  1.00  0.00    -0.254 C  
HETATM   15  C   UNL     1      -9.187  12.046  65.994  1.00  0.00    -0.152 C  
HETATM   16  C   UNL     1      -7.647   9.038  65.491  1.00  0.00    -0.090 C  
HETATM   17  C   UNL     1      -9.282  11.204  64.698  1.00  0.00    -0.138 C  
HETATM   18  C   UNL     1      -9.078   9.079  66.080  1.00  0.00    -0.257 C  
HETATM   19  C   UNL     1      -9.849   9.732  64.885  1.00  0.00    -0.183 C  
BRANCH  14  20
HETATM   20  C   UNL     1     -10.788  13.431  68.199  1.00  0.00    -0.273 C  
HETATM   21  C   UNL     1     -11.192  15.849  68.291  1.00  0.00    -0.354 C  
HETATM   22  C   UNL     1     -11.146  14.538  67.523  1.00  0.00    -0.316 C  
HETATM   23  C   UNL     1     -10.287  16.900  67.657  1.00  0.00    -0.317 C  
HETATM   24  O   UNL     1      -8.910  16.548  67.806  1.00  0.00    -0.195 OA 
HETATM   25  C   UNL     1     -10.629  17.086  66.184  1.00  0.00    -0.194 C  
HETATM   26  H   UNL     1      -8.346  17.203  67.411  1.00  0.00     0.000 HD 
HETATM   27  C   UNL     1     -10.604  15.756  65.414  1.00  0.00    -0.421 C  
HETATM   28  C   UNL     1     -11.465  14.688  66.099  1.00  0.00    -0.339 C  
HETATM   29  O   UNL     1     -11.048  16.002  64.083  1.00  0.00    -1.021 OA 
HETATM   30  C   UNL     1     -12.435  14.017  65.468  1.00  0.00    -0.533 C  
HETATM   31  H   UNL     1     -11.033  15.179  63.607  1.00  0.00     0.000 HD 
ENDBRANCH  14  20
ENDBRANCH   5   6
ENDBRANCH   4   5
TORSDOF 3
ENDMDL
MODEL       26
REMARK 921   NORMALIZED FREE ENERGY PREDICTED BY IDOCK:   -6.28 KCAL/MOL
REMARK 922        TOTAL FREE ENERGY PREDICTED BY IDOCK:   -8.49 KCAL/MOL
REMARK 923 INTER-LIGAND FREE ENERGY PREDICTED BY IDOCK:   -7.20 KCAL/MOL
REMARK 924 INTRA-LIGAND FREE ENERGY PREDICTED BY IDOCK:   -1.29 KCAL/MOL
REMARK 927      BINDING AFFINITY PREDICTED BY RF-SCORE:    0.00 PKD
ROOT
HETATM    1  C   UNL     1      -7.477   4.118  71.426  1.00  0.00    -0.059 C  
HETATM    2  C   UNL     1      -8.490   4.865  70.560  1.00  0.00    -0.104 C  
HETATM    3  C   UNL     1      -8.188   4.619  69.076  1.00  0.00    -0.081 C  
HETATM    4  C   UNL     1      -9.937   4.427  70.823  1.00  0.00    -0.247 C  
ENDROOT
BRANCH   4   5
HETATM    5  C   UNL     1     -10.481   4.685  72.229  1.00  0.00    -0.238 C  
BRANCH   5   6
HETATM    6  C   UNL     1     -10.345   6.195  72.520  1.00  0.00    -0.218 C  
HETATM    7  C   UNL     1     -11.093   7.141  71.553  1.00  0.00    -0.267 C  
HETATM    8  C   UNL     1     -12.574   6.721  71.523  1.00  0.00    -0.371 C  
HETATM    9  C   UNL     1     -10.756   8.723  71.886  1.00  0.00    -0.429 C  
HETATM   10  C   UNL     1      -9.282   8.969  71.563  1.00  0.00    -0.260 C  
HETATM   11  C   UNL     1      -9.261   9.295  70.084  1.00  0.00    -0.254 C  
HETATM   12  C   UNL     1     -10.744   9.411  69.622  1.00  0.00    -0.251 C  
HETATM   13  C   UNL     1     -10.829  10.322  68.408  1.00  0.00    -0.288 C  
HETATM   14  C   UNL     1      -9.853  10.377  67.473  1.00  0.00    -0.202 C  
HETATM   15  C   UNL     1     -12.104  11.101  68.362  1.00  0.00    -0.069 C  
HETATM   16  C   UNL     1     -13.016   9.590  71.287  1.00  0.00    -0.407 C  
HETATM   17  C   UNL     1     -12.331  11.833  69.707  1.00  0.00    -0.175 C  
HETATM   18  C   UNL     1     -11.516   9.770  70.951  1.00  0.00    -0.447 C  
HETATM   19  C   UNL     1     -11.427  11.332  70.914  1.00  0.00     0.435 C  
BRANCH  14  20
HETATM   20  C   UNL     1     -10.128  10.617  66.081  1.00  0.00    -0.306 C  
HETATM   21  C   UNL     1     -10.227  11.695  63.880  1.00  0.00    -0.409 C  
HETATM   22  C   UNL     1     -10.258  11.768  65.399  1.00  0.00    -0.301 C  
HETATM   23  C   UNL     1     -11.491  12.289  63.267  1.00  0.00    -0.340 C  
HETATM   24  O   UNL     1     -12.630  11.475  63.553  1.00  0.00    -0.576 OA 
HETATM   25  C   UNL     1     -11.715  13.710  63.769  1.00  0.00    -0.292 C  
HETATM   26  H   UNL     1     -13.417  11.845  63.170  1.00  0.00     0.000 HD 
HETATM   27  C   UNL     1     -11.724  13.785  65.303  1.00  0.00    -0.338 C  
HETATM   28  C   UNL     1     -10.480  13.125  65.910  1.00  0.00    -0.288 C  
HETATM   29  O   UNL     1     -11.819  15.155  65.683  1.00  0.00    -0.141 OA 
HETATM   30  C   UNL     1      -9.665  13.752  66.766  1.00  0.00    -0.277 C  
HETATM   31  H   UNL     1     -11.824  15.201  66.633  1.00  0.00     0.000 HD 
ENDBRANCH  14  20
ENDBRANCH   5   6
ENDBRANCH   4   5
TORSDOF 3
ENDMDL
MODEL       27
REMARK 921   NORMALIZED FREE ENERGY PREDICTED BY IDOCK:   -6.27 KCAL/MOL
REMARK 922        TOTAL FREE ENERGY PREDICTED BY IDOCK:   -8.48 KCAL/MOL
REMARK 923 INTER-LIGAND FREE ENERGY PREDICTED BY IDOCK:   -7.84 KCAL/MOL
REMARK 924 INTRA-LIGAND FREE ENERGY PREDICTED BY IDOCK:   -0.64 KCAL/MOL
REMARK 927      BINDING AFFINITY PREDICTED BY RF-SCORE:    0.00 PKD
ROOT
HETATM    1  C   UNL     1      -7.672   5.858  65.437  1.00  0.00    -0.093 C  
HETATM    2  C   UNL     1      -7.124   6.066  64.026  1.00  0.00    -0.053 C  
HETATM    3  C   UNL     1      -7.459   4.850  63.153  1.00  0.00    -0.054 C  
HETATM    4  C   UNL     1      -7.705   7.311  63.340  1.00  0.00    -0.124 C  
ENDROOT
BRANCH   4   5
HETATM    5  C   UNL     1      -7.394   8.657  63.996  1.00  0.00    -0.106 C  
BRANCH   5   6
HETATM    6  C   UNL     1      -8.665   9.130  64.733  1.00  0.00    -0.208 C  
HETATM    7  C   UNL     1      -9.204  10.522  64.329  1.00  0.00    -0.281 C  
HETATM    8  C   UNL     1      -9.422  10.526  62.805  1.00  0.00    -0.353 C  
HETATM    9  C   UNL     1     -10.476  10.969  65.283  1.00  0.00    -0.316 C  
HETATM   10  C   UNL     1      -9.949  11.186  66.702  1.00  0.00    -0.244 C  
HETATM   11  C   UNL     1      -9.458  12.617  66.716  1.00  0.00    -0.237 C  
HETATM   12  C   UNL     1      -9.879  13.258  65.361  1.00  0.00    -0.128 C  
HETATM   13  C   UNL     1     -10.016  14.763  65.529  1.00  0.00    -0.390 C  
HETATM   14  C   UNL     1      -9.223  15.474  66.362  1.00  0.00    -0.339 C  
HETATM   15  C   UNL     1     -11.083  15.344  64.658  1.00  0.00    -0.361 C  
HETATM   16  C   UNL     1     -11.709  12.194  63.494  1.00  0.00    -0.579 C  
HETATM   17  C   UNL     1     -12.411  14.572  64.853  1.00  0.00    -0.378 C  
HETATM   18  C   UNL     1     -11.114  12.385  64.910  1.00  0.00    -0.344 C  
HETATM   19  C   UNL     1     -12.280  13.173  65.595  1.00  0.00    -0.521 C  
BRANCH  14  20
HETATM   20  C   UNL     1      -8.820  16.826  66.080  1.00  0.00    -0.298 C  
HETATM   21  C   UNL     1      -7.912  19.089  66.350  1.00  0.00    -0.300 C  
HETATM   22  C   UNL     1      -8.656  17.881  66.898  1.00  0.00    -0.259 C  
HETATM   23  C   UNL     1      -8.759  20.354  66.437  1.00  0.00    -0.056 C  
HETATM   24  O   UNL     1      -9.869  20.290  65.539  1.00  0.00    -0.521 OA 
HETATM   25  C   UNL     1      -9.245  20.578  67.864  1.00  0.00    -0.211 C  
HETATM   26  H   UNL     1     -10.397  21.078  65.594  1.00  0.00     0.000 HD 
HETATM   27  C   UNL     1      -9.977  19.348  68.424  1.00  0.00    -0.437 C  
HETATM   28  C   UNL     1      -9.141  18.072  68.269  1.00  0.00    -0.284 C  
HETATM   29  O   UNL     1     -10.289  19.598  69.791  1.00  0.00    -0.544 OA 
HETATM   30  C   UNL     1      -8.847  17.263  69.293  1.00  0.00     0.178 C  
HETATM   31  H   UNL     1     -10.741  18.837  70.137  1.00  0.00     0.000 HD 
ENDBRANCH  14  20
ENDBRANCH   5   6
ENDBRANCH   4   5
TORSDOF 3
ENDMDL
MODEL       28
REMARK 921   NORMALIZED FREE ENERGY PREDICTED BY IDOCK:   -6.26 KCAL/MOL
REMARK 922        TOTAL FREE ENERGY PREDICTED BY IDOCK:   -8.46 KCAL/MOL
REMARK 923 INTER-LIGAND FREE ENERGY PREDICTED BY IDOCK:   -7.34 KCAL/MOL
REMARK 924 INTRA-LIGAND FREE ENERGY PREDICTED BY IDOCK:   -1.12 KCAL/MOL
REMARK 927      BINDING AFFINITY PREDICTED BY RF-SCORE:    0.00 PKD
ROOT
HETATM    1  C   UNL     1      -7.520   5.339  73.427  1.00  0.00    -0.095 C  
HETATM    2  C   UNL     1      -8.985   4.964  73.646  1.00  0.00    -0.107 C  
HETATM    3  C   UNL     1      -9.076   3.578  74.298  1.00  0.00    -0.097 C  
HETATM    4  C   UNL     1      -9.726   5.957  74.552  1.00  0.00    -0.241 C  
ENDROOT
BRANCH   4   5
HETATM    5  C   UNL     1      -9.847   7.391  74.033  1.00  0.00    -0.190 C  
BRANCH   5   6
HETATM    6  C   UNL     1     -10.494   7.335  72.632  1.00  0.00    -0.285 C  
HETATM    7  C   UNL     1      -9.961   8.354  71.599  1.00  0.00    -0.302 C  
HETATM    8  C   UNL     1      -8.434   8.183  71.502  1.00  0.00    -0.160 C  
HETATM    9  C   UNL     1     -10.826   8.286  70.193  1.00  0.00    -0.237 C  
HETATM   10  C   UNL     1     -12.243   8.780  70.487  1.00  0.00     0.171 C  
HETATM   11  C   UNL     1     -12.164  10.285  70.345  1.00  0.00    -0.346 C  
HETATM   12  C   UNL     1     -10.747  10.616  69.791  1.00  0.00    -0.283 C  
HETATM   13  C   UNL     1     -10.790  11.936  69.037  1.00  0.00    -0.235 C  
HETATM   14  C   UNL     1     -11.596  12.957  69.410  1.00  0.00    -0.363 C  
HETATM   15  C   UNL     1      -9.835  11.974  67.888  1.00  0.00    -0.196 C  
HETATM   16  C   UNL     1      -8.899   8.788  68.692  1.00  0.00    -0.138 C  
HETATM   17  C   UNL     1     -10.039  10.733  66.984  1.00  0.00    -0.249 C  
HETATM   18  C   UNL     1     -10.318   9.287  69.058  1.00  0.00    -0.228 C  
HETATM   19  C   UNL     1     -10.893   9.558  67.627  1.00  0.00    -0.253 C  
BRANCH  14  20
HETATM   20  C   UNL     1     -11.224  14.337  69.240  1.00  0.00    -0.309 C  
HETATM   21  C   UNL     1     -11.131  16.635  68.387  1.00  0.00    -0.305 C  
HETATM   22  C   UNL     1     -11.302  15.140  68.165  1.00  0.00    -0.345 C  
HETATM   23  C   UNL     1      -9.990  17.198  67.548  1.00  0.00    -0.279 C  
HETATM   24  O   UNL     1      -8.727  16.711  68.007  1.00  0.00    -0.188 OA 
HETATM   25  C   UNL     1     -10.186  16.856  66.076  1.00  0.00    -0.350 C  
HETATM   26  H   UNL     1      -8.016  17.062  67.484  1.00  0.00     0.000 HD 
HETATM   27  C   UNL     1     -10.380  15.348  65.855  1.00  0.00    -0.341 C  
HETATM   28  C   UNL     1     -11.485  14.781  66.754  1.00  0.00    -0.343 C  
HETATM   29  O   UNL     1     -10.673  15.131  64.478  1.00  0.00    -0.611 OA 
HETATM   30  C   UNL     1     -12.526  14.087  66.282  1.00  0.00    -0.439 C  
HETATM   31  H   UNL     1     -10.793  14.198  64.342  1.00  0.00     0.000 HD 
ENDBRANCH  14  20
ENDBRANCH   5   6
ENDBRANCH   4   5
TORSDOF 3
ENDMDL
MODEL       29
REMARK 921   NORMALIZED FREE ENERGY PREDICTED BY IDOCK:   -6.25 KCAL/MOL
REMARK 922        TOTAL FREE ENERGY PREDICTED BY IDOCK:   -8.45 KCAL/MOL
REMARK 923 INTER-LIGAND FREE ENERGY PREDICTED BY IDOCK:   -7.75 KCAL/MOL
REMARK 924 INTRA-LIGAND FREE ENERGY PREDICTED BY IDOCK:   -0.71 KCAL/MOL
REMARK 927      BINDING AFFINITY PREDICTED BY RF-SCORE:    0.00 PKD
ROOT
HETATM    1  C   UNL     1      -7.622   6.144  70.259  1.00  0.00    -0.096 C  
HETATM    2  C   UNL     1      -8.908   6.815  70.741  1.00  0.00    -0.150 C  
HETATM    3  C   UNL     1      -9.359   6.185  72.065  1.00  0.00    -0.154 C  
HETATM    4  C   UNL     1      -8.742   8.323  70.972  1.00  0.00    -0.169 C  
ENDROOT
BRANCH   4   5
HETATM    5  C   UNL     1      -8.394   9.166  69.743  1.00  0.00    -0.136 C  
BRANCH   5   6
HETATM    6  C   UNL     1      -9.711   9.497  69.008  1.00  0.00    -0.170 C  
HETATM    7  C   UNL     1      -9.586  10.434  67.785  1.00  0.00    -0.169 C  
HETATM    8  C   UNL     1      -8.557   9.823  66.816  1.00  0.00    -0.133 C  
HETATM    9  C   UNL     1     -11.071  10.821  67.175  1.00  0.00    -0.297 C  
HETATM   10  C   UNL     1     -11.799  11.678  68.213  1.00  0.00    -0.335 C  
HETATM   11  C   UNL     1     -11.337  13.092  67.937  1.00  0.00    -0.321 C  
HETATM   12  C   UNL     1     -10.494  13.050  66.628  1.00  0.00    -0.271 C  
HETATM   13  C   UNL     1     -10.540  14.409  65.948  1.00  0.00    -0.312 C  
HETATM   14  C   UNL     1     -10.594  15.567  66.646  1.00  0.00    -0.307 C  
HETATM   15  C   UNL     1     -10.484  14.309  64.457  1.00  0.00    -0.172 C  
HETATM   16  C   UNL     1     -10.345  10.912  64.791  1.00  0.00    -0.391 C  
HETATM   17  C   UNL     1     -11.562  13.321  63.948  1.00  0.00    -0.451 C  
HETATM   18  C   UNL     1     -11.030  11.764  65.887  1.00  0.00    -0.354 C  
HETATM   19  C   UNL     1     -12.204  12.385  65.060  1.00  0.00    -0.465 C  
BRANCH  14  20
HETATM   20  C   UNL     1      -9.970  16.778  66.184  1.00  0.00    -0.345 C  
HETATM   21  C   UNL     1      -8.557  18.781  66.095  1.00  0.00    -0.166 C  
HETATM   22  C   UNL     1      -9.423  17.798  66.867  1.00  0.00    -0.271 C  
HETATM   23  C   UNL     1      -9.074  20.209  66.231  1.00  0.00    -0.254 C  
HETATM   24  O   UNL     1     -10.326  20.367  65.559  1.00  0.00    -0.442 OA 
HETATM   25  C   UNL     1      -9.208  20.594  67.699  1.00  0.00    -0.331 C  
HETATM   26  H   UNL     1     -10.648  21.256  65.644  1.00  0.00     0.000 HD 
HETATM   27  C   UNL     1     -10.065  19.588  68.483  1.00  0.00    -0.445 C  
HETATM   28  C   UNL     1      -9.575  18.149  68.283  1.00  0.00    -0.324 C  
HETATM   29  O   UNL     1     -10.040  19.956  69.859  1.00  0.00    -0.435 OA 
HETATM   30  C   UNL     1      -9.269  17.335  69.300  1.00  0.00     0.120 C  
HETATM   31  H   UNL     1     -10.570  19.334  70.344  1.00  0.00     0.000 HD 
ENDBRANCH  14  20
ENDBRANCH   5   6
ENDBRANCH   4   5
TORSDOF 3
ENDMDL
MODEL       30
REMARK 921   NORMALIZED FREE ENERGY PREDICTED BY IDOCK:   -6.21 KCAL/MOL
REMARK 922        TOTAL FREE ENERGY PREDICTED BY IDOCK:   -8.40 KCAL/MOL
REMARK 923 INTER-LIGAND FREE ENERGY PREDICTED BY IDOCK:   -7.29 KCAL/MOL
REMARK 924 INTRA-LIGAND FREE ENERGY PREDICTED BY IDOCK:   -1.11 KCAL/MOL
REMARK 927      BINDING AFFINITY PREDICTED BY RF-SCORE:    0.00 PKD
ROOT
HETATM    1  C   UNL     1      -9.346   2.277  70.508  1.00  0.00    -0.198 C  
HETATM    2  C   UNL     1      -7.959   2.794  70.888  1.00  0.00    -0.055 C  
HETATM    3  C   UNL     1      -7.079   1.628  71.358  1.00  0.00    -0.031 C  
HETATM    4  C   UNL     1      -7.240   3.483  69.720  1.00  0.00    -0.042 C  
ENDROOT
BRANCH   4   5
HETATM    5  C   UNL     1      -7.900   4.746  69.164  1.00  0.00    -0.071 C  
BRANCH   5   6
HETATM    6  C   UNL     1      -8.372   5.600  70.360  1.00  0.00    -0.119 C  
HETATM    7  C   UNL     1      -9.654   6.433  70.133  1.00  0.00    -0.173 C  
HETATM    8  C   UNL     1     -10.769   5.478  69.669  1.00  0.00    -0.349 C  
HETATM    9  C   UNL     1      -9.973   7.404  71.430  1.00  0.00    -0.195 C  
HETATM   10  C   UNL     1      -8.868   8.459  71.513  1.00  0.00    -0.239 C  
HETATM   11  C   UNL     1      -9.327   9.569  70.592  1.00  0.00    -0.263 C  
HETATM   12  C   UNL     1     -10.774   9.217  70.138  1.00  0.00    -0.269 C  
HETATM   13  C   UNL     1     -11.520  10.492  69.778  1.00  0.00    -0.365 C  
HETATM   14  C   UNL     1     -10.904  11.556  69.212  1.00  0.00    -0.217 C  
HETATM   15  C   UNL     1     -12.980  10.411  70.086  1.00  0.00    -0.003 C  
HETATM   16  C   UNL     1     -12.456   7.245  71.256  1.00  0.00    -0.402 C  
HETATM   17  C   UNL     1     -13.192   9.959  71.551  1.00  0.00    -0.501 C  
HETATM   18  C   UNL     1     -11.302   8.277  71.290  1.00  0.00    -0.308 C  
HETATM   19  C   UNL     1     -11.913   9.340  72.262  1.00  0.00    -0.204 C  
BRANCH  14  20
HETATM   20  C   UNL     1     -11.563  12.419  68.269  1.00  0.00    -0.384 C  
HETATM   21  C   UNL     1     -12.633  13.243  66.221  1.00  0.00    -0.140 C  
HETATM   22  C   UNL     1     -11.587  12.393  66.924  1.00  0.00    -0.437 C  
HETATM   23  C   UNL     1     -11.992  14.226  65.247  1.00  0.00    -0.389 C  
HETATM   24  O   UNL     1     -11.252  15.230  65.946  1.00  0.00    -0.322 OA 
HETATM   25  C   UNL     1     -11.090  13.494  64.261  1.00  0.00    -0.371 C  
HETATM   26  H   UNL     1     -10.853  15.842  65.339  1.00  0.00     0.000 HD 
HETATM   27  C   UNL     1     -10.048  12.618  64.973  1.00  0.00    -0.231 C  
HETATM   28  C   UNL     1     -10.700  11.681  65.998  1.00  0.00    -0.328 C  
HETATM   29  O   UNL     1      -9.331  11.884  63.986  1.00  0.00    -0.477 OA 
HETATM   30  C   UNL     1     -10.515  10.357  65.997  1.00  0.00    -0.211 C  
HETATM   31  H   UNL     1      -8.686  11.341  64.426  1.00  0.00     0.000 HD 
ENDBRANCH  14  20
ENDBRANCH   5   6
ENDBRANCH   4   5
TORSDOF 3
ENDMDL
MODEL       31
REMARK 921   NORMALIZED FREE ENERGY PREDICTED BY IDOCK:   -6.21 KCAL/MOL
REMARK 922        TOTAL FREE ENERGY PREDICTED BY IDOCK:   -8.40 KCAL/MOL
REMARK 923 INTER-LIGAND FREE ENERGY PREDICTED BY IDOCK:   -7.09 KCAL/MOL
REMARK 924 INTRA-LIGAND FREE ENERGY PREDICTED BY IDOCK:   -1.31 KCAL/MOL
REMARK 927      BINDING AFFINITY PREDICTED BY RF-SCORE:    0.00 PKD
ROOT
HETATM    1  C   UNL     1      -6.389  19.902  64.805  1.00  0.00    -0.312 C  
HETATM    2  C   UNL     1      -6.645  18.699  65.712  1.00  0.00    -0.304 C  
HETATM    3  C   UNL     1      -5.356  17.882  65.869  1.00  0.00    -0.237 C  
HETATM    4  C   UNL     1      -7.118  19.102  67.116  1.00  0.00    -0.212 C  
ENDROOT
BRANCH   4   5
HETATM    5  C   UNL     1      -8.455  19.842  67.197  1.00  0.00    -0.376 C  
BRANCH   5   6
HETATM    6  C   UNL     1      -9.548  18.908  66.635  1.00  0.00    -0.364 C  
HETATM    7  C   UNL     1      -9.790  17.599  67.421  1.00  0.00    -0.305 C  
HETATM    8  C   UNL     1     -10.087  17.968  68.886  1.00  0.00    -0.352 C  
HETATM    9  C   UNL     1     -10.878  16.629  66.644  1.00  0.00    -0.024 C  
HETATM   10  C   UNL     1     -10.238  16.153  65.339  1.00  0.00    -0.294 C  
HETATM   11  C   UNL     1      -9.445  14.923  65.726  1.00  0.00    -0.237 C  
HETATM   12  C   UNL     1      -9.791  14.606  67.211  1.00  0.00    -0.231 C  
HETATM   13  C   UNL     1      -9.585  13.123  67.476  1.00  0.00    -0.208 C  
HETATM   14  C   UNL     1      -8.609  12.407  66.871  1.00  0.00    -0.171 C  
HETATM   15  C   UNL     1     -10.545  12.580  68.486  1.00  0.00    -0.262 C  
HETATM   16  C   UNL     1     -11.910  15.704  68.717  1.00  0.00    -0.336 C  
HETATM   17  C   UNL     1     -11.997  12.947  68.092  1.00  0.00    -0.306 C  
HETATM   18  C   UNL     1     -11.210  15.267  67.408  1.00  0.00    -0.311 C  
HETATM   19  C   UNL     1     -12.134  14.077  66.983  1.00  0.00    -0.455 C  
BRANCH  14  20
HETATM   20  C   UNL     1      -7.936  11.314  67.520  1.00  0.00    -0.124 C  
HETATM   21  C   UNL     1      -7.134   9.056  68.045  1.00  0.00    -0.079 C  
HETATM   22  C   UNL     1      -8.213   9.998  67.536  1.00  0.00    -0.114 C  
HETATM   23  C   UNL     1      -7.634   8.212  69.213  1.00  0.00    -0.095 C  
HETATM   24  O   UNL     1      -7.855   9.019  70.370  1.00  0.00    -0.086 OA 
HETATM   25  C   UNL     1      -8.910   7.471  68.832  1.00  0.00    -0.135 C  
HETATM   26  H   UNL     1      -8.167   8.494  71.098  1.00  0.00     0.000 HD 
HETATM   27  C   UNL     1      -9.992   8.421  68.297  1.00  0.00    -0.187 C  
HETATM   28  C   UNL     1      -9.456   9.311  67.168  1.00  0.00    -0.191 C  
HETATM   29  O   UNL     1     -11.097   7.639  67.857  1.00  0.00    -0.475 OA 
HETATM   30  C   UNL     1     -10.039   9.396  65.967  1.00  0.00    -0.302 C  
HETATM   31  H   UNL     1     -11.766   8.227  67.526  1.00  0.00     0.000 HD 
ENDBRANCH  14  20
ENDBRANCH   5   6
ENDBRANCH   4   5
TORSDOF 3
ENDMDL
MODEL       32
REMARK 921   NORMALIZED FREE ENERGY PREDICTED BY IDOCK:   -6.14 KCAL/MOL
REMARK 922        TOTAL FREE ENERGY PREDICTED BY IDOCK:   -8.32 KCAL/MOL
REMARK 923 INTER-LIGAND FREE ENERGY PREDICTED BY IDOCK:   -7.07 KCAL/MOL
REMARK 924 INTRA-LIGAND FREE ENERGY PREDICTED BY IDOCK:   -1.25 KCAL/MOL
REMARK 927      BINDING AFFINITY PREDICTED BY RF-SCORE:    0.00 PKD
ROOT
HETATM    1  C   UNL     1      -5.435  11.337  66.384  1.00  0.00    -0.139 C  
HETATM    2  C   UNL     1      -6.190  11.695  67.664  1.00  0.00    -0.068 C  
HETATM    3  C   UNL     1      -6.447  10.426  68.488  1.00  0.00    -0.051 C  
HETATM    4  C   UNL     1      -5.421  12.683  68.552  1.00  0.00    -0.057 C  
ENDROOT
BRANCH   4   5
HETATM    5  C   UNL     1      -5.151  14.065  67.955  1.00  0.00    -0.098 C  
BRANCH   5   6
HETATM    6  C   UNL     1      -6.497  14.643  67.468  1.00  0.00    -0.079 C  
HETATM    7  C   UNL     1      -7.663  14.591  68.482  1.00  0.00    -0.129 C  
HETATM    8  C   UNL     1      -7.204  15.290  69.774  1.00  0.00    -0.146 C  
HETATM    9  C   UNL     1      -9.073  15.108  67.796  1.00  0.00    -0.179 C  
HETATM   10  C   UNL     1      -9.479  14.090  66.728  1.00  0.00    -0.292 C  
HETATM   11  C   UNL     1     -10.254  13.030  67.481  1.00  0.00    -0.221 C  
HETATM   12  C   UNL     1     -10.440  13.549  68.938  1.00  0.00    -0.145 C  
HETATM   13  C   UNL     1     -11.682  12.920  69.549  1.00  0.00    -0.387 C  
HETATM   14  C   UNL     1     -12.074  11.659  69.256  1.00  0.00    -0.323 C  
HETATM   15  C   UNL     1     -12.374  13.831  70.511  1.00  0.00    -0.429 C  
HETATM   16  C   UNL     1      -9.977  16.176  69.860  1.00  0.00    -0.001 C  
HETATM   17  C   UNL     1     -12.633  15.207  69.851  1.00  0.00    -0.205 C  
HETATM   18  C   UNL     1     -10.325  15.116  68.787  1.00  0.00    -0.236 C  
HETATM   19  C   UNL     1     -11.821  15.482  68.513  1.00  0.00    -0.276 C  
BRANCH  14  20
HETATM   20  C   UNL     1     -12.726  10.809  70.216  1.00  0.00    -0.286 C  
HETATM   21  C   UNL     1     -13.097   9.270  72.090  1.00  0.00    -0.520 C  
HETATM   22  C   UNL     1     -12.262   9.760  70.918  1.00  0.00    -0.390 C  
HETATM   23  C   UNL     1     -13.464   7.798  71.937  1.00  0.00    -0.266 C  
HETATM   24  O   UNL     1     -14.378   7.607  70.856  1.00  0.00    -0.644 OA 
HETATM   25  C   UNL     1     -12.214   6.951  71.730  1.00  0.00    -0.396 C  
HETATM   26  H   UNL     1     -14.606   6.689  70.761  1.00  0.00     0.000 HD 
HETATM   27  C   UNL     1     -11.359   7.461  70.560  1.00  0.00    -0.271 C  
HETATM   28  C   UNL     1     -11.055   8.959  70.691  1.00  0.00    -0.306 C  
HETATM   29  O   UNL     1     -10.161   6.693  70.512  1.00  0.00    -0.186 OA 
HETATM   30  C   UNL     1      -9.813   9.456  70.658  1.00  0.00    -0.340 C  
HETATM   31  H   UNL     1      -9.633   7.008  69.789  1.00  0.00     0.000 HD 
ENDBRANCH  14  20
ENDBRANCH   5   6
ENDBRANCH   4   5
TORSDOF 3
ENDMDL
MODEL       33
REMARK 921   NORMALIZED FREE ENERGY PREDICTED BY IDOCK:   -6.04 KCAL/MOL
REMARK 922        TOTAL FREE ENERGY PREDICTED BY IDOCK:   -8.20 KCAL/MOL
REMARK 923 INTER-LIGAND FREE ENERGY PREDICTED BY IDOCK:   -7.00 KCAL/MOL
REMARK 924 INTRA-LIGAND FREE ENERGY PREDICTED BY IDOCK:   -1.21 KCAL/MOL
REMARK 927      BINDING AFFINITY PREDICTED BY RF-SCORE:    0.00 PKD
ROOT
HETATM    1  C   UNL     1     -13.493  15.442  70.994  1.00  0.00    -0.510 C  
HETATM    2  C   UNL     1     -12.158  15.964  71.523  1.00  0.00    -0.533 C  
HETATM    3  C   UNL     1     -11.784  15.222  72.813  1.00  0.00    -0.502 C  
HETATM    4  C   UNL     1     -11.008  15.777  70.525  1.00  0.00    -0.361 C  
ENDROOT
BRANCH   4   5
HETATM    5  C   UNL     1     -11.130  16.528  69.197  1.00  0.00    -0.270 C  
BRANCH   5   6
HETATM    6  C   UNL     1     -10.297  15.767  68.144  1.00  0.00    -0.242 C  
HETATM    7  C   UNL     1     -10.650  14.275  67.949  1.00  0.00    -0.240 C  
HETATM    8  C   UNL     1     -12.154  14.177  67.631  1.00  0.00    -0.337 C  
HETATM    9  C   UNL     1      -9.601  13.544  66.903  1.00  0.00    -0.258 C  
HETATM   10  C   UNL     1      -8.224  13.504  67.568  1.00  0.00    -0.186 C  
HETATM   11  C   UNL     1      -8.238  12.244  68.406  1.00  0.00    -0.146 C  
HETATM   12  C   UNL     1      -9.554  11.484  68.066  1.00  0.00    -0.180 C  
HETATM   13  C   UNL     1      -9.367   9.998  68.328  1.00  0.00    -0.136 C  
HETATM   14  C   UNL     1      -8.591   9.531  69.333  1.00  0.00    -0.159 C  
HETATM   15  C   UNL     1     -10.152   9.144  67.384  1.00  0.00    -0.289 C  
HETATM   16  C   UNL     1     -11.285  12.004  65.898  1.00  0.00    -0.385 C  
HETATM   17  C   UNL     1      -9.862   9.560  65.921  1.00  0.00    -0.360 C  
HETATM   18  C   UNL     1      -9.916  12.005  66.621  1.00  0.00    -0.219 C  
HETATM   19  C   UNL     1      -9.141  10.965  65.746  1.00  0.00    -0.214 C  
BRANCH  14  20
HETATM   20  C   UNL     1      -8.895   8.319  70.045  1.00  0.00    -0.134 C  
HETATM   21  C   UNL     1      -8.762   6.019  70.888  1.00  0.00    -0.135 C  
HETATM   22  C   UNL     1      -8.571   7.041  69.779  1.00  0.00    -0.141 C  
HETATM   23  C   UNL     1      -9.683   4.885  70.452  1.00  0.00    -0.214 C  
HETATM   24  O   UNL     1     -11.023   5.351  70.281  1.00  0.00    -0.225 OA 
HETATM   25  C   UNL     1      -9.177   4.247  69.164  1.00  0.00    -0.209 C  
HETATM   26  H   UNL     1     -11.597   4.645  70.009  1.00  0.00     0.000 HD 
HETATM   27  C   UNL     1      -8.964   5.283  68.051  1.00  0.00    -0.109 C  
HETATM   28  C   UNL     1      -8.090   6.452  68.524  1.00  0.00    -0.110 C  
HETATM   29  O   UNL     1      -8.381   4.624  66.931  1.00  0.00    -0.106 OA 
HETATM   30  C   UNL     1      -6.983   6.841  67.883  1.00  0.00    -0.083 C  
HETATM   31  H   UNL     1      -8.249   5.266  66.242  1.00  0.00     0.000 HD 
ENDBRANCH  14  20
ENDBRANCH   5   6
ENDBRANCH   4   5
TORSDOF 3
ENDMDL
MODEL       34
REMARK 921   NORMALIZED FREE ENERGY PREDICTED BY IDOCK:   -5.98 KCAL/MOL
REMARK 922        TOTAL FREE ENERGY PREDICTED BY IDOCK:   -8.13 KCAL/MOL
REMARK 923 INTER-LIGAND FREE ENERGY PREDICTED BY IDOCK:   -7.03 KCAL/MOL
REMARK 924 INTRA-LIGAND FREE ENERGY PREDICTED BY IDOCK:   -1.11 KCAL/MOL
REMARK 927      BINDING AFFINITY PREDICTED BY RF-SCORE:    0.00 PKD
ROOT
HETATM    1  C   UNL     1     -10.654  17.866  67.911  1.00  0.00    -0.387 C  
HETATM    2  C   UNL     1     -10.469  16.430  68.399  1.00  0.00    -0.298 C  
HETATM    3  C   UNL     1     -10.915  16.315  69.862  1.00  0.00    -0.365 C  
HETATM    4  C   UNL     1     -11.279  15.415  67.581  1.00  0.00    -0.311 C  
ENDROOT
BRANCH   4   5
HETATM    5  C   UNL     1     -10.916  15.289  66.100  1.00  0.00    -0.307 C  
BRANCH   5   6
HETATM    6  C   UNL     1      -9.816  14.214  65.971  1.00  0.00    -0.329 C  
HETATM    7  C   UNL     1     -10.220  12.779  66.384  1.00  0.00    -0.263 C  
HETATM    8  C   UNL     1     -11.469  12.383  65.576  1.00  0.00    -0.404 C  
HETATM    9  C   UNL     1      -8.924  11.757  66.334  1.00  0.00    -0.201 C  
HETATM   10  C   UNL     1      -7.944  12.184  67.428  1.00  0.00    -0.168 C  
HETATM   11  C   UNL     1      -8.430  11.478  68.676  1.00  0.00    -0.115 C  
HETATM   12  C   UNL     1      -9.570  10.513  68.240  1.00  0.00    -0.164 C  
HETATM   13  C   UNL     1      -9.665   9.358  69.225  1.00  0.00    -0.173 C  
HETATM   14  C   UNL     1      -9.415   9.510  70.546  1.00  0.00    -0.306 C  
HETATM   15  C   UNL     1     -10.091   8.081  68.575  1.00  0.00    -0.218 C  
HETATM   16  C   UNL     1     -10.215   9.754  65.599  1.00  0.00    -0.178 C  
HETATM   17  C   UNL     1      -9.194   7.782  67.349  1.00  0.00    -0.156 C  
HETATM   18  C   UNL     1      -9.262  10.244  66.716  1.00  0.00    -0.180 C  
HETATM   19  C   UNL     1      -8.316   9.003  66.836  1.00  0.00    -0.119 C  
BRANCH  14  20
HETATM   20  C   UNL     1     -10.108   8.756  71.556  1.00  0.00    -0.371 C  
HETATM   21  C   UNL     1     -10.581   7.138  73.339  1.00  0.00    -0.424 C  
HETATM   22  C   UNL     1      -9.868   7.530  72.054  1.00  0.00    -0.200 C  
HETATM   23  C   UNL     1     -11.405   5.868  73.155  1.00  0.00    -0.101 C  
HETATM   24  O   UNL     1     -12.517   6.100  72.288  1.00  0.00    -0.505 OA 
HETATM   25  C   UNL     1     -10.538   4.739  72.613  1.00  0.00    -0.271 C  
HETATM   26  H   UNL     1     -13.031   5.309  72.174  1.00  0.00     0.000 HD 
HETATM   27  C   UNL     1      -9.800   5.143  71.328  1.00  0.00    -0.177 C  
HETATM   28  C   UNL     1      -9.030   6.458  71.506  1.00  0.00    -0.144 C  
HETATM   29  O   UNL     1      -8.928   4.080  70.959  1.00  0.00    -0.097 OA 
HETATM   30  C   UNL     1      -7.725   6.580  71.241  1.00  0.00    -0.095 C  
HETATM   31  H   UNL     1      -8.471   4.330  70.164  1.00  0.00     0.000 HD 
ENDBRANCH  14  20
ENDBRANCH   5   6
ENDBRANCH   4   5
TORSDOF 3
ENDMDL
MODEL       35
REMARK 921   NORMALIZED FREE ENERGY PREDICTED BY IDOCK:   -5.93 KCAL/MOL
REMARK 922        TOTAL FREE ENERGY PREDICTED BY IDOCK:   -8.08 KCAL/MOL
REMARK 923 INTER-LIGAND FREE ENERGY PREDICTED BY IDOCK:   -6.81 KCAL/MOL
REMARK 924 INTRA-LIGAND FREE ENERGY PREDICTED BY IDOCK:   -1.27 KCAL/MOL
REMARK 927      BINDING AFFINITY PREDICTED BY RF-SCORE:    0.00 PKD
ROOT
HETATM    1  C   UNL     1      -9.490   2.669  64.480  1.00  0.00    -0.140 C  
HETATM    2  C   UNL     1      -7.979   2.691  64.251  1.00  0.00    -0.081 C  
HETATM    3  C   UNL     1      -7.665   3.386  62.920  1.00  0.00    -0.066 C  
HETATM    4  C   UNL     1      -7.220   3.434  65.358  1.00  0.00    -0.067 C  
ENDROOT
BRANCH   4   5
HETATM    5  C   UNL     1      -7.311   2.837  66.764  1.00  0.00    -0.069 C  
BRANCH   5   6
HETATM    6  C   UNL     1      -7.211   3.996  67.779  1.00  0.00    -0.063 C  
HETATM    7  C   UNL     1      -8.358   5.032  67.739  1.00  0.00    -0.105 C  
HETATM    8  C   UNL     1      -9.690   4.277  67.901  1.00  0.00    -0.172 C  
HETATM    9  C   UNL     1      -8.064   6.289  68.769  1.00  0.00    -0.109 C  
HETATM   10  C   UNL     1      -6.859   7.065  68.234  1.00  0.00    -0.074 C  
HETATM   11  C   UNL     1      -7.443   8.043  67.238  1.00  0.00    -0.093 C  
HETATM   12  C   UNL     1      -8.993   7.939  67.351  1.00  0.00    -0.133 C  
HETATM   13  C   UNL     1      -9.625   9.250  66.911  1.00  0.00    -0.229 C  
HETATM   14  C   UNL     1      -9.097  10.015  65.928  1.00  0.00    -0.195 C  
HETATM   15  C   UNL     1     -10.884   9.560  67.656  1.00  0.00    -0.253 C  
HETATM   16  C   UNL     1     -10.448   6.656  69.401  1.00  0.00    -0.254 C  
HETATM   17  C   UNL     1     -10.637   9.469  69.182  1.00  0.00    -0.237 C  
HETATM   18  C   UNL     1      -9.219   7.390  68.813  1.00  0.00    -0.144 C  
HETATM   19  C   UNL     1      -9.294   8.735  69.609  1.00  0.00    -0.158 C  
BRANCH  14  20
HETATM   20  C   UNL     1      -9.911  10.797  65.035  1.00  0.00    -0.361 C  
HETATM   21  C   UNL     1     -10.956  12.711  63.913  1.00  0.00    -0.468 C  
HETATM   22  C   UNL     1     -10.404  12.042  65.161  1.00  0.00    -0.313 C  
HETATM   23  C   UNL     1     -12.409  13.135  64.103  1.00  0.00    -0.348 C  
HETATM   24  O   UNL     1     -13.266  11.996  64.200  1.00  0.00    -0.712 OA 
HETATM   25  C   UNL     1     -12.555  14.015  65.338  1.00  0.00    -0.529 C  
HETATM   26  H   UNL     1     -14.171  12.260  64.318  1.00  0.00     0.000 HD 
HETATM   27  C   UNL     1     -11.976  13.346  66.594  1.00  0.00    -0.399 C  
HETATM   28  C   UNL     1     -10.538  12.865  66.368  1.00  0.00    -0.285 C  
HETATM   29  O   UNL     1     -12.046  14.278  67.670  1.00  0.00    -0.514 OA 
HETATM   30  C   UNL     1      -9.519  13.213  67.161  1.00  0.00    -0.239 C  
HETATM   31  H   UNL     1     -11.688  13.864  68.446  1.00  0.00     0.000 HD 
ENDBRANCH  14  20
ENDBRANCH   5   6
ENDBRANCH   4   5
TORSDOF 3
ENDMDL
MODEL       36
REMARK 921   NORMALIZED FREE ENERGY PREDICTED BY IDOCK:   -5.92 KCAL/MOL
REMARK 922        TOTAL FREE ENERGY PREDICTED BY IDOCK:   -8.07 KCAL/MOL
REMARK 923 INTER-LIGAND FREE ENERGY PREDICTED BY IDOCK:   -7.09 KCAL/MOL
REMARK 924 INTRA-LIGAND FREE ENERGY PREDICTED BY IDOCK:   -0.97 KCAL/MOL
REMARK 927      BINDING AFFINITY PREDICTED BY RF-SCORE:    0.00 PKD
ROOT
HETATM    1  C   UNL     1      -7.966   6.587  73.096  1.00  0.00    -0.103 C  
HETATM    2  C   UNL     1      -9.427   6.553  72.648  1.00  0.00    -0.153 C  
HETATM    3  C   UNL     1     -10.223   5.593  73.542  1.00  0.00    -0.227 C  
HETATM    4  C   UNL     1     -10.104   7.929  72.718  1.00  0.00    -0.365 C  
ENDROOT
BRANCH   4   5
HETATM    5  C   UNL     1      -9.527   9.018  71.812  1.00  0.00    -0.245 C  
BRANCH   5   6
HETATM    6  C   UNL     1     -10.665   9.530  70.904  1.00  0.00    -0.403 C  
HETATM    7  C   UNL     1     -10.234  10.412  69.709  1.00  0.00    -0.228 C  
HETATM    8  C   UNL     1      -9.191   9.631  68.890  1.00  0.00    -0.147 C  
HETATM    9  C   UNL     1     -11.546  11.008  68.903  1.00  0.00    -0.383 C  
HETATM   10  C   UNL     1     -12.266  11.987  69.832  1.00  0.00    -0.249 C  
HETATM   11  C   UNL     1     -11.559  13.309  69.621  1.00  0.00    -0.329 C  
HETATM   12  C   UNL     1     -10.565  13.111  68.439  1.00  0.00    -0.264 C  
HETATM   13  C   UNL     1     -10.309  14.447  67.760  1.00  0.00    -0.238 C  
HETATM   14  C   UNL     1     -10.278  15.613  68.444  1.00  0.00    -0.222 C  
HETATM   15  C   UNL     1     -10.068  14.308  66.291  1.00  0.00    -0.308 C  
HETATM   16  C   UNL     1     -10.501  10.937  66.640  1.00  0.00    -0.307 C  
HETATM   17  C   UNL     1     -11.207  13.486  65.639  1.00  0.00    -0.304 C  
HETATM   18  C   UNL     1     -11.188  11.906  67.633  1.00  0.00    -0.340 C  
HETATM   19  C   UNL     1     -12.130  12.682  66.653  1.00  0.00    -0.267 C  
BRANCH  14  20
HETATM   20  C   UNL     1      -9.418  16.705  68.071  1.00  0.00    -0.224 C  
HETATM   21  C   UNL     1      -7.451  17.974  67.336  1.00  0.00    -0.212 C  
HETATM   22  C   UNL     1      -8.078  16.814  68.095  1.00  0.00    -0.197 C  
HETATM   23  C   UNL     1      -6.592  18.840  68.251  1.00  0.00    -0.225 C  
HETATM   24  O   UNL     1      -7.400  19.542  69.198  1.00  0.00    -0.361 OA 
HETATM   25  C   UNL     1      -5.549  17.993  68.969  1.00  0.00    -0.197 C  
HETATM   26  H   UNL     1      -6.864  20.082  69.768  1.00  0.00     0.000 HD 
HETATM   27  C   UNL     1      -6.182  16.809  69.717  1.00  0.00    -0.206 C  
HETATM   28  C   UNL     1      -7.096  15.985  68.802  1.00  0.00    -0.146 C  
HETATM   29  O   UNL     1      -5.134  16.009  70.256  1.00  0.00    -0.132 OA 
HETATM   30  C   UNL     1      -6.963  14.665  68.634  1.00  0.00    -0.111 C  
HETATM   31  H   UNL     1      -5.526  15.277  70.718  1.00  0.00     0.000 HD 
ENDBRANCH  14  20
ENDBRANCH   5   6
ENDBRANCH   4   5
TORSDOF 3
ENDMDL
MODEL       37
REMARK 921   NORMALIZED FREE ENERGY PREDICTED BY IDOCK:   -5.90 KCAL/MOL
REMARK 922        TOTAL FREE ENERGY PREDICTED BY IDOCK:   -8.04 KCAL/MOL
REMARK 923 INTER-LIGAND FREE ENERGY PREDICTED BY IDOCK:   -7.04 KCAL/MOL
REMARK 924 INTRA-LIGAND FREE ENERGY PREDICTED BY IDOCK:   -1.00 KCAL/MOL
REMARK 927      BINDING AFFINITY PREDICTED BY RF-SCORE:    0.00 PKD
ROOT
HETATM    1  C   UNL     1      -8.949   4.152  72.920  1.00  0.00    -0.115 C  
HETATM    2  C   UNL     1     -10.403   3.765  72.654  1.00  0.00    -0.226 C  
HETATM    3  C   UNL     1     -10.805   2.594  73.559  1.00  0.00    -0.293 C  
HETATM    4  C   UNL     1     -11.383   4.918  72.916  1.00  0.00    -0.296 C  
ENDROOT
BRANCH   4   5
HETATM    5  C   UNL     1     -11.225   6.159  72.036  1.00  0.00    -0.335 C  
BRANCH   5   6
HETATM    6  C   UNL     1     -10.626   5.709  70.686  1.00  0.00    -0.347 C  
HETATM    7  C   UNL     1      -9.767   6.758  69.943  1.00  0.00    -0.164 C  
HETATM    8  C   UNL     1      -8.659   7.233  70.901  1.00  0.00    -0.136 C  
HETATM    9  C   UNL     1      -9.305   6.206  68.456  1.00  0.00    -0.117 C  
HETATM   10  C   UNL     1     -10.558   6.087  67.587  1.00  0.00    -0.336 C  
HETATM   11  C   UNL     1     -10.749   7.467  66.996  1.00  0.00    -0.367 C  
HETATM   12  C   UNL     1      -9.499   8.309  67.388  1.00  0.00    -0.188 C  
HETATM   13  C   UNL     1      -9.287   9.414  66.365  1.00  0.00    -0.241 C  
HETATM   14  C   UNL     1     -10.318  10.034  65.745  1.00  0.00    -0.191 C  
HETATM   15  C   UNL     1      -7.843   9.742  66.164  1.00  0.00    -0.107 C  
HETATM   16  C   UNL     1      -7.078   7.328  68.457  1.00  0.00    -0.085 C  
HETATM   17  C   UNL     1      -7.040   8.453  65.862  1.00  0.00    -0.072 C  
HETATM   18  C   UNL     1      -8.384   7.219  67.634  1.00  0.00    -0.117 C  
HETATM   19  C   UNL     1      -7.792   7.093  66.191  1.00  0.00    -0.105 C  
BRANCH  14  20
HETATM   20  C   UNL     1     -10.269  11.421  65.365  1.00  0.00    -0.320 C  
HETATM   21  C   UNL     1      -9.976  13.854  65.468  1.00  0.00    -0.275 C  
HETATM   22  C   UNL     1     -10.396  12.538  66.103  1.00  0.00    -0.274 C  
HETATM   23  C   UNL     1     -11.121  14.862  65.462  1.00  0.00    -0.352 C  
HETATM   24  O   UNL     1     -12.160  14.452  64.570  1.00  0.00    -0.445 OA 
HETATM   25  C   UNL     1     -11.675  15.054  66.868  1.00  0.00    -0.181 C  
HETATM   26  H   UNL     1     -12.873  15.080  64.566  1.00  0.00     0.000 HD 
HETATM   27  C   UNL     1     -12.078  13.721  67.516  1.00  0.00    -0.331 C  
HETATM   28  C   UNL     1     -10.941  12.694  67.456  1.00  0.00    -0.280 C  
HETATM   29  O   UNL     1     -12.471  13.978  68.861  1.00  0.00    -0.501 OA 
HETATM   30  C   UNL     1     -10.470  12.063  68.537  1.00  0.00    -0.244 C  
HETATM   31  H   UNL     1     -12.720  13.154  69.262  1.00  0.00     0.000 HD 
ENDBRANCH  14  20
ENDBRANCH   5   6
ENDBRANCH   4   5
TORSDOF 3
ENDMDL
MODEL       38
REMARK 921   NORMALIZED FREE ENERGY PREDICTED BY IDOCK:   -5.86 KCAL/MOL
REMARK 922        TOTAL FREE ENERGY PREDICTED BY IDOCK:   -7.99 KCAL/MOL
REMARK 923 INTER-LIGAND FREE ENERGY PREDICTED BY IDOCK:   -7.10 KCAL/MOL
REMARK 924 INTRA-LIGAND FREE ENERGY PREDICTED BY IDOCK:   -0.90 KCAL/MOL
REMARK 927      BINDING AFFINITY PREDICTED BY RF-SCORE:    0.00 PKD
ROOT
HETATM    1  C   UNL     1      -8.308  18.217  66.466  1.00  0.00    -0.287 C  
HETATM    2  C   UNL     1      -9.519  18.905  67.095  1.00  0.00    -0.337 C  
HETATM    3  C   UNL     1     -10.095  19.939  66.118  1.00  0.00    -0.611 C  
HETATM    4  C   UNL     1     -10.642  17.922  67.453  1.00  0.00    -0.370 C  
ENDROOT
BRANCH   4   5
HETATM    5  C   UNL     1     -10.309  16.862  68.503  1.00  0.00    -0.336 C  
BRANCH   5   6
HETATM    6  C   UNL     1     -11.338  15.719  68.366  1.00  0.00    -0.372 C  
HETATM    7  C   UNL     1     -11.171  14.536  69.347  1.00  0.00    -0.312 C  
HETATM    8  C   UNL     1     -11.167  15.099  70.780  1.00  0.00    -0.322 C  
HETATM    9  C   UNL     1     -12.240  13.324  69.008  1.00  0.00    -0.156 C  
HETATM   10  C   UNL     1     -11.859  12.725  67.653  1.00  0.00    -0.396 C  
HETATM   11  C   UNL     1     -10.808  11.684  67.974  1.00  0.00    -0.259 C  
HETATM   12  C   UNL     1     -10.735  11.572  69.525  1.00  0.00    -0.054 C  
HETATM   13  C   UNL     1     -10.235  10.190  69.914  1.00  0.00    -0.284 C  
HETATM   14  C   UNL     1      -9.328   9.513  69.172  1.00  0.00    -0.163 C  
HETATM   15  C   UNL     1     -10.826   9.704  71.198  1.00  0.00    -0.404 C  
HETATM   16  C   UNL     1     -12.586  12.627  71.377  1.00  0.00    -0.304 C  
HETATM   17  C   UNL     1     -12.370   9.816  71.149  1.00  0.00    -0.451 C  
HETATM   18  C   UNL     1     -12.155  12.073  69.997  1.00  0.00    -0.355 C  
HETATM   19  C   UNL     1     -12.948  10.724  69.981  1.00  0.00     0.042 C  
BRANCH  14  20
HETATM   20  C   UNL     1      -8.351   8.633  69.758  1.00  0.00    -0.123 C  
HETATM   21  C   UNL     1      -7.124   6.603  70.381  1.00  0.00    -0.068 C  
HETATM   22  C   UNL     1      -8.425   7.329  70.075  1.00  0.00    -0.139 C  
HETATM   23  C   UNL     1      -7.149   5.971  71.769  1.00  0.00    -0.086 C  
HETATM   24  O   UNL     1      -7.146   6.972  72.788  1.00  0.00    -0.073 OA 
HETATM   25  C   UNL     1      -8.363   5.063  71.923  1.00  0.00    -0.120 C  
HETATM   26  H   UNL     1      -7.162   6.579  73.652  1.00  0.00     0.000 HD 
HETATM   27  C   UNL     1      -9.675   5.791  71.592  1.00  0.00    -0.161 C  
HETATM   28  C   UNL     1      -9.611   6.479  70.223  1.00  0.00    -0.172 C  
HETATM   29  O   UNL     1     -10.738   4.845  71.646  1.00  0.00    -0.127 OA 
HETATM   30  C   UNL     1     -10.515   6.271  69.259  1.00  0.00    -0.298 C  
HETATM   31  H   UNL     1     -11.549   5.295  71.441  1.00  0.00     0.000 HD 
ENDBRANCH  14  20
ENDBRANCH   5   6
ENDBRANCH   4   5
TORSDOF 3
ENDMDL
MODEL       39
REMARK 921   NORMALIZED FREE ENERGY PREDICTED BY IDOCK:   -5.85 KCAL/MOL
REMARK 922        TOTAL FREE ENERGY PREDICTED BY IDOCK:   -7.98 KCAL/MOL
REMARK 923 INTER-LIGAND FREE ENERGY PREDICTED BY IDOCK:   -7.29 KCAL/MOL
REMARK 924 INTRA-LIGAND FREE ENERGY PREDICTED BY IDOCK:   -0.70 KCAL/MOL
REMARK 927      BINDING AFFINITY PREDICTED BY RF-SCORE:    0.00 PKD
ROOT
HETATM    1  C   UNL     1     -10.174  19.951  65.977  1.00  0.00    -0.591 C  
HETATM    2  C   UNL     1      -9.011  19.164  66.580  1.00  0.00    -0.359 C  
HETATM    3  C   UNL     1      -7.993  20.131  67.199  1.00  0.00    -0.363 C  
HETATM    4  C   UNL     1      -9.457  18.188  67.677  1.00  0.00    -0.264 C  
ENDROOT
BRANCH   4   5
HETATM    5  C   UNL     1     -10.401  17.064  67.245  1.00  0.00    -0.311 C  
BRANCH   5   6
HETATM    6  C   UNL     1      -9.538  15.886  66.745  1.00  0.00    -0.252 C  
HETATM    7  C   UNL     1     -10.175  14.482  66.860  1.00  0.00    -0.264 C  
HETATM    8  C   UNL     1     -11.532  14.512  66.134  1.00  0.00    -0.357 C  
HETATM    9  C   UNL     1      -9.104  13.302  66.425  1.00  0.00    -0.062 C  
HETATM   10  C   UNL     1      -7.984  13.276  67.467  1.00  0.00    -0.186 C  
HETATM   11  C   UNL     1      -8.503  12.375  68.567  1.00  0.00    -0.069 C  
HETATM   12  C   UNL     1      -9.835  11.751  68.056  1.00  0.00    -0.184 C  
HETATM   13  C   UNL     1     -10.075  10.421  68.753  1.00  0.00    -0.198 C  
HETATM   14  C   UNL     1      -9.705  10.198  70.035  1.00  0.00    -0.144 C  
HETATM   15  C   UNL     1     -10.782   9.434  67.880  1.00  0.00    -0.269 C  
HETATM   16  C   UNL     1     -10.803  11.788  65.405  1.00  0.00    -0.347 C  
HETATM   17  C   UNL     1     -10.050   9.302  66.522  1.00  0.00    -0.343 C  
HETATM   18  C   UNL     1      -9.695  11.821  66.486  1.00  0.00    -0.224 C  
HETATM   19  C   UNL     1      -8.996  10.449  66.205  1.00  0.00    -0.172 C  
BRANCH  14  20
HETATM   20  C   UNL     1     -10.453   9.343  70.918  1.00  0.00    -0.381 C  
HETATM   21  C   UNL     1     -11.060   7.930  72.829  1.00  0.00    -0.462 C  
HETATM   22  C   UNL     1     -10.039   8.441  71.825  1.00  0.00    -0.317 C  
HETATM   23  C   UNL     1     -11.187   6.411  72.774  1.00  0.00    -0.227 C  
HETATM   24  O   UNL     1     -11.784   5.992  71.545  1.00  0.00    -0.250 OA 
HETATM   25  C   UNL     1      -9.825   5.751  72.953  1.00  0.00    -0.174 C  
HETATM   26  H   UNL     1     -11.863   5.046  71.510  1.00  0.00     0.000 HD 
HETATM   27  C   UNL     1      -8.789   6.285  71.952  1.00  0.00    -0.139 C  
HETATM   28  C   UNL     1      -8.719   7.817  71.971  1.00  0.00    -0.162 C  
HETATM   29  O   UNL     1      -7.526   5.707  72.266  1.00  0.00    -0.095 OA 
HETATM   30  C   UNL     1      -7.581   8.493  72.158  1.00  0.00    -0.122 C  
HETATM   31  H   UNL     1      -6.884   6.037  71.647  1.00  0.00     0.000 HD 
ENDBRANCH  14  20
ENDBRANCH   5   6
ENDBRANCH   4   5
TORSDOF 3
ENDMDL
MODEL       40
REMARK 921   NORMALIZED FREE ENERGY PREDICTED BY IDOCK:   -5.82 KCAL/MOL
REMARK 922        TOTAL FREE ENERGY PREDICTED BY IDOCK:   -7.95 KCAL/MOL
REMARK 923 INTER-LIGAND FREE ENERGY PREDICTED BY IDOCK:   -7.21 KCAL/MOL
REMARK 924 INTRA-LIGAND FREE ENERGY PREDICTED BY IDOCK:   -0.73 KCAL/MOL
REMARK 927      BINDING AFFINITY PREDICTED BY RF-SCORE:    0.00 PKD
ROOT
HETATM    1  C   UNL     1      -5.878  20.125  69.539  1.00  0.00    -0.354 C  
HETATM    2  C   UNL     1      -6.764  20.414  68.328  1.00  0.00    -0.313 C  
HETATM    3  C   UNL     1      -5.948  21.132  67.245  1.00  0.00    -0.389 C  
HETATM    4  C   UNL     1      -7.354  19.142  67.705  1.00  0.00    -0.253 C  
ENDROOT
BRANCH   4   5
HETATM    5  C   UNL     1      -8.296  18.324  68.590  1.00  0.00    -0.305 C  
BRANCH   5   6
HETATM    6  C   UNL     1      -9.114  17.389  67.674  1.00  0.00    -0.234 C  
HETATM    7  C   UNL     1      -9.655  16.099  68.333  1.00  0.00    -0.209 C  
HETATM    8  C   UNL     1     -10.473  16.502  69.574  1.00  0.00    -0.298 C  
HETATM    9  C   UNL     1     -10.389  15.123  67.221  1.00  0.00    -0.261 C  
HETATM   10  C   UNL     1      -9.314  14.613  66.259  1.00  0.00    -0.293 C  
HETATM   11  C   UNL     1      -8.745  13.384  66.935  1.00  0.00    -0.154 C  
HETATM   12  C   UNL     1      -9.627  13.102  68.186  1.00  0.00    -0.227 C  
HETATM   13  C   UNL     1      -9.560  11.623  68.533  1.00  0.00    -0.181 C  
HETATM   14  C   UNL     1      -8.441  10.885  68.350  1.00  0.00    -0.141 C  
HETATM   15  C   UNL     1     -10.838  11.111  69.118  1.00  0.00    -0.284 C  
HETATM   16  C   UNL     1     -12.137  14.251  68.770  1.00  0.00    -0.300 C  
HETATM   17  C   UNL     1     -12.030  11.483  68.202  1.00  0.00    -0.206 C  
HETATM   18  C   UNL     1     -11.005  13.780  67.826  1.00  0.00    -0.272 C  
HETATM   19  C   UNL     1     -11.723  12.591  67.105  1.00  0.00    -0.425 C  
BRANCH  14  20
HETATM   20  C   UNL     1      -8.079   9.800  69.222  1.00  0.00    -0.115 C  
HETATM   21  C   UNL     1      -7.726   7.535  70.098  1.00  0.00    -0.089 C  
HETATM   22  C   UNL     1      -8.532   8.535  69.283  1.00  0.00    -0.128 C  
HETATM   23  C   UNL     1      -8.574   6.891  71.189  1.00  0.00    -0.131 C  
HETATM   24  O   UNL     1      -8.921   7.843  72.197  1.00  0.00    -0.125 OA 
HETATM   25  C   UNL     1      -9.831   6.267  70.595  1.00  0.00    -0.213 C  
HETATM   26  H   UNL     1      -9.450   7.441  72.877  1.00  0.00     0.000 HD 
HETATM   27  C   UNL     1     -10.633   7.272  69.754  1.00  0.00    -0.235 C  
HETATM   28  C   UNL     1      -9.752   7.962  68.705  1.00  0.00    -0.162 C  
HETATM   29  O   UNL     1     -11.718   6.580  69.144  1.00  0.00    -0.623 OA 
HETATM   30  C   UNL     1     -10.050   7.980  67.401  1.00  0.00    -0.294 C  
HETATM   31  H   UNL     1     -12.213   7.202  68.624  1.00  0.00     0.000 HD 
ENDBRANCH  14  20
ENDBRANCH   5   6
ENDBRANCH   4   5
TORSDOF 3
ENDMDL
MODEL       41
REMARK 921   NORMALIZED FREE ENERGY PREDICTED BY IDOCK:   -5.81 KCAL/MOL
REMARK 922        TOTAL FREE ENERGY PREDICTED BY IDOCK:   -7.93 KCAL/MOL
REMARK 923 INTER-LIGAND FREE ENERGY PREDICTED BY IDOCK:   -6.62 KCAL/MOL
REMARK 924 INTRA-LIGAND FREE ENERGY PREDICTED BY IDOCK:   -1.31 KCAL/MOL
REMARK 927      BINDING AFFINITY PREDICTED BY RF-SCORE:    0.00 PKD
ROOT
HETATM    1  C   UNL     1      -8.064  20.120  66.642  1.00  0.00    -0.330 C  
HETATM    2  C   UNL     1      -7.905  18.718  67.230  1.00  0.00    -0.243 C  
HETATM    3  C   UNL     1      -6.431  18.298  67.184  1.00  0.00    -0.191 C  
HETATM    4  C   UNL     1      -8.373  18.629  68.689  1.00  0.00    -0.344 C  
ENDROOT
BRANCH   4   5
HETATM    5  C   UNL     1      -9.855  18.908  68.948  1.00  0.00    -0.447 C  
BRANCH   5   6
HETATM    6  C   UNL     1     -10.679  17.946  68.066  1.00  0.00    -0.307 C  
HETATM    7  C   UNL     1     -10.614  16.450  68.451  1.00  0.00    -0.311 C  
HETATM    8  C   UNL     1     -11.021  16.319  69.930  1.00  0.00    -0.365 C  
HETATM    9  C   UNL     1     -11.420  15.515  67.354  1.00  0.00    -0.140 C  
HETATM   10  C   UNL     1     -10.658  15.579  66.029  1.00  0.00    -0.333 C  
HETATM   11  C   UNL     1      -9.600  14.503  66.142  1.00  0.00    -0.325 C  
HETATM   12  C   UNL     1      -9.889  13.714  67.453  1.00  0.00    -0.234 C  
HETATM   13  C   UNL     1      -9.337  12.303  67.332  1.00  0.00    -0.183 C  
HETATM   14  C   UNL     1      -8.206  12.024  66.645  1.00  0.00    -0.056 C  
HETATM   15  C   UNL     1     -10.159  11.298  68.074  1.00  0.00    -0.192 C  
HETATM   16  C   UNL     1     -12.241  13.840  69.009  1.00  0.00    -0.259 C  
HETATM   17  C   UNL     1     -11.648  11.422  67.668  1.00  0.00    -0.315 C  
HETATM   18  C   UNL     1     -11.429  13.956  67.696  1.00  0.00    -0.354 C  
HETATM   19  C   UNL     1     -12.031  12.755  66.893  1.00  0.00    -0.380 C  
BRANCH  14  20
HETATM   20  C   UNL     1      -7.302  10.975  67.036  1.00  0.00    -0.123 C  
HETATM   21  C   UNL     1      -5.942   8.934  66.982  1.00  0.00    -0.057 C  
HETATM   22  C   UNL     1      -7.202   9.701  66.615  1.00  0.00    -0.086 C  
HETATM   23  C   UNL     1      -6.268   7.659  67.752  1.00  0.00    -0.049 C  
HETATM   24  O   UNL     1      -6.787   7.962  69.049  1.00  0.00    -0.054 OA 
HETATM   25  C   UNL     1      -7.257   6.799  66.974  1.00  0.00    -0.081 C  
HETATM   26  H   UNL     1      -6.990   7.168  69.528  1.00  0.00     0.000 HD 
HETATM   27  C   UNL     1      -8.520   7.582  66.584  1.00  0.00    -0.130 C  
HETATM   28  C   UNL     1      -8.176   8.895  65.870  1.00  0.00    -0.119 C  
HETATM   29  O   UNL     1      -9.330   6.745  65.765  1.00  0.00    -0.383 OA 
HETATM   30  C   UNL     1      -8.672   9.227  64.673  1.00  0.00    -0.223 C  
HETATM   31  H   UNL     1     -10.111   7.230  65.523  1.00  0.00     0.000 HD 
ENDBRANCH  14  20
ENDBRANCH   5   6
ENDBRANCH   4   5
TORSDOF 3
ENDMDL
MODEL       42
REMARK 921   NORMALIZED FREE ENERGY PREDICTED BY IDOCK:   -5.80 KCAL/MOL
REMARK 922        TOTAL FREE ENERGY PREDICTED BY IDOCK:   -7.92 KCAL/MOL
REMARK 923 INTER-LIGAND FREE ENERGY PREDICTED BY IDOCK:   -7.15 KCAL/MOL
REMARK 924 INTRA-LIGAND FREE ENERGY PREDICTED BY IDOCK:   -0.77 KCAL/MOL
REMARK 927      BINDING AFFINITY PREDICTED BY RF-SCORE:    0.00 PKD
ROOT
HETATM    1  C   UNL     1     -13.747  15.368  71.216  1.00  0.00    -0.558 C  
HETATM    2  C   UNL     1     -12.340  15.877  71.529  1.00  0.00    -0.503 C  
HETATM    3  C   UNL     1     -11.889  15.351  72.898  1.00  0.00    -0.547 C  
HETATM    4  C   UNL     1     -11.301  15.432  70.491  1.00  0.00    -0.351 C  
ENDROOT
BRANCH   4   5
HETATM    5  C   UNL     1     -11.505  15.942  69.063  1.00  0.00    -0.380 C  
BRANCH   5   6
HETATM    6  C   UNL     1     -10.440  15.277  68.166  1.00  0.00    -0.246 C  
HETATM    7  C   UNL     1     -10.770  13.852  67.665  1.00  0.00    -0.255 C  
HETATM    8  C   UNL     1     -12.134  13.900  66.952  1.00  0.00    -0.467 C  
HETATM    9  C   UNL     1      -9.499  13.200  66.836  1.00  0.00    -0.244 C  
HETATM   10  C   UNL     1      -8.354  12.978  67.827  1.00  0.00    -0.175 C  
HETATM   11  C   UNL     1      -8.631  11.619  68.435  1.00  0.00    -0.156 C  
HETATM   12  C   UNL     1      -9.827  11.003  67.652  1.00  0.00    -0.192 C  
HETATM   13  C   UNL     1      -9.760   9.486  67.730  1.00  0.00    -0.176 C  
HETATM   14  C   UNL     1      -9.299   8.837  68.824  1.00  0.00    -0.141 C  
HETATM   15  C   UNL     1     -10.285   8.823  66.497  1.00  0.00    -0.314 C  
HETATM   16  C   UNL     1     -10.891  11.927  65.206  1.00  0.00    -0.347 C  
HETATM   17  C   UNL     1      -9.598   9.412  65.241  1.00  0.00    -0.251 C  
HETATM   18  C   UNL     1      -9.770  11.738  66.256  1.00  0.00    -0.242 C  
HETATM   19  C   UNL     1      -8.816  10.776  65.472  1.00  0.00    -0.203 C  
BRANCH  14  20
HETATM   20  C   UNL     1      -9.818   7.562  69.242  1.00  0.00    -0.170 C  
HETATM   21  C   UNL     1     -10.288   5.571  70.596  1.00  0.00    -0.332 C  
HETATM   22  C   UNL     1      -9.349   6.675  70.138  1.00  0.00    -0.159 C  
HETATM   23  C   UNL     1      -9.698   4.190  70.333  1.00  0.00    -0.201 C  
HETATM   24  O   UNL     1      -9.628   3.921  68.932  1.00  0.00    -0.171 OA 
HETATM   25  C   UNL     1      -8.317   4.067  70.965  1.00  0.00    -0.090 C  
HETATM   26  H   UNL     1      -9.260   3.060  68.768  1.00  0.00     0.000 HD 
HETATM   27  C   UNL     1      -7.375   5.196  70.519  1.00  0.00    -0.066 C  
HETATM   28  C   UNL     1      -8.009   6.577  70.726  1.00  0.00    -0.115 C  
HETATM   29  O   UNL     1      -6.155   5.073  71.243  1.00  0.00    -0.020 OA 
HETATM   30  C   UNL     1      -7.415   7.555  71.419  1.00  0.00    -0.079 C  
HETATM   31  H   UNL     1      -5.573   5.772  70.967  1.00  0.00     0.000 HD 
ENDBRANCH  14  20
ENDBRANCH   5   6
ENDBRANCH   4   5
TORSDOF 3
ENDMDL
MODEL       43
REMARK 921   NORMALIZED FREE ENERGY PREDICTED BY IDOCK:   -5.76 KCAL/MOL
REMARK 922        TOTAL FREE ENERGY PREDICTED BY IDOCK:   -7.88 KCAL/MOL
REMARK 923 INTER-LIGAND FREE ENERGY PREDICTED BY IDOCK:   -7.04 KCAL/MOL
REMARK 924 INTRA-LIGAND FREE ENERGY PREDICTED BY IDOCK:   -0.84 KCAL/MOL
REMARK 927      BINDING AFFINITY PREDICTED BY RF-SCORE:    0.00 PKD
ROOT
HETATM    1  C   UNL     1     -14.326  15.080  71.803  1.00  0.00    -0.674 C  
HETATM    2  C   UNL     1     -13.088  14.184  71.793  1.00  0.00    -0.434 C  
HETATM    3  C   UNL     1     -13.478  12.751  72.179  1.00  0.00    -0.591 C  
HETATM    4  C   UNL     1     -12.404  14.129  70.420  1.00  0.00    -0.428 C  
ENDROOT
BRANCH   4   5
HETATM    5  C   UNL     1     -11.838  15.447  69.889  1.00  0.00    -0.373 C  
BRANCH   5   6
HETATM    6  C   UNL     1     -10.634  15.115  68.981  1.00  0.00    -0.245 C  
HETATM    7  C   UNL     1     -10.818  13.913  68.026  1.00  0.00    -0.259 C  
HETATM    8  C   UNL     1     -12.084  14.159  67.186  1.00  0.00    -0.432 C  
HETATM    9  C   UNL     1      -9.419  13.576  67.216  1.00  0.00    -0.230 C  
HETATM   10  C   UNL     1      -8.393  13.073  68.233  1.00  0.00    -0.158 C  
HETATM   11  C   UNL     1      -8.662  11.588  68.350  1.00  0.00    -0.160 C  
HETATM   12  C   UNL     1      -9.716  11.228  67.261  1.00  0.00    -0.192 C  
HETATM   13  C   UNL     1      -9.571   9.765  66.876  1.00  0.00    -0.228 C  
HETATM   14  C   UNL     1      -9.210   8.813  67.768  1.00  0.00    -0.146 C  
HETATM   15  C   UNL     1      -9.902   9.512  65.441  1.00  0.00    -0.248 C  
HETATM   16  C   UNL     1     -10.525  12.854  65.101  1.00  0.00    -0.326 C  
HETATM   17  C   UNL     1      -9.102  10.477  64.531  1.00  0.00    -0.251 C  
HETATM   18  C   UNL     1      -9.531  12.364  66.182  1.00  0.00    -0.201 C  
HETATM   19  C   UNL     1      -8.435  11.713  65.274  1.00  0.00     0.534 C  
BRANCH  14  20
HETATM   20  C   UNL     1      -9.702   7.463  67.700  1.00  0.00    -0.178 C  
HETATM   21  C   UNL     1      -9.773   5.019  67.504  1.00  0.00    -0.187 C  
HETATM   22  C   UNL     1      -9.173   6.365  67.131  1.00  0.00    -0.128 C  
HETATM   23  C   UNL     1     -10.266   4.265  66.274  1.00  0.00    -0.101 C  
HETATM   24  O   UNL     1     -11.400   4.915  65.696  1.00  0.00    -0.897 OA 
HETATM   25  C   UNL     1      -9.151   4.131  65.244  1.00  0.00    -0.140 C  
HETATM   26  H   UNL     1     -11.708   4.446  64.929  1.00  0.00     0.000 HD 
HETATM   27  C   UNL     1      -8.532   5.490  64.883  1.00  0.00    -0.139 C  
HETATM   28  C   UNL     1      -8.101   6.266  66.134  1.00  0.00    -0.116 C  
HETATM   29  O   UNL     1      -7.428   5.261  64.012  1.00  0.00    -0.054 OA 
HETATM   30  C   UNL     1      -6.864   6.743  66.307  1.00  0.00    -0.060 C  
HETATM   31  H   UNL     1      -7.045   6.102  63.790  1.00  0.00     0.000 HD 
ENDBRANCH  14  20
ENDBRANCH   5   6
ENDBRANCH   4   5
TORSDOF 3
ENDMDL
MODEL       44
REMARK 921   NORMALIZED FREE ENERGY PREDICTED BY IDOCK:   -5.74 KCAL/MOL
REMARK 922        TOTAL FREE ENERGY PREDICTED BY IDOCK:   -7.86 KCAL/MOL
REMARK 923 INTER-LIGAND FREE ENERGY PREDICTED BY IDOCK:   -6.71 KCAL/MOL
REMARK 924 INTRA-LIGAND FREE ENERGY PREDICTED BY IDOCK:   -1.15 KCAL/MOL
REMARK 927      BINDING AFFINITY PREDICTED BY RF-SCORE:    0.00 PKD
ROOT
HETATM    1  C   UNL     1     -10.882  16.876  68.907  1.00  0.00    -0.274 C  
HETATM    2  C   UNL     1     -10.864  15.400  69.304  1.00  0.00    -0.253 C  
HETATM    3  C   UNL     1     -10.995  15.268  70.827  1.00  0.00    -0.312 C  
HETATM    4  C   UNL     1     -12.007  14.599  68.664  1.00  0.00    -0.305 C  
ENDROOT
BRANCH   4   5
HETATM    5  C   UNL     1     -12.004  14.510  67.137  1.00  0.00    -0.373 C  
BRANCH   5   6
HETATM    6  C   UNL     1     -10.621  13.985  66.695  1.00  0.00    -0.274 C  
HETATM    7  C   UNL     1     -10.514  12.459  66.476  1.00  0.00    -0.254 C  
HETATM    8  C   UNL     1     -11.604  12.043  65.470  1.00  0.00    -0.352 C  
HETATM    9  C   UNL     1      -8.960  12.011  66.144  1.00  0.00    -0.079 C  
HETATM   10  C   UNL     1      -8.121  12.253  67.399  1.00  0.00    -0.175 C  
HETATM   11  C   UNL     1      -8.288  10.995  68.224  1.00  0.00    -0.133 C  
HETATM   12  C   UNL     1      -9.072   9.975  67.346  1.00  0.00    -0.146 C  
HETATM   13  C   UNL     1      -8.737   8.560  67.787  1.00  0.00    -0.137 C  
HETATM   14  C   UNL     1      -8.486   8.244  69.079  1.00  0.00    -0.131 C  
HETATM   15  C   UNL     1      -8.754   7.584  66.654  1.00  0.00    -0.146 C  
HETATM   16  C   UNL     1      -9.562  10.170  64.573  1.00  0.00    -0.376 C  
HETATM   17  C   UNL     1      -7.869   8.100  65.493  1.00  0.00    -0.104 C  
HETATM   18  C   UNL     1      -8.767  10.449  65.871  1.00  0.00    -0.170 C  
HETATM   19  C   UNL     1      -7.464   9.634  65.578  1.00  0.00    -0.106 C  
BRANCH  14  20
HETATM   20  C   UNL     1      -8.845   6.972  69.647  1.00  0.00    -0.141 C  
HETATM   21  C   UNL     1     -10.169   5.126  70.572  1.00  0.00    -0.330 C  
HETATM   22  C   UNL     1      -9.903   6.612  70.394  1.00  0.00    -0.189 C  
HETATM   23  C   UNL     1     -10.193   4.735  72.046  1.00  0.00    -0.195 C  
HETATM   24  O   UNL     1      -8.892   4.848  72.627  1.00  0.00    -0.121 OA 
HETATM   25  C   UNL     1     -11.192   5.592  72.813  1.00  0.00    -0.347 C  
HETATM   26  H   UNL     1      -8.907   4.604  73.545  1.00  0.00     0.000 HD 
HETATM   27  C   UNL     1     -10.936   7.094  72.615  1.00  0.00    -0.288 C  
HETATM   28  C   UNL     1     -10.847   7.462  71.129  1.00  0.00    -0.258 C  
HETATM   29  O   UNL     1     -11.978   7.815  73.264  1.00  0.00    -0.602 OA 
HETATM   30  C   UNL     1     -11.597   8.417  70.568  1.00  0.00    -0.136 C  
HETATM   31  H   UNL     1     -11.820   8.744  73.141  1.00  0.00     0.000 HD 
ENDBRANCH  14  20
ENDBRANCH   5   6
ENDBRANCH   4   5
TORSDOF 3
ENDMDL
MODEL       45
REMARK 921   NORMALIZED FREE ENERGY PREDICTED BY IDOCK:   -5.73 KCAL/MOL
REMARK 922        TOTAL FREE ENERGY PREDICTED BY IDOCK:   -7.84 KCAL/MOL
REMARK 923 INTER-LIGAND FREE ENERGY PREDICTED BY IDOCK:   -6.80 KCAL/MOL
REMARK 924 INTRA-LIGAND FREE ENERGY PREDICTED BY IDOCK:   -1.04 KCAL/MOL
REMARK 927      BINDING AFFINITY PREDICTED BY RF-SCORE:    0.00 PKD
ROOT
HETATM    1  C   UNL     1     -14.113   8.788  71.674  1.00  0.00    -0.437 C  
HETATM    2  C   UNL     1     -12.920   9.663  71.295  1.00  0.00    -0.446 C  
HETATM    3  C   UNL     1     -13.142  11.094  71.801  1.00  0.00    -0.536 C  
HETATM    4  C   UNL     1     -11.598   9.156  71.889  1.00  0.00    -0.430 C  
ENDROOT
BRANCH   4   5
HETATM    5  C   UNL     1     -11.129   7.775  71.427  1.00  0.00    -0.268 C  
BRANCH   5   6
HETATM    6  C   UNL     1     -10.879   7.845  69.905  1.00  0.00    -0.221 C  
HETATM    7  C   UNL     1      -9.598   8.588  69.462  1.00  0.00    -0.170 C  
HETATM    8  C   UNL     1      -8.400   7.947  70.184  1.00  0.00    -0.127 C  
HETATM    9  C   UNL     1      -9.520   8.714  67.817  1.00  0.00    -0.165 C  
HETATM   10  C   UNL     1     -10.649   9.638  67.360  1.00  0.00    -0.333 C  
HETATM   11  C   UNL     1     -10.074  11.034  67.476  1.00  0.00    -0.208 C  
HETATM   12  C   UNL     1      -8.564  10.878  67.821  1.00  0.00    -0.128 C  
HETATM   13  C   UNL     1      -7.802  12.102  67.338  1.00  0.00    -0.168 C  
HETATM   14  C   UNL     1      -8.343  13.342  67.344  1.00  0.00    -0.193 C  
HETATM   15  C   UNL     1      -6.409  11.777  66.902  1.00  0.00    -0.131 C  
HETATM   16  C   UNL     1      -7.039   8.509  67.671  1.00  0.00    -0.080 C  
HETATM   17  C   UNL     1      -6.428  10.612  65.882  1.00  0.00    -0.121 C  
HETATM   18  C   UNL     1      -8.207   9.442  67.273  1.00  0.00    -0.117 C  
HETATM   19  C   UNL     1      -7.790   9.798  65.807  1.00  0.00    -0.110 C  
BRANCH  14  20
HETATM   20  C   UNL     1      -7.561  14.526  67.579  1.00  0.00    -0.211 C  
HETATM   21  C   UNL     1      -6.695  16.578  68.609  1.00  0.00    -0.152 C  
HETATM   22  C   UNL     1      -7.846  15.642  68.274  1.00  0.00    -0.128 C  
HETATM   23  C   UNL     1      -6.944  17.983  68.072  1.00  0.00    -0.211 C  
HETATM   24  O   UNL     1      -6.901  18.002  66.644  1.00  0.00    -0.179 OA 
HETATM   25  C   UNL     1      -8.281  18.519  68.569  1.00  0.00    -0.360 C  
HETATM   26  H   UNL     1      -7.056  18.878  66.310  1.00  0.00     0.000 HD 
HETATM   27  C   UNL     1      -9.440  17.562  68.250  1.00  0.00    -0.296 C  
HETATM   28  C   UNL     1      -9.148  16.136  68.735  1.00  0.00    -0.229 C  
HETATM   29  O   UNL     1     -10.625  18.078  68.849  1.00  0.00    -0.382 OA 
HETATM   30  C   UNL     1      -9.973  15.455  69.537  1.00  0.00    -0.266 C  
HETATM   31  H   UNL     1     -11.341  17.486  68.652  1.00  0.00     0.000 HD 
ENDBRANCH  14  20
ENDBRANCH   5   6
ENDBRANCH   4   5
TORSDOF 3
ENDMDL
MODEL       46
REMARK 921   NORMALIZED FREE ENERGY PREDICTED BY IDOCK:   -5.70 KCAL/MOL
REMARK 922        TOTAL FREE ENERGY PREDICTED BY IDOCK:   -7.81 KCAL/MOL
REMARK 923 INTER-LIGAND FREE ENERGY PREDICTED BY IDOCK:   -6.94 KCAL/MOL
REMARK 924 INTRA-LIGAND FREE ENERGY PREDICTED BY IDOCK:   -0.86 KCAL/MOL
REMARK 927      BINDING AFFINITY PREDICTED BY RF-SCORE:    0.00 PKD
ROOT
HETATM    1  C   UNL     1      -8.523  18.338  68.449  1.00  0.00    -0.319 C  
HETATM    2  C   UNL     1      -9.882  18.102  67.791  1.00  0.00    -0.314 C  
HETATM    3  C   UNL     1     -10.489  19.441  67.355  1.00  0.00    -0.581 C  
HETATM    4  C   UNL     1      -9.795  17.200  66.552  1.00  0.00    -0.305 C  
ENDROOT
BRANCH   4   5
HETATM    5  C   UNL     1      -9.310  15.768  66.784  1.00  0.00    -0.264 C  
BRANCH   5   6
HETATM    6  C   UNL     1     -10.553  14.870  66.963  1.00  0.00    -0.289 C  
HETATM    7  C   UNL     1     -10.555  13.957  68.211  1.00  0.00    -0.263 C  
HETATM    8  C   UNL     1     -10.337  14.842  69.452  1.00  0.00    -0.217 C  
HETATM    9  C   UNL     1     -11.865  12.952  68.213  1.00  0.00    -0.372 C  
HETATM   10  C   UNL     1     -11.709  11.971  67.049  1.00  0.00    -0.341 C  
HETATM   11  C   UNL     1     -10.866  10.844  67.606  1.00  0.00    -0.317 C  
HETATM   12  C   UNL     1     -10.706  11.105  69.133  1.00  0.00    -0.262 C  
HETATM   13  C   UNL     1     -10.463   9.788  69.853  1.00  0.00    -0.298 C  
HETATM   14  C   UNL     1      -9.765   8.774  69.293  1.00  0.00    -0.172 C  
HETATM   15  C   UNL     1     -11.047   9.769  71.229  1.00  0.00    -0.375 C  
HETATM   16  C   UNL     1     -12.173  12.949  70.687  1.00  0.00    -0.386 C  
HETATM   17  C   UNL     1     -12.537  10.189  71.182  1.00  0.00    -0.486 C  
HETATM   18  C   UNL     1     -11.960  11.995  69.487  1.00  0.00    -0.346 C  
HETATM   19  C   UNL     1     -13.005  10.882  69.831  1.00  0.00     0.161 C  
BRANCH  14  20
HETATM   20  C   UNL     1      -8.943   7.881  70.066  1.00  0.00    -0.145 C  
HETATM   21  C   UNL     1      -7.399   6.073  70.669  1.00  0.00    -0.085 C  
HETATM   22  C   UNL     1      -8.517   6.633  69.804  1.00  0.00    -0.132 C  
HETATM   23  C   UNL     1      -7.816   4.773  71.348  1.00  0.00    -0.096 C  
HETATM   24  O   UNL     1      -8.825   5.010  72.332  1.00  0.00    -0.126 OA 
HETATM   25  C   UNL     1      -8.306   3.762  70.319  1.00  0.00    -0.081 C  
HETATM   26  H   UNL     1      -9.085   4.200  72.755  1.00  0.00     0.000 HD 
HETATM   27  C   UNL     1      -9.420   4.337  69.431  1.00  0.00    -0.186 C  
HETATM   28  C   UNL     1      -9.013   5.678  68.807  1.00  0.00    -0.117 C  
HETATM   29  O   UNL     1      -9.734   3.375  68.428  1.00  0.00    -0.125 OA 
HETATM   30  C   UNL     1      -9.057   5.914  67.492  1.00  0.00    -0.106 C  
HETATM   31  H   UNL     1     -10.423   3.731  67.879  1.00  0.00     0.000 HD 
ENDBRANCH  14  20
ENDBRANCH   5   6
ENDBRANCH   4   5
TORSDOF 3
ENDMDL
MODEL       47
REMARK 921   NORMALIZED FREE ENERGY PREDICTED BY IDOCK:   -5.68 KCAL/MOL
REMARK 922        TOTAL FREE ENERGY PREDICTED BY IDOCK:   -7.78 KCAL/MOL
REMARK 923 INTER-LIGAND FREE ENERGY PREDICTED BY IDOCK:   -6.68 KCAL/MOL
REMARK 924 INTRA-LIGAND FREE ENERGY PREDICTED BY IDOCK:   -1.10 KCAL/MOL
REMARK 927      BINDING AFFINITY PREDICTED BY RF-SCORE:    0.00 PKD
ROOT
HETATM    1  C   UNL     1      -8.041   4.714  62.882  1.00  0.00    -0.085 C  
HETATM    2  C   UNL     1      -7.056   5.370  63.849  1.00  0.00    -0.049 C  
HETATM    3  C   UNL     1      -6.425   6.604  63.192  1.00  0.00    -0.042 C  
HETATM    4  C   UNL     1      -7.719   5.823  65.157  1.00  0.00    -0.095 C  
ENDROOT
BRANCH   4   5
HETATM    5  C   UNL     1      -8.325   4.723  66.031  1.00  0.00    -0.112 C  
BRANCH   5   6
HETATM    6  C   UNL     1      -8.282   5.204  67.497  1.00  0.00    -0.103 C  
HETATM    7  C   UNL     1      -9.377   6.214  67.911  1.00  0.00    -0.113 C  
HETATM    8  C   UNL     1     -10.747   5.596  67.578  1.00  0.00    -0.272 C  
HETATM    9  C   UNL     1      -9.138   6.754  69.453  1.00  0.00    -0.144 C  
HETATM   10  C   UNL     1      -7.856   7.587  69.468  1.00  0.00    -0.120 C  
HETATM   11  C   UNL     1      -8.297   8.979  69.068  1.00  0.00    -0.124 C  
HETATM   12  C   UNL     1      -9.853   8.965  69.009  1.00  0.00    -0.182 C  
HETATM   13  C   UNL     1     -10.385  10.369  69.254  1.00  0.00    -0.250 C  
HETATM   14  C   UNL     1      -9.730  11.475  68.832  1.00  0.00    -0.069 C  
HETATM   15  C   UNL     1     -11.699  10.370  69.966  1.00  0.00    -0.366 C  
HETATM   16  C   UNL     1     -11.558   6.957  70.022  1.00  0.00    -0.299 C  
HETATM   17  C   UNL     1     -11.611   9.505  71.248  1.00  0.00    -0.445 C  
HETATM   18  C   UNL     1     -10.247   7.779  69.972  1.00  0.00    -0.210 C  
HETATM   19  C   UNL     1     -10.349   8.544  71.333  1.00  0.00    -0.307 C  
BRANCH  14  20
HETATM   20  C   UNL     1     -10.418  12.665  68.407  1.00  0.00    -0.248 C  
HETATM   21  C   UNL     1     -11.880  14.189  67.158  1.00  0.00    -0.454 C  
HETATM   22  C   UNL     1     -10.931  13.002  67.210  1.00  0.00    -0.288 C  
HETATM   23  C   UNL     1     -11.387  15.257  66.188  1.00  0.00    -0.160 C  
HETATM   24  O   UNL     1     -10.198  15.882  66.676  1.00  0.00    -0.271 OA 
HETATM   25  C   UNL     1     -11.141  14.657  64.809  1.00  0.00    -0.394 C  
HETATM   26  H   UNL     1      -9.891  16.548  66.072  1.00  0.00     0.000 HD 
HETATM   27  C   UNL     1     -10.200  13.445  64.866  1.00  0.00    -0.319 C  
HETATM   28  C   UNL     1     -10.671  12.409  65.894  1.00  0.00    -0.299 C  
HETATM   29  O   UNL     1     -10.120  12.878  63.561  1.00  0.00    -0.661 OA 
HETATM   30  C   UNL     1     -10.874  11.122  65.592  1.00  0.00    -0.206 C  
HETATM   31  H   UNL     1      -9.538  12.128  63.597  1.00  0.00     0.000 HD 
ENDBRANCH  14  20
ENDBRANCH   5   6
ENDBRANCH   4   5
TORSDOF 3
ENDMDL
MODEL       48
REMARK 921   NORMALIZED FREE ENERGY PREDICTED BY IDOCK:   -5.61 KCAL/MOL
REMARK 922        TOTAL FREE ENERGY PREDICTED BY IDOCK:   -7.70 KCAL/MOL
REMARK 923 INTER-LIGAND FREE ENERGY PREDICTED BY IDOCK:   -6.64 KCAL/MOL
REMARK 924 INTRA-LIGAND FREE ENERGY PREDICTED BY IDOCK:   -1.07 KCAL/MOL
REMARK 927      BINDING AFFINITY PREDICTED BY RF-SCORE:    0.00 PKD
ROOT
HETATM    1  C   UNL     1     -13.227  15.082  70.858  1.00  0.00    -0.453 C  
HETATM    2  C   UNL     1     -12.794  14.300  72.097  1.00  0.00    -0.424 C  
HETATM    3  C   UNL     1     -12.974  15.168  73.349  1.00  0.00    -0.642 C  
HETATM    4  C   UNL     1     -13.603  13.012  72.300  1.00  0.00    -0.643 C  
ENDROOT
BRANCH   4   5
HETATM    5  C   UNL     1     -13.478  11.951  71.205  1.00  0.00     0.347 C  
BRANCH   5   6
HETATM    6  C   UNL     1     -12.292  11.032  71.568  1.00  0.00    -0.299 C  
HETATM    7  C   UNL     1     -11.432  10.536  70.383  1.00  0.00    -0.427 C  
HETATM    8  C   UNL     1     -10.949  11.766  69.595  1.00  0.00    -0.056 C  
HETATM    9  C   UNL     1     -10.289   9.455  70.887  1.00  0.00    -0.380 C  
HETATM   10  C   UNL     1     -11.009   8.193  71.362  1.00  0.00    -0.282 C  
HETATM   11  C   UNL     1     -11.210   7.369  70.108  1.00  0.00    -0.239 C  
HETATM   12  C   UNL     1     -10.438   8.087  68.962  1.00  0.00    -0.212 C  
HETATM   13  C   UNL     1     -10.046   7.073  67.899  1.00  0.00    -0.204 C  
HETATM   14  C   UNL     1     -10.823   6.010  67.589  1.00  0.00    -0.386 C  
HETATM   15  C   UNL     1      -8.749   7.409  67.235  1.00  0.00    -0.121 C  
HETATM   16  C   UNL     1      -8.544  10.160  69.250  1.00  0.00    -0.180 C  
HETATM   17  C   UNL     1      -7.651   7.650  68.300  1.00  0.00    -0.114 C  
HETATM   18  C   UNL     1      -9.334   8.917  69.726  1.00  0.00    -0.169 C  
HETATM   19  C   UNL     1      -8.180   7.862  69.783  1.00  0.00    -0.121 C  
BRANCH  14  20
HETATM   20  C   UNL     1     -10.901   5.471  66.257  1.00  0.00    -0.127 C  
HETATM   21  C   UNL     1     -10.895   3.889  64.383  1.00  0.00    -0.149 C  
HETATM   22  C   UNL     1     -10.369   4.354  65.731  1.00  0.00    -0.246 C  
HETATM   23  C   UNL     1      -9.775   3.774  63.354  1.00  0.00    -0.150 C  
HETATM   24  O   UNL     1      -9.259   5.062  63.013  1.00  0.00    -0.340 OA 
HETATM   25  C   UNL     1      -8.659   2.877  63.874  1.00  0.00    -0.086 C  
HETATM   26  H   UNL     1      -8.561   4.990  62.372  1.00  0.00     0.000 HD 
HETATM   27  C   UNL     1      -8.143   3.335  65.247  1.00  0.00    -0.093 C  
HETATM   28  C   UNL     1      -9.287   3.512  66.253  1.00  0.00    -0.177 C  
HETATM   29  O   UNL     1      -7.192   2.380  65.709  1.00  0.00    -0.062 OA 
HETATM   30  C   UNL     1      -9.308   2.910  67.447  1.00  0.00    -0.201 C  
HETATM   31  H   UNL     1      -6.873   2.664  66.558  1.00  0.00     0.000 HD 
ENDBRANCH  14  20
ENDBRANCH   5   6
ENDBRANCH   4   5
TORSDOF 3
ENDMDL
MODEL       49
REMARK 921   NORMALIZED FREE ENERGY PREDICTED BY IDOCK:   -5.59 KCAL/MOL
REMARK 922        TOTAL FREE ENERGY PREDICTED BY IDOCK:   -7.68 KCAL/MOL
REMARK 923 INTER-LIGAND FREE ENERGY PREDICTED BY IDOCK:   -6.78 KCAL/MOL
REMARK 924 INTRA-LIGAND FREE ENERGY PREDICTED BY IDOCK:   -0.90 KCAL/MOL
REMARK 927      BINDING AFFINITY PREDICTED BY RF-SCORE:    0.00 PKD
ROOT
HETATM    1  C   UNL     1     -10.019   5.588  73.046  1.00  0.00    -0.196 C  
HETATM    2  C   UNL     1      -9.393   4.942  71.811  1.00  0.00    -0.185 C  
HETATM    3  C   UNL     1      -9.878   3.492  71.680  1.00  0.00    -0.227 C  
HETATM    4  C   UNL     1      -9.749   5.675  70.511  1.00  0.00    -0.233 C  
ENDROOT
BRANCH   4   5
HETATM    5  C   UNL     1      -9.258   7.119  70.387  1.00  0.00    -0.156 C  
BRANCH   5   6
HETATM    6  C   UNL     1     -10.390   7.951  69.746  1.00  0.00    -0.219 C  
HETATM    7  C   UNL     1      -9.945   9.037  68.741  1.00  0.00    -0.194 C  
HETATM    8  C   UNL     1      -9.082   8.363  67.659  1.00  0.00    -0.144 C  
HETATM    9  C   UNL     1     -11.229   9.944  68.235  1.00  0.00    -0.137 C  
HETATM   10  C   UNL     1     -11.739  10.749  69.432  1.00  0.00    -0.378 C  
HETATM   11  C   UNL     1     -10.885  11.998  69.448  1.00  0.00    -0.059 C  
HETATM   12  C   UNL     1     -10.024  11.979  68.151  1.00  0.00    -0.203 C  
HETATM   13  C   UNL     1      -9.651  13.401  67.764  1.00  0.00    -0.213 C  
HETATM   14  C   UNL     1      -9.414  14.364  68.685  1.00  0.00    -0.193 C  
HETATM   15  C   UNL     1      -9.550  13.587  66.285  1.00  0.00    -0.245 C  
HETATM   16  C   UNL     1     -10.387  10.296  65.914  1.00  0.00    -0.241 C  
HETATM   17  C   UNL     1     -10.835  13.069  65.593  1.00  0.00    -0.293 C  
HETATM   18  C   UNL     1     -10.860  11.072  67.167  1.00  0.00    -0.336 C  
HETATM   19  C   UNL     1     -11.770  12.154  66.495  1.00  0.00    -0.392 C  
BRANCH  14  20
HETATM   20  C   UNL     1      -8.453  15.414  68.476  1.00  0.00    -0.163 C  
HETATM   21  C   UNL     1      -7.437  17.640  68.309  1.00  0.00    -0.251 C  
HETATM   22  C   UNL     1      -8.623  16.704  68.139  1.00  0.00    -0.200 C  
HETATM   23  C   UNL     1      -7.073  18.326  66.997  1.00  0.00    -0.196 C  
HETATM   24  O   UNL     1      -6.544  17.388  66.057  1.00  0.00    -0.225 OA 
HETATM   25  C   UNL     1      -8.286  19.038  66.408  1.00  0.00    -0.314 C  
HETATM   26  H   UNL     1      -6.318  17.816  65.240  1.00  0.00     0.000 HD 
HETATM   27  C   UNL     1      -9.490  18.096  66.257  1.00  0.00    -0.222 C  
HETATM   28  C   UNL     1      -9.803  17.362  67.567  1.00  0.00    -0.277 C  
HETATM   29  O   UNL     1     -10.606  18.864  65.817  1.00  0.00    -0.532 OA 
HETATM   30  C   UNL     1     -11.011  17.378  68.142  1.00  0.00    -0.160 C  
HETATM   31  H   UNL     1     -11.351  18.281  65.724  1.00  0.00     0.000 HD 
ENDBRANCH  14  20
ENDBRANCH   5   6
ENDBRANCH   4   5
TORSDOF 3
ENDMDL
MODEL       50
REMARK 921   NORMALIZED FREE ENERGY PREDICTED BY IDOCK:   -5.52 KCAL/MOL
REMARK 922        TOTAL FREE ENERGY PREDICTED BY IDOCK:   -7.59 KCAL/MOL
REMARK 923 INTER-LIGAND FREE ENERGY PREDICTED BY IDOCK:   -6.34 KCAL/MOL
REMARK 924 INTRA-LIGAND FREE ENERGY PREDICTED BY IDOCK:   -1.25 KCAL/MOL
REMARK 927      BINDING AFFINITY PREDICTED BY RF-SCORE:    0.00 PKD
ROOT
HETATM    1  C   UNL     1     -12.127  13.052  63.704  1.00  0.00    -0.604 C  
HETATM    2  C   UNL     1     -11.534  14.057  64.690  1.00  0.00    -0.389 C  
HETATM    3  C   UNL     1     -11.815  15.486  64.210  1.00  0.00    -0.179 C  
HETATM    4  C   UNL     1     -12.114  13.915  66.104  1.00  0.00    -0.478 C  
ENDROOT
BRANCH   4   5
HETATM    5  C   UNL     1     -11.851  12.588  66.818  1.00  0.00    -0.416 C  
BRANCH   5   6
HETATM    6  C   UNL     1     -10.324  12.365  66.857  1.00  0.00    -0.240 C  
HETATM    7  C   UNL     1      -9.856  10.895  66.958  1.00  0.00    -0.214 C  
HETATM    8  C   UNL     1     -10.493  10.110  65.797  1.00  0.00    -0.128 C  
HETATM    9  C   UNL     1      -8.217  10.801  67.133  1.00  0.00    -0.123 C  
HETATM   10  C   UNL     1      -7.853  11.389  68.497  1.00  0.00    -0.140 C  
HETATM   11  C   UNL     1      -8.004  10.235  69.466  1.00  0.00    -0.171 C  
HETATM   12  C   UNL     1      -8.273   8.958  68.616  1.00  0.00    -0.116 C  
HETATM   13  C   UNL     1      -7.811   7.729  69.383  1.00  0.00    -0.115 C  
HETATM   14  C   UNL     1      -7.896   7.641  70.730  1.00  0.00    -0.096 C  
HETATM   15  C   UNL     1      -7.297   6.651  68.484  1.00  0.00    -0.087 C  
HETATM   16  C   UNL     1      -7.948   8.695  65.825  1.00  0.00    -0.106 C  
HETATM   17  C   UNL     1      -6.229   7.223  67.520  1.00  0.00    -0.046 C  
HETATM   18  C   UNL     1      -7.646   9.312  67.212  1.00  0.00    -0.091 C  
HETATM   19  C   UNL     1      -6.180   8.808  67.425  1.00  0.00    -0.056 C  
BRANCH  14  20
HETATM   20  C   UNL     1      -8.148   6.398  71.409  1.00  0.00    -0.113 C  
HETATM   21  C   UNL     1      -9.180   4.272  72.067  1.00  0.00    -0.169 C  
HETATM   22  C   UNL     1      -9.290   5.711  71.586  1.00  0.00    -0.164 C  
HETATM   23  C   UNL     1      -9.958   4.055  73.361  1.00  0.00    -0.131 C  
HETATM   24  O   UNL     1      -9.346   4.750  74.449  1.00  0.00    -0.116 OA 
HETATM   25  C   UNL     1     -11.407   4.497  73.198  1.00  0.00    -0.318 C  
HETATM   26  H   UNL     1      -9.830   4.615  75.255  1.00  0.00     0.000 HD 
HETATM   27  C   UNL     1     -11.516   5.943  72.691  1.00  0.00    -0.272 C  
HETATM   28  C   UNL     1     -10.676   6.165  71.427  1.00  0.00    -0.308 C  
HETATM   29  O   UNL     1     -12.890   6.232  72.455  1.00  0.00    -0.546 OA 
HETATM   30  C   UNL     1     -11.180   6.665  70.294  1.00  0.00    -0.408 C  
HETATM   31  H   UNL     1     -12.957   7.126  72.141  1.00  0.00     0.000 HD 
ENDBRANCH  14  20
ENDBRANCH   5   6
ENDBRANCH   4   5
TORSDOF 3
ENDMDL
MODEL       51
REMARK 921   NORMALIZED FREE ENERGY PREDICTED BY IDOCK:   -5.48 KCAL/MOL
REMARK 922        TOTAL FREE ENERGY PREDICTED BY IDOCK:   -7.55 KCAL/MOL
REMARK 923 INTER-LIGAND FREE ENERGY PREDICTED BY IDOCK:   -6.53 KCAL/MOL
REMARK 924 INTRA-LIGAND FREE ENERGY PREDICTED BY IDOCK:   -1.02 KCAL/MOL
REMARK 927      BINDING AFFINITY PREDICTED BY RF-SCORE:    0.00 PKD
ROOT
HETATM    1  C   UNL     1     -10.330  18.254  66.781  1.00  0.00    -0.403 C  
HETATM    2  C   UNL     1      -9.954  16.774  66.836  1.00  0.00    -0.274 C  
HETATM    3  C   UNL     1      -8.706  16.521  65.980  1.00  0.00    -0.255 C  
HETATM    4  C   UNL     1      -9.651  16.290  68.261  1.00  0.00    -0.218 C  
ENDROOT
BRANCH   4   5
HETATM    5  C   UNL     1     -10.806  16.355  69.262  1.00  0.00    -0.327 C  
BRANCH   5   6
HETATM    6  C   UNL     1     -11.722  15.138  69.009  1.00  0.00    -0.358 C  
HETATM    7  C   UNL     1     -11.597  13.975  70.018  1.00  0.00    -0.302 C  
HETATM    8  C   UNL     1     -11.820  14.542  71.432  1.00  0.00    -0.316 C  
HETATM    9  C   UNL     1     -12.520  12.684  69.560  1.00  0.00     0.180 C  
HETATM   10  C   UNL     1     -11.924  12.111  68.273  1.00  0.00    -0.248 C  
HETATM   11  C   UNL     1     -10.849  11.153  68.741  1.00  0.00    -0.256 C  
HETATM   12  C   UNL     1     -10.970  11.052  70.290  1.00  0.00     0.043 C  
HETATM   13  C   UNL     1     -10.424   9.713  70.759  1.00  0.00    -0.375 C  
HETATM   14  C   UNL     1      -9.381   9.103  70.149  1.00  0.00    -0.235 C  
HETATM   15  C   UNL     1     -11.139   9.189  71.962  1.00  0.00    -0.285 C  
HETATM   16  C   UNL     1     -13.118  11.972  71.874  1.00  0.00    -0.475 C  
HETATM   17  C   UNL     1     -12.668   9.185  71.713  1.00  0.00    -0.446 C  
HETATM   18  C   UNL     1     -12.472  11.448  70.568  1.00  0.00    -0.381 C  
HETATM   19  C   UNL     1     -13.155  10.043  70.468  1.00  0.00    -0.119 C  
BRANCH  14  20
HETATM   20  C   UNL     1      -8.426   8.302  70.868  1.00  0.00    -0.144 C  
HETATM   21  C   UNL     1      -7.146   6.371  71.673  1.00  0.00    -0.081 C  
HETATM   22  C   UNL     1      -8.445   6.997  71.194  1.00  0.00    -0.119 C  
HETATM   23  C   UNL     1      -7.302   5.747  73.056  1.00  0.00    -0.095 C  
HETATM   24  O   UNL     1      -7.501   6.752  74.052  1.00  0.00    -0.092 OA 
HETATM   25  C   UNL     1      -8.457   4.753  73.069  1.00  0.00    -0.103 C  
HETATM   26  H   UNL     1      -7.599   6.364  74.913  1.00  0.00     0.000 HD 
HETATM   27  C   UNL     1      -9.765   5.381  72.563  1.00  0.00    -0.152 C  
HETATM   28  C   UNL     1      -9.577   6.063  71.203  1.00  0.00    -0.195 C  
HETATM   29  O   UNL     1     -10.755   4.360  72.496  1.00  0.00    -0.173 OA 
HETATM   30  C   UNL     1     -10.333   5.784  70.136  1.00  0.00    -0.324 C  
HETATM   31  H   UNL     1     -11.564   4.748  72.183  1.00  0.00     0.000 HD 
ENDBRANCH  14  20
ENDBRANCH   5   6
ENDBRANCH   4   5
TORSDOF 3
ENDMDL
MODEL       52
REMARK 921   NORMALIZED FREE ENERGY PREDICTED BY IDOCK:   -5.39 KCAL/MOL
REMARK 922        TOTAL FREE ENERGY PREDICTED BY IDOCK:   -7.44 KCAL/MOL
REMARK 923 INTER-LIGAND FREE ENERGY PREDICTED BY IDOCK:   -6.04 KCAL/MOL
REMARK 924 INTRA-LIGAND FREE ENERGY PREDICTED BY IDOCK:   -1.40 KCAL/MOL
REMARK 927      BINDING AFFINITY PREDICTED BY RF-SCORE:    0.00 PKD
ROOT
HETATM    1  C   UNL     1     -12.104   5.610  72.636  1.00  0.00    -0.041 C  
HETATM    2  C   UNL     1     -11.606   6.868  71.927  1.00  0.00    -0.321 C  
HETATM    3  C   UNL     1     -12.792   7.626  71.315  1.00  0.00    -0.297 C  
HETATM    4  C   UNL     1     -10.871   7.831  72.870  1.00  0.00    -0.453 C  
ENDROOT
BRANCH   4   5
HETATM    5  C   UNL     1      -9.585   7.306  73.511  1.00  0.00    -0.293 C  
BRANCH   5   6
HETATM    6  C   UNL     1      -8.793   6.542  72.429  1.00  0.00    -0.133 C  
HETATM    7  C   UNL     1      -8.205   7.402  71.286  1.00  0.00    -0.105 C  
HETATM    8  C   UNL     1      -7.340   8.509  71.917  1.00  0.00    -0.119 C  
HETATM    9  C   UNL     1      -7.506   6.456  70.127  1.00  0.00    -0.094 C  
HETATM   10  C   UNL     1      -8.613   5.655  69.441  1.00  0.00    -0.106 C  
HETATM   11  C   UNL     1      -9.134   6.570  68.354  1.00  0.00    -0.123 C  
HETATM   12  C   UNL     1      -8.195   7.811  68.314  1.00  0.00    -0.124 C  
HETATM   13  C   UNL     1      -8.223   8.427  66.924  1.00  0.00    -0.103 C  
HETATM   14  C   UNL     1      -9.338   8.434  66.157  1.00  0.00    -0.267 C  
HETATM   15  C   UNL     1      -6.914   9.037  66.538  1.00  0.00    -0.080 C  
HETATM   16  C   UNL     1      -5.678   8.058  69.568  1.00  0.00    -0.026 C  
HETATM   17  C   UNL     1      -5.769   8.015  66.742  1.00  0.00    -0.036 C  
HETATM   18  C   UNL     1      -6.844   7.269  68.923  1.00  0.00    -0.072 C  
HETATM   19  C   UNL     1      -6.140   6.748  67.626  1.00  0.00    -0.028 C  
BRANCH  14  20
HETATM   20  C   UNL     1      -9.646   9.506  65.249  1.00  0.00    -0.314 C  
HETATM   21  C   UNL     1      -9.934  11.757  64.318  1.00  0.00    -0.287 C  
HETATM   22  C   UNL     1      -9.986  10.786  65.486  1.00  0.00    -0.321 C  
HETATM   23  C   UNL     1     -11.283  12.431  64.090  1.00  0.00    -0.376 C  
HETATM   24  O   UNL     1     -12.251  11.492  63.617  1.00  0.00    -0.512 OA 
HETATM   25  C   UNL     1     -11.773  13.098  65.369  1.00  0.00    -0.383 C  
HETATM   26  H   UNL     1     -13.092  11.911  63.475  1.00  0.00     0.000 HD 
HETATM   27  C   UNL     1     -11.805  12.120  66.554  1.00  0.00    -0.246 C  
HETATM   28  C   UNL     1     -10.462  11.400  66.730  1.00  0.00    -0.284 C  
HETATM   29  O   UNL     1     -12.157  12.849  67.726  1.00  0.00    -0.312 OA 
HETATM   30  C   UNL     1      -9.784  11.392  67.883  1.00  0.00    -0.186 C  
HETATM   31  H   UNL     1     -12.176  12.244  68.459  1.00  0.00     0.000 HD 
ENDBRANCH  14  20
ENDBRANCH   5   6
ENDBRANCH   4   5
TORSDOF 3
ENDMDL
MODEL       53
REMARK 921   NORMALIZED FREE ENERGY PREDICTED BY IDOCK:   -5.39 KCAL/MOL
REMARK 922        TOTAL FREE ENERGY PREDICTED BY IDOCK:   -7.44 KCAL/MOL
REMARK 923 INTER-LIGAND FREE ENERGY PREDICTED BY IDOCK:   -6.04 KCAL/MOL
REMARK 924 INTRA-LIGAND FREE ENERGY PREDICTED BY IDOCK:   -1.40 KCAL/MOL
REMARK 927      BINDING AFFINITY PREDICTED BY RF-SCORE:    0.00 PKD
ROOT
HETATM    1  C   UNL     1     -10.528   6.822  72.045  1.00  0.00    -0.226 C  
HETATM    2  C   UNL     1      -9.880   7.853  71.123  1.00  0.00    -0.190 C  
HETATM    3  C   UNL     1     -10.718   9.138  71.107  1.00  0.00    -0.380 C  
HETATM    4  C   UNL     1      -8.456   8.228  71.557  1.00  0.00    -0.179 C  
ENDROOT
BRANCH   4   5
HETATM    5  C   UNL     1      -7.421   7.102  71.541  1.00  0.00    -0.086 C  
BRANCH   5   6
HETATM    6  C   UNL     1      -7.383   6.514  70.114  1.00  0.00    -0.089 C  
HETATM    7  C   UNL     1      -7.129   7.524  68.971  1.00  0.00    -0.079 C  
HETATM    8  C   UNL     1      -5.827   8.283  69.284  1.00  0.00    -0.034 C  
HETATM    9  C   UNL     1      -7.252   6.796  67.493  1.00  0.00    -0.090 C  
HETATM   10  C   UNL     1      -8.710   6.382  67.291  1.00  0.00    -0.106 C  
HETATM   11  C   UNL     1      -9.384   7.612  66.721  1.00  0.00    -0.218 C  
HETATM   12  C   UNL     1      -8.264   8.654  66.433  1.00  0.00    -0.111 C  
HETATM   13  C   UNL     1      -8.714   9.594  65.326  1.00  0.00    -0.186 C  
HETATM   14  C   UNL     1     -10.004   9.973  65.177  1.00  0.00    -0.350 C  
HETATM   15  C   UNL     1      -7.579  10.060  64.471  1.00  0.00    -0.142 C  
HETATM   16  C   UNL     1      -5.483   8.169  66.394  1.00  0.00    -0.028 C  
HETATM   17  C   UNL     1      -6.760   8.848  63.964  1.00  0.00    -0.087 C  
HETATM   18  C   UNL     1      -6.972   7.766  66.256  1.00  0.00    -0.063 C  
HETATM   19  C   UNL     1      -7.038   7.478  64.719  1.00  0.00    -0.064 C  
BRANCH  14  20
HETATM   20  C   UNL     1     -10.377  11.273  64.687  1.00  0.00    -0.373 C  
HETATM   21  C   UNL     1     -10.458  13.703  64.364  1.00  0.00    -0.322 C  
HETATM   22  C   UNL     1     -10.278  12.486  65.258  1.00  0.00    -0.302 C  
HETATM   23  C   UNL     1     -11.583  14.603  64.865  1.00  0.00    -0.405 C  
HETATM   24  O   UNL     1     -12.853  13.967  64.714  1.00  0.00    -0.679 OA 
HETATM   25  C   UNL     1     -11.353  14.990  66.321  1.00  0.00    -0.273 C  
HETATM   26  H   UNL     1     -13.554  14.527  65.026  1.00  0.00     0.000 HD 
HETATM   27  C   UNL     1     -11.149  13.760  67.219  1.00  0.00    -0.304 C  
HETATM   28  C   UNL     1     -10.062  12.829  66.668  1.00  0.00    -0.248 C  
HETATM   29  O   UNL     1     -10.826  14.212  68.530  1.00  0.00    -0.237 OA 
HETATM   30  C   UNL     1      -9.009  12.431  67.389  1.00  0.00    -0.185 C  
HETATM   31  H   UNL     1     -10.699  13.452  69.086  1.00  0.00     0.000 HD 
ENDBRANCH  14  20
ENDBRANCH   5   6
ENDBRANCH   4   5
TORSDOF 3
ENDMDL
MODEL       54
REMARK 921   NORMALIZED FREE ENERGY PREDICTED BY IDOCK:   -5.30 KCAL/MOL
REMARK 922        TOTAL FREE ENERGY PREDICTED BY IDOCK:   -7.33 KCAL/MOL
REMARK 923 INTER-LIGAND FREE ENERGY PREDICTED BY IDOCK:   -6.58 KCAL/MOL
REMARK 924 INTRA-LIGAND FREE ENERGY PREDICTED BY IDOCK:   -0.76 KCAL/MOL
REMARK 927      BINDING AFFINITY PREDICTED BY RF-SCORE:    0.00 PKD
ROOT
HETATM    1  C   UNL     1      -8.082   3.684  73.478  1.00  0.00    -0.079 C  
HETATM    2  C   UNL     1      -9.433   3.020  73.213  1.00  0.00    -0.123 C  
HETATM    3  C   UNL     1      -9.431   1.594  73.778  1.00  0.00    -0.083 C  
HETATM    4  C   UNL     1     -10.604   3.777  73.856  1.00  0.00    -0.292 C  
ENDROOT
BRANCH   4   5
HETATM    5  C   UNL     1     -10.853   5.199  73.351  1.00  0.00    -0.359 C  
BRANCH   5   6
HETATM    6  C   UNL     1     -10.355   5.279  71.892  1.00  0.00    -0.275 C  
HETATM    7  C   UNL     1      -9.733   6.627  71.461  1.00  0.00    -0.172 C  
HETATM    8  C   UNL     1      -8.598   6.966  72.444  1.00  0.00    -0.128 C  
HETATM    9  C   UNL     1      -9.371   6.629  69.849  1.00  0.00    -0.153 C  
HETATM   10  C   UNL     1     -10.686   6.574  69.070  1.00  0.00    -0.324 C  
HETATM   11  C   UNL     1     -11.126   8.018  68.955  1.00  0.00     0.217 C  
HETATM   12  C   UNL     1      -9.963   8.894  69.509  1.00  0.00    -0.191 C  
HETATM   13  C   UNL     1     -10.018  10.274  68.873  1.00  0.00    -0.209 C  
HETATM   14  C   UNL     1     -11.185  10.877  68.548  1.00  0.00    -0.335 C  
HETATM   15  C   UNL     1      -8.662  10.878  68.690  1.00  0.00    -0.154 C  
HETATM   16  C   UNL     1      -7.328   8.044  70.056  1.00  0.00    -0.062 C  
HETATM   17  C   UNL     1      -7.733   9.886  67.948  1.00  0.00    -0.090 C  
HETATM   18  C   UNL     1      -8.693   7.977  69.328  1.00  0.00    -0.137 C  
HETATM   19  C   UNL     1      -8.255   8.387  67.882  1.00  0.00    -0.127 C  
BRANCH  14  20
HETATM   20  C   UNL     1     -11.365  12.302  68.619  1.00  0.00    -0.339 C  
HETATM   21  C   UNL     1     -11.998  14.600  68.039  1.00  0.00    -0.292 C  
HETATM   22  C   UNL     1     -11.501  13.219  67.644  1.00  0.00    -0.360 C  
HETATM   23  C   UNL     1     -11.013  15.688  67.626  1.00  0.00    -0.315 C  
HETATM   24  O   UNL     1      -9.809  15.607  68.390  1.00  0.00    -0.202 OA 
HETATM   25  C   UNL     1     -10.703  15.595  66.137  1.00  0.00    -0.305 C  
HETATM   26  H   UNL     1      -9.195  16.284  68.133  1.00  0.00     0.000 HD 
HETATM   27  C   UNL     1     -10.221  14.192  65.735  1.00  0.00    -0.332 C  
HETATM   28  C   UNL     1     -11.187  13.102  66.216  1.00  0.00    -0.328 C  
HETATM   29  O   UNL     1     -10.069  14.160  64.319  1.00  0.00    -0.648 OA 
HETATM   30  C   UNL     1     -11.722  12.188  65.398  1.00  0.00    -0.379 C  
HETATM   31  H   UNL     1      -9.772  13.292  64.071  1.00  0.00     0.000 HD 
ENDBRANCH  14  20
ENDBRANCH   5   6
ENDBRANCH   4   5
TORSDOF 3
ENDMDL
MODEL       55
REMARK 921   NORMALIZED FREE ENERGY PREDICTED BY IDOCK:   -5.27 KCAL/MOL
REMARK 922        TOTAL FREE ENERGY PREDICTED BY IDOCK:   -7.30 KCAL/MOL
REMARK 923 INTER-LIGAND FREE ENERGY PREDICTED BY IDOCK:   -6.20 KCAL/MOL
REMARK 924 INTRA-LIGAND FREE ENERGY PREDICTED BY IDOCK:   -1.10 KCAL/MOL
REMARK 927      BINDING AFFINITY PREDICTED BY RF-SCORE:    0.00 PKD
ROOT
HETATM    1  C   UNL     1     -13.003  13.992  65.306  1.00  0.00    -0.315 C  
HETATM    2  C   UNL     1     -11.871  13.027  64.957  1.00  0.00    -0.401 C  
HETATM    3  C   UNL     1     -12.295  12.128  63.788  1.00  0.00    -0.635 C  
HETATM    4  C   UNL     1     -10.579  13.748  64.548  1.00  0.00    -0.405 C  
ENDROOT
BRANCH   4   5
HETATM    5  C   UNL     1      -9.922  14.624  65.616  1.00  0.00    -0.381 C  
BRANCH   5   6
HETATM    6  C   UNL     1     -10.142  13.947  66.986  1.00  0.00    -0.256 C  
HETATM    7  C   UNL     1      -9.361  12.635  67.226  1.00  0.00    -0.195 C  
HETATM    8  C   UNL     1      -7.866  12.918  66.990  1.00  0.00    -0.006 C  
HETATM    9  C   UNL     1      -9.788  11.941  68.662  1.00  0.00    -0.139 C  
HETATM   10  C   UNL     1     -11.242  11.478  68.549  1.00  0.00    -0.315 C  
HETATM   11  C   UNL     1     -11.160  10.101  67.928  1.00  0.00    -0.303 C  
HETATM   12  C   UNL     1      -9.653   9.717  67.864  1.00  0.00    -0.158 C  
HETATM   13  C   UNL     1      -9.511   8.203  67.876  1.00  0.00    -0.162 C  
HETATM   14  C   UNL     1     -10.412   7.386  67.285  1.00  0.00    -0.385 C  
HETATM   15  C   UNL     1      -8.269   7.748  68.573  1.00  0.00    -0.128 C  
HETATM   16  C   UNL     1      -7.526  11.027  69.179  1.00  0.00    -0.121 C  
HETATM   17  C   UNL     1      -8.178   8.393  69.977  1.00  0.00    -0.121 C  
HETATM   18  C   UNL     1      -9.002  10.594  69.003  1.00  0.00    -0.165 C  
HETATM   19  C   UNL     1      -9.152   9.624  70.223  1.00  0.00    -0.272 C  
BRANCH  14  20
HETATM   20  C   UNL     1     -10.040   6.140  66.670  1.00  0.00    -0.218 C  
HETATM   21  C   UNL     1      -9.746   3.737  66.271  1.00  0.00    -0.138 C  
HETATM   22  C   UNL     1      -9.804   4.931  67.210  1.00  0.00    -0.214 C  
HETATM   23  C   UNL     1      -8.417   3.000  66.385  1.00  0.00    -0.107 C  
HETATM   24  O   UNL     1      -7.344   3.796  65.876  1.00  0.00    -0.070 OA 
HETATM   25  C   UNL     1      -8.144   2.605  67.831  1.00  0.00    -0.069 C  
HETATM   26  H   UNL     1      -6.516   3.336  65.948  1.00  0.00     0.000 HD 
HETATM   27  C   UNL     1      -8.224   3.809  68.783  1.00  0.00    -0.073 C  
HETATM   28  C   UNL     1      -9.538   4.581  68.610  1.00  0.00    -0.222 C  
HETATM   29  O   UNL     1      -8.076   3.335  70.117  1.00  0.00    -0.046 OA 
HETATM   30  C   UNL     1     -10.367   4.847  69.625  1.00  0.00    -0.177 C  
HETATM   31  H   UNL     1      -8.126   4.079  70.706  1.00  0.00     0.000 HD 
ENDBRANCH  14  20
ENDBRANCH   5   6
ENDBRANCH   4   5
TORSDOF 3
ENDMDL
MODEL       56
REMARK 921   NORMALIZED FREE ENERGY PREDICTED BY IDOCK:   -5.20 KCAL/MOL
REMARK 922        TOTAL FREE ENERGY PREDICTED BY IDOCK:   -7.21 KCAL/MOL
REMARK 923 INTER-LIGAND FREE ENERGY PREDICTED BY IDOCK:   -6.15 KCAL/MOL
REMARK 924 INTRA-LIGAND FREE ENERGY PREDICTED BY IDOCK:   -1.06 KCAL/MOL
REMARK 927      BINDING AFFINITY PREDICTED BY RF-SCORE:    0.00 PKD
ROOT
HETATM    1  C   UNL     1     -12.390  14.606  64.334  1.00  0.00    -0.420 C  
HETATM    2  C   UNL     1     -11.837  13.213  64.636  1.00  0.00    -0.417 C  
HETATM    3  C   UNL     1     -12.325  12.218  63.575  1.00  0.00    -0.670 C  
HETATM    4  C   UNL     1     -10.302  13.172  64.646  1.00  0.00    -0.381 C  
ENDROOT
BRANCH   4   5
HETATM    5  C   UNL     1      -9.607  14.020  65.713  1.00  0.00    -0.138 C  
BRANCH   5   6
HETATM    6  C   UNL     1      -9.967  13.434  67.094  1.00  0.00    -0.242 C  
HETATM    7  C   UNL     1      -9.309  12.081  67.449  1.00  0.00    -0.178 C  
HETATM    8  C   UNL     1      -7.784  12.238  67.302  1.00  0.00    -0.161 C  
HETATM    9  C   UNL     1      -9.881  11.497  68.884  1.00  0.00    -0.091 C  
HETATM   10  C   UNL     1     -11.356  11.141  68.694  1.00  0.00    -0.342 C  
HETATM   11  C   UNL     1     -11.344   9.730  68.145  1.00  0.00     0.058 C  
HETATM   12  C   UNL     1      -9.870   9.231  68.201  1.00  0.00    -0.185 C  
HETATM   13  C   UNL     1      -9.849   7.713  68.294  1.00  0.00    -0.181 C  
HETATM   14  C   UNL     1     -10.773   6.937  67.682  1.00  0.00    -0.344 C  
HETATM   15  C   UNL     1      -8.695   7.202  69.094  1.00  0.00    -0.133 C  
HETATM   16  C   UNL     1      -7.736  10.442  69.595  1.00  0.00    -0.152 C  
HETATM   17  C   UNL     1      -8.643   7.911  70.470  1.00  0.00    -0.131 C  
HETATM   18  C   UNL     1      -9.227  10.114  69.340  1.00  0.00    -0.229 C  
HETATM   19  C   UNL     1      -9.531   9.223  70.591  1.00  0.00    -0.333 C  
BRANCH  14  20
HETATM   20  C   UNL     1     -10.462   5.636  67.153  1.00  0.00    -0.334 C  
HETATM   21  C   UNL     1      -9.233   3.762  66.155  1.00  0.00    -0.166 C  
HETATM   22  C   UNL     1      -9.525   5.250  66.269  1.00  0.00    -0.166 C  
HETATM   23  C   UNL     1      -9.433   3.261  64.729  1.00  0.00    -0.150 C  
HETATM   24  O   UNL     1     -10.814   3.294  64.363  1.00  0.00    -0.467 OA 
HETATM   25  C   UNL     1      -8.606   4.084  63.749  1.00  0.00    -0.100 C  
HETATM   26  H   UNL     1     -10.939   2.982  63.475  1.00  0.00     0.000 HD 
HETATM   27  C   UNL     1      -8.886   5.589  63.881  1.00  0.00     0.219 C  
HETATM   28  C   UNL     1      -8.747   6.067  65.331  1.00  0.00    -0.090 C  
HETATM   29  O   UNL     1      -7.992   6.287  63.019  1.00  0.00    -0.103 OA 
HETATM   30  C   UNL     1      -7.954   7.081  65.693  1.00  0.00    -0.123 C  
HETATM   31  H   UNL     1      -8.165   7.218  63.101  1.00  0.00     0.000 HD 
ENDBRANCH  14  20
ENDBRANCH   5   6
ENDBRANCH   4   5
TORSDOF 3
ENDMDL
MODEL       57
REMARK 921   NORMALIZED FREE ENERGY PREDICTED BY IDOCK:   -5.15 KCAL/MOL
REMARK 922        TOTAL FREE ENERGY PREDICTED BY IDOCK:   -7.15 KCAL/MOL
REMARK 923 INTER-LIGAND FREE ENERGY PREDICTED BY IDOCK:   -6.08 KCAL/MOL
REMARK 924 INTRA-LIGAND FREE ENERGY PREDICTED BY IDOCK:   -1.07 KCAL/MOL
REMARK 927      BINDING AFFINITY PREDICTED BY RF-SCORE:    0.00 PKD
ROOT
HETATM    1  C   UNL     1     -10.459  17.376  68.146  1.00  0.00    -0.389 C  
HETATM    2  C   UNL     1      -9.238  17.306  67.231  1.00  0.00    -0.233 C  
HETATM    3  C   UNL     1      -7.955  17.388  68.067  1.00  0.00    -0.224 C  
HETATM    4  C   UNL     1      -9.181  16.010  66.411  1.00  0.00    -0.339 C  
ENDROOT
BRANCH   4   5
HETATM    5  C   UNL     1     -10.325  15.780  65.421  1.00  0.00    -0.417 C  
BRANCH   5   6
HETATM    6  C   UNL     1     -10.520  14.257  65.267  1.00  0.00    -0.408 C  
HETATM    7  C   UNL     1     -10.537  13.440  66.580  1.00  0.00    -0.287 C  
HETATM    8  C   UNL     1     -11.615  14.039  67.501  1.00  0.00    -0.397 C  
HETATM    9  C   UNL     1     -10.611  11.819  66.273  1.00  0.00    -0.292 C  
HETATM   10  C   UNL     1      -9.298  11.404  65.608  1.00  0.00    -0.242 C  
HETATM   11  C   UNL     1      -8.355  11.125  66.759  1.00  0.00    -0.152 C  
HETATM   12  C   UNL     1      -9.195  11.206  68.067  1.00  0.00    -0.159 C  
HETATM   13  C   UNL     1      -8.546  10.351  69.144  1.00  0.00    -0.169 C  
HETATM   14  C   UNL     1      -7.205  10.207  69.244  1.00  0.00    -0.085 C  
HETATM   15  C   UNL     1      -9.545   9.737  70.071  1.00  0.00    -0.282 C  
HETATM   16  C   UNL     1     -12.011  11.255  68.258  1.00  0.00    -0.215 C  
HETATM   17  C   UNL     1     -10.638   8.996  69.262  1.00  0.00    -0.226 C  
HETATM   18  C   UNL     1     -10.665  10.903  67.580  1.00  0.00    -0.299 C  
HETATM   19  C   UNL     1     -10.689   9.344  67.712  1.00  0.00    -0.290 C  
BRANCH  14  20
HETATM   20  C   UNL     1      -6.536  10.047  70.508  1.00  0.00    -0.122 C  
HETATM   21  C   UNL     1      -5.154   9.117  72.308  1.00  0.00    -0.061 C  
HETATM   22  C   UNL     1      -6.111   8.939  71.141  1.00  0.00    -0.053 C  
HETATM   23  C   UNL     1      -5.706   8.491  73.584  1.00  0.00    -0.099 C  
HETATM   24  O   UNL     1      -6.845   9.212  74.057  1.00  0.00    -0.359 OA 
HETATM   25  C   UNL     1      -6.063   7.028  73.354  1.00  0.00    -0.058 C  
HETATM   26  H   UNL     1      -7.189   8.822  74.852  1.00  0.00     0.000 HD 
HETATM   27  C   UNL     1      -7.013   6.847  72.160  1.00  0.00    -0.066 C  
HETATM   28  C   UNL     1      -6.478   7.539  70.900  1.00  0.00    -0.039 C  
HETATM   29  O   UNL     1      -7.198   5.452  71.943  1.00  0.00    -0.081 OA 
HETATM   30  C   UNL     1      -6.315   6.906  69.733  1.00  0.00    -0.039 C  
HETATM   31  H   UNL     1      -7.786   5.340  71.204  1.00  0.00     0.000 HD 
ENDBRANCH  14  20
ENDBRANCH   5   6
ENDBRANCH   4   5
TORSDOF 3
ENDMDL
MODEL       58
REMARK 921   NORMALIZED FREE ENERGY PREDICTED BY IDOCK:   -5.10 KCAL/MOL
REMARK 922        TOTAL FREE ENERGY PREDICTED BY IDOCK:   -7.10 KCAL/MOL
REMARK 923 INTER-LIGAND FREE ENERGY PREDICTED BY IDOCK:   -6.15 KCAL/MOL
REMARK 924 INTRA-LIGAND FREE ENERGY PREDICTED BY IDOCK:   -0.95 KCAL/MOL
REMARK 927      BINDING AFFINITY PREDICTED BY RF-SCORE:    0.00 PKD
ROOT
HETATM    1  C   UNL     1     -10.292  15.841  66.013  1.00  0.00    -0.356 C  
HETATM    2  C   UNL     1      -9.741  14.816  67.005  1.00  0.00    -0.242 C  
HETATM    3  C   UNL     1      -8.208  14.808  66.948  1.00  0.00    -0.144 C  
HETATM    4  C   UNL     1     -10.155  15.108  68.454  1.00  0.00    -0.225 C  
ENDROOT
BRANCH   4   5
HETATM    5  C   UNL     1     -11.653  15.059  68.757  1.00  0.00    -0.357 C  
BRANCH   5   6
HETATM    6  C   UNL     1     -12.125  13.599  68.582  1.00  0.00    -0.325 C  
HETATM    7  C   UNL     1     -11.833  12.647  69.764  1.00  0.00    -0.379 C  
HETATM    8  C   UNL     1     -12.437  13.268  71.038  1.00  0.00    -0.422 C  
HETATM    9  C   UNL     1     -12.258  11.094  69.398  1.00  0.00    -0.329 C  
HETATM   10  C   UNL     1     -11.321  10.596  68.296  1.00  0.00    -0.357 C  
HETATM   11  C   UNL     1     -10.106  10.072  69.031  1.00  0.00    -0.211 C  
HETATM   12  C   UNL     1     -10.442  10.108  70.551  1.00  0.00    -0.173 C  
HETATM   13  C   UNL     1      -9.615   9.061  71.280  1.00  0.00    -0.361 C  
HETATM   14  C   UNL     1      -8.356   8.740  70.902  1.00  0.00    -0.196 C  
HETATM   15  C   UNL     1     -10.333   8.475  72.453  1.00  0.00    -0.372 C  
HETATM   16  C   UNL     1     -12.990  10.487  71.704  1.00  0.00    -0.581 C  
HETATM   17  C   UNL     1     -11.734   7.974  72.024  1.00  0.00    -0.375 C  
HETATM   18  C   UNL     1     -12.018  10.049  70.581  1.00  0.00    -0.401 C  
HETATM   19  C   UNL     1     -12.240   8.500  70.613  1.00  0.00     0.096 C  
BRANCH  14  20
HETATM   20  C   UNL     1      -7.340   8.354  71.845  1.00  0.00    -0.118 C  
HETATM   21  C   UNL     1      -5.292   7.399  72.799  1.00  0.00    -0.037 C  
HETATM   22  C   UNL     1      -6.443   7.353  71.807  1.00  0.00    -0.043 C  
HETATM   23  C   UNL     1      -5.246   6.141  73.661  1.00  0.00    -0.035 C  
HETATM   24  O   UNL     1      -6.365   6.087  74.548  1.00  0.00    -0.068 OA 
HETATM   25  C   UNL     1      -5.201   4.893  72.788  1.00  0.00    -0.008 C  
HETATM   26  H   UNL     1      -6.337   5.303  75.084  1.00  0.00     0.000 HD 
HETATM   27  C   UNL     1      -6.352   4.859  71.770  1.00  0.00    -0.030 C  
HETATM   28  C   UNL     1      -6.428   6.157  70.957  1.00  0.00    -0.049 C  
HETATM   29  O   UNL     1      -6.166   3.729  70.923  1.00  0.00    -0.017 OA 
HETATM   30  C   UNL     1      -6.422   6.182  69.620  1.00  0.00    -0.039 C  
HETATM   31  H   UNL     1      -6.878   3.708  70.294  1.00  0.00     0.000 HD 
ENDBRANCH  14  20
ENDBRANCH   5   6
ENDBRANCH   4   5
TORSDOF 3
ENDMDL
MODEL       59
REMARK 921   NORMALIZED FREE ENERGY PREDICTED BY IDOCK:   -5.09 KCAL/MOL
REMARK 922        TOTAL FREE ENERGY PREDICTED BY IDOCK:   -7.09 KCAL/MOL
REMARK 923 INTER-LIGAND FREE ENERGY PREDICTED BY IDOCK:   -6.04 KCAL/MOL
REMARK 924 INTRA-LIGAND FREE ENERGY PREDICTED BY IDOCK:   -1.05 KCAL/MOL
REMARK 927      BINDING AFFINITY PREDICTED BY RF-SCORE:    0.00 PKD
ROOT
HETATM    1  C   UNL     1      -7.073  18.223  67.488  1.00  0.00    -0.204 C  
HETATM    2  C   UNL     1      -7.690  19.621  67.525  1.00  0.00    -0.303 C  
HETATM    3  C   UNL     1      -6.884  20.570  66.629  1.00  0.00    -0.316 C  
HETATM    4  C   UNL     1      -9.146  19.642  67.041  1.00  0.00    -0.402 C  
ENDROOT
BRANCH   4   5
HETATM    5  C   UNL     1     -10.150  18.837  67.868  1.00  0.00    -0.415 C  
BRANCH   5   6
HETATM    6  C   UNL     1     -10.596  17.624  67.023  1.00  0.00    -0.254 C  
HETATM    7  C   UNL     1     -10.681  16.273  67.771  1.00  0.00    -0.325 C  
HETATM    8  C   UNL     1     -11.602  16.458  68.990  1.00  0.00    -0.143 C  
HETATM    9  C   UNL     1     -11.030  15.037  66.732  1.00  0.00    -0.323 C  
HETATM   10  C   UNL     1      -9.834  14.856  65.796  1.00  0.00    -0.380 C  
HETATM   11  C   UNL     1      -8.894  13.936  66.546  1.00  0.00    -0.023 C  
HETATM   12  C   UNL     1      -9.647  13.457  67.822  1.00  0.00    -0.213 C  
HETATM   13  C   UNL     1      -9.092  12.112  68.265  1.00  0.00    -0.191 C  
HETATM   14  C   UNL     1      -7.788  11.782  68.119  1.00  0.00    -0.135 C  
HETATM   15  C   UNL     1     -10.132  11.240  68.894  1.00  0.00    -0.185 C  
HETATM   16  C   UNL     1     -12.405  13.732  68.352  1.00  0.00     0.016 C  
HETATM   17  C   UNL     1     -11.367  11.130  67.967  1.00  0.00    -0.380 C  
HETATM   18  C   UNL     1     -11.168  13.608  67.430  1.00  0.00    -0.323 C  
HETATM   19  C   UNL     1     -11.436  12.203  66.797  1.00  0.00    -0.418 C  
BRANCH  14  20
HETATM   20  C   UNL     1      -7.094  10.941  69.057  1.00  0.00    -0.095 C  
HETATM   21  C   UNL     1      -5.967   9.005  70.057  1.00  0.00    -0.031 C  
HETATM   22  C   UNL     1      -7.042   9.601  69.162  1.00  0.00    -0.062 C  
HETATM   23  C   UNL     1      -6.570   8.121  71.143  1.00  0.00    -0.043 C  
HETATM   24  O   UNL     1      -7.306   8.900  72.088  1.00  0.00    -0.320 OA 
HETATM   25  C   UNL     1      -7.464   7.050  70.529  1.00  0.00    -0.088 C  
HETATM   26  H   UNL     1      -7.682   8.349  72.765  1.00  0.00     0.000 HD 
HETATM   27  C   UNL     1      -8.536   7.653  69.608  1.00  0.00    -0.136 C  
HETATM   28  C   UNL     1      -7.923   8.592  68.563  1.00  0.00    -0.116 C  
HETATM   29  O   UNL     1      -9.246   6.584  68.989  1.00  0.00    -0.131 OA 
HETATM   30  C   UNL     1      -8.131   8.458  67.249  1.00  0.00    -0.105 C  
HETATM   31  H   UNL     1      -9.909   6.957  68.419  1.00  0.00     0.000 HD 
ENDBRANCH  14  20
ENDBRANCH   5   6
ENDBRANCH   4   5
TORSDOF 3
ENDMDL
MODEL       60
REMARK 921   NORMALIZED FREE ENERGY PREDICTED BY IDOCK:   -5.06 KCAL/MOL
REMARK 922        TOTAL FREE ENERGY PREDICTED BY IDOCK:   -7.05 KCAL/MOL
REMARK 923 INTER-LIGAND FREE ENERGY PREDICTED BY IDOCK:   -6.64 KCAL/MOL
REMARK 924 INTRA-LIGAND FREE ENERGY PREDICTED BY IDOCK:   -0.41 KCAL/MOL
REMARK 927      BINDING AFFINITY PREDICTED BY RF-SCORE:    0.00 PKD
ROOT
HETATM    1  C   UNL     1     -10.699   5.000  66.059  1.00  0.00    -0.241 C  
HETATM    2  C   UNL     1      -9.330   4.471  65.634  1.00  0.00    -0.164 C  
HETATM    3  C   UNL     1      -9.503   3.321  64.634  1.00  0.00    -0.149 C  
HETATM    4  C   UNL     1      -8.458   5.544  64.967  1.00  0.00    -0.147 C  
ENDROOT
BRANCH   4   5
HETATM    5  C   UNL     1      -8.072   6.743  65.835  1.00  0.00    -0.123 C  
BRANCH   5   6
HETATM    6  C   UNL     1      -9.331   7.618  66.022  1.00  0.00    -0.076 C  
HETATM    7  C   UNL     1      -9.166   9.120  65.699  1.00  0.00    -0.296 C  
HETATM    8  C   UNL     1      -8.623   9.244  64.263  1.00  0.00    -0.214 C  
HETATM    9  C   UNL     1     -10.535   9.965  66.071  1.00  0.00    -0.112 C  
HETATM   10  C   UNL     1     -10.706   9.941  67.591  1.00  0.00    -0.339 C  
HETATM   11  C   UNL     1      -9.874  11.103  68.091  1.00  0.00    -0.188 C  
HETATM   12  C   UNL     1      -9.389  11.888  66.837  1.00  0.00    -0.198 C  
HETATM   13  C   UNL     1      -9.128  13.338  67.213  1.00  0.00    -0.221 C  
HETATM   14  C   UNL     1      -8.651  13.697  68.427  1.00  0.00    -0.151 C  
HETATM   15  C   UNL     1      -9.423  14.285  66.094  1.00  0.00    -0.250 C  
HETATM   16  C   UNL     1     -10.339  11.596  64.195  1.00  0.00    -0.386 C  
HETATM   17  C   UNL     1     -10.848  14.030  65.542  1.00  0.00    -0.311 C  
HETATM   18  C   UNL     1     -10.460  11.524  65.737  1.00  0.00    -0.308 C  
HETATM   19  C   UNL     1     -11.512  12.656  65.985  1.00  0.00    -0.414 C  
BRANCH  14  20
HETATM   20  C   UNL     1      -7.777  14.825  68.612  1.00  0.00    -0.130 C  
HETATM   21  C   UNL     1      -6.843  16.935  69.445  1.00  0.00    -0.195 C  
HETATM   22  C   UNL     1      -8.031  16.068  69.057  1.00  0.00    -0.224 C  
HETATM   23  C   UNL     1      -6.822  18.240  68.656  1.00  0.00    -0.254 C  
HETATM   24  O   UNL     1      -6.542  18.000  67.276  1.00  0.00    -0.169 OA 
HETATM   25  C   UNL     1      -8.146  18.980  68.807  1.00  0.00    -0.372 C  
HETATM   26  H   UNL     1      -6.528  18.813  66.785  1.00  0.00     0.000 HD 
HETATM   27  C   UNL     1      -9.347  18.096  68.435  1.00  0.00    -0.309 C  
HETATM   28  C   UNL     1      -9.319  16.758  69.185  1.00  0.00    -0.155 C  
HETATM   29  O   UNL     1     -10.540  18.821  68.716  1.00  0.00    -0.387 OA 
HETATM   30  C   UNL     1     -10.345  16.312  69.919  1.00  0.00    -0.160 C  
HETATM   31  H   UNL     1     -11.282  18.274  68.486  1.00  0.00     0.000 HD 
ENDBRANCH  14  20
ENDBRANCH   5   6
ENDBRANCH   4   5
TORSDOF 3
ENDMDL
MODEL       61
REMARK 921   NORMALIZED FREE ENERGY PREDICTED BY IDOCK:   -5.06 KCAL/MOL
REMARK 922        TOTAL FREE ENERGY PREDICTED BY IDOCK:   -7.05 KCAL/MOL
REMARK 923 INTER-LIGAND FREE ENERGY PREDICTED BY IDOCK:   -6.03 KCAL/MOL
REMARK 924 INTRA-LIGAND FREE ENERGY PREDICTED BY IDOCK:   -1.01 KCAL/MOL
REMARK 927      BINDING AFFINITY PREDICTED BY RF-SCORE:    0.00 PKD
ROOT
HETATM    1  C   UNL     1      -5.389   6.244  64.511  1.00  0.00    -0.018 C  
HETATM    2  C   UNL     1      -6.641   6.987  64.976  1.00  0.00    -0.046 C  
HETATM    3  C   UNL     1      -6.896   8.197  64.067  1.00  0.00    -0.067 C  
HETATM    4  C   UNL     1      -7.899   6.107  64.949  1.00  0.00    -0.108 C  
ENDROOT
BRANCH   4   5
HETATM    5  C   UNL     1      -7.898   4.891  65.876  1.00  0.00    -0.095 C  
BRANCH   5   6
HETATM    6  C   UNL     1      -7.767   5.401  67.327  1.00  0.00    -0.096 C  
HETATM    7  C   UNL     1      -8.933   6.272  67.847  1.00  0.00    -0.113 C  
HETATM    8  C   UNL     1     -10.240   5.480  67.663  1.00  0.00    -0.241 C  
HETATM    9  C   UNL     1      -8.609   6.866  69.354  1.00  0.00    -0.133 C  
HETATM   10  C   UNL     1      -7.448   7.856  69.230  1.00  0.00    -0.092 C  
HETATM   11  C   UNL     1      -8.102   9.173  68.870  1.00  0.00    -0.100 C  
HETATM   12  C   UNL     1      -9.641   8.962  68.974  1.00  0.00    -0.158 C  
HETATM   13  C   UNL     1     -10.320  10.291  69.264  1.00  0.00    -0.250 C  
HETATM   14  C   UNL     1      -9.858  11.463  68.770  1.00  0.00    -0.175 C  
HETATM   15  C   UNL     1     -11.543  10.140  70.110  1.00  0.00    -0.350 C  
HETATM   16  C   UNL     1     -10.963   6.773  70.170  1.00  0.00    -0.340 C  
HETATM   17  C   UNL     1     -11.215   9.317  71.380  1.00  0.00    -0.433 C  
HETATM   18  C   UNL     1      -9.780   7.753  69.979  1.00  0.00    -0.176 C  
HETATM   19  C   UNL     1      -9.838   8.525  71.339  1.00  0.00    -0.296 C  
BRANCH  14  20
HETATM   20  C   UNL     1     -10.732  12.549  68.412  1.00  0.00    -0.259 C  
HETATM   21  C   UNL     1     -11.567  14.643  67.445  1.00  0.00    -0.408 C  
HETATM   22  C   UNL     1     -10.458  13.824  68.087  1.00  0.00    -0.252 C  
HETATM   23  C   UNL     1     -11.866  15.905  68.247  1.00  0.00    -0.057 C  
HETATM   24  O   UNL     1     -12.461  15.583  69.506  1.00  0.00    -0.587 OA 
HETATM   25  C   UNL     1     -10.596  16.722  68.455  1.00  0.00    -0.354 C  
HETATM   26  H   UNL     1     -12.647  16.369  70.006  1.00  0.00     0.000 HD 
HETATM   27  C   UNL     1      -9.469  15.888  69.083  1.00  0.00    -0.260 C  
HETATM   28  C   UNL     1      -9.225  14.589  68.305  1.00  0.00    -0.201 C  
HETATM   29  O   UNL     1      -8.293  16.690  69.132  1.00  0.00    -0.215 OA 
HETATM   30  C   UNL     1      -8.024  14.235  67.834  1.00  0.00    -0.156 C  
HETATM   31  H   UNL     1      -7.596  16.174  69.519  1.00  0.00     0.000 HD 
ENDBRANCH  14  20
ENDBRANCH   5   6
ENDBRANCH   4   5
TORSDOF 3
ENDMDL
MODEL       62
REMARK 921   NORMALIZED FREE ENERGY PREDICTED BY IDOCK:   -5.03 KCAL/MOL
REMARK 922        TOTAL FREE ENERGY PREDICTED BY IDOCK:   -7.02 KCAL/MOL
REMARK 923 INTER-LIGAND FREE ENERGY PREDICTED BY IDOCK:   -5.97 KCAL/MOL
REMARK 924 INTRA-LIGAND FREE ENERGY PREDICTED BY IDOCK:   -1.05 KCAL/MOL
REMARK 927      BINDING AFFINITY PREDICTED BY RF-SCORE:    0.00 PKD
ROOT
HETATM    1  C   UNL     1     -10.483   3.913  64.863  1.00  0.00    -0.125 C  
HETATM    2  C   UNL     1      -9.089   3.530  64.368  1.00  0.00    -0.128 C  
HETATM    3  C   UNL     1      -8.751   4.323  63.099  1.00  0.00    -0.116 C  
HETATM    4  C   UNL     1      -7.991   3.812  65.403  1.00  0.00    -0.093 C  
ENDROOT
BRANCH   4   5
HETATM    5  C   UNL     1      -8.079   3.034  66.717  1.00  0.00    -0.081 C  
BRANCH   5   6
HETATM    6  C   UNL     1      -7.483   3.920  67.833  1.00  0.00    -0.067 C  
HETATM    7  C   UNL     1      -8.443   4.958  68.458  1.00  0.00    -0.095 C  
HETATM    8  C   UNL     1      -9.693   4.212  68.960  1.00  0.00    -0.188 C  
HETATM    9  C   UNL     1      -7.652   5.930  69.534  1.00  0.00    -0.088 C  
HETATM   10  C   UNL     1      -6.656   6.787  68.751  1.00  0.00    -0.051 C  
HETATM   11  C   UNL     1      -7.458   7.983  68.286  1.00  0.00    -0.100 C  
HETATM   12  C   UNL     1      -8.856   7.887  68.965  1.00  0.00    -0.145 C  
HETATM   13  C   UNL     1      -9.460   9.277  69.090  1.00  0.00    -0.157 C  
HETATM   14  C   UNL     1      -9.255  10.241  68.163  1.00  0.00    -0.137 C  
HETATM   15  C   UNL     1     -10.310   9.427  70.310  1.00  0.00    -0.293 C  
HETATM   16  C   UNL     1      -9.577   6.185  71.099  1.00  0.00    -0.193 C  
HETATM   17  C   UNL     1      -9.526   8.974  71.566  1.00  0.00    -0.316 C  
HETATM   18  C   UNL     1      -8.581   7.013  70.250  1.00  0.00    -0.140 C  
HETATM   19  C   UNL     1      -8.209   8.134  71.277  1.00  0.00    -0.132 C  
BRANCH  14  20
HETATM   20  C   UNL     1     -10.252  11.227  67.840  1.00  0.00    -0.201 C  
HETATM   21  C   UNL     1     -12.005  12.461  66.648  1.00  0.00    -0.300 C  
HETATM   22  C   UNL     1     -10.728  11.636  66.651  1.00  0.00    -0.310 C  
HETATM   23  C   UNL     1     -11.799  13.808  65.964  1.00  0.00    -0.390 C  
HETATM   24  O   UNL     1     -10.937  14.648  66.735  1.00  0.00    -0.309 OA 
HETATM   25  C   UNL     1     -11.236  13.617  64.561  1.00  0.00    -0.395 C  
HETATM   26  H   UNL     1     -10.809  15.487  66.308  1.00  0.00     0.000 HD 
HETATM   27  C   UNL     1      -9.958  12.765  64.562  1.00  0.00    -0.149 C  
HETATM   28  C   UNL     1     -10.160  11.442  65.312  1.00  0.00    -0.315 C  
HETATM   29  O   UNL     1      -9.569  12.539  63.211  1.00  0.00    -0.554 OA 
HETATM   30  C   UNL     1      -9.896  10.249  64.769  1.00  0.00    -0.403 C  
HETATM   31  H   UNL     1      -8.779  12.011  63.213  1.00  0.00     0.000 HD 
ENDBRANCH  14  20
ENDBRANCH   5   6
ENDBRANCH   4   5
TORSDOF 3
ENDMDL
MODEL       63
REMARK 921   NORMALIZED FREE ENERGY PREDICTED BY IDOCK:   -5.01 KCAL/MOL
REMARK 922        TOTAL FREE ENERGY PREDICTED BY IDOCK:   -6.99 KCAL/MOL
REMARK 923 INTER-LIGAND FREE ENERGY PREDICTED BY IDOCK:   -5.66 KCAL/MOL
REMARK 924 INTRA-LIGAND FREE ENERGY PREDICTED BY IDOCK:   -1.33 KCAL/MOL
REMARK 927      BINDING AFFINITY PREDICTED BY RF-SCORE:    0.00 PKD
ROOT
HETATM    1  C   UNL     1     -10.780  17.098  68.176  1.00  0.00    -0.366 C  
HETATM    2  C   UNL     1     -11.023  15.591  68.103  1.00  0.00    -0.312 C  
HETATM    3  C   UNL     1     -11.803  15.128  69.340  1.00  0.00    -0.357 C  
HETATM    4  C   UNL     1     -11.824  15.177  66.861  1.00  0.00    -0.006 C  
ENDROOT
BRANCH   4   5
HETATM    5  C   UNL     1     -11.170  15.452  65.506  1.00  0.00    -0.234 C  
BRANCH   5   6
HETATM    6  C   UNL     1      -9.934  14.536  65.381  1.00  0.00    -0.352 C  
HETATM    7  C   UNL     1     -10.206  13.017  65.469  1.00  0.00    -0.296 C  
HETATM    8  C   UNL     1     -11.263  12.658  64.408  1.00  0.00    -0.391 C  
HETATM    9  C   UNL     1      -8.796  12.157  65.462  1.00  0.00     0.441 C  
HETATM   10  C   UNL     1      -8.050  12.465  66.761  1.00  0.00     0.009 C  
HETATM   11  C   UNL     1      -8.618  11.491  67.771  1.00  0.00    -0.138 C  
HETATM   12  C   UNL     1      -9.549  10.516  66.992  1.00  0.00    -0.202 C  
HETATM   13  C   UNL     1      -9.638   9.193  67.735  1.00  0.00    -0.173 C  
HETATM   14  C   UNL     1      -9.605   9.117  69.086  1.00  0.00    -0.161 C  
HETATM   15  C   UNL     1      -9.796   8.025  66.815  1.00  0.00    -0.327 C  
HETATM   16  C   UNL     1      -9.699  10.210  64.190  1.00  0.00    -0.301 C  
HETATM   17  C   UNL     1      -8.699   8.055  65.723  1.00  0.00    -0.175 C  
HETATM   18  C   UNL     1      -8.990  10.573  65.518  1.00  0.00    -0.203 C  
HETATM   19  C   UNL     1      -7.920   9.432  65.580  1.00  0.00    -0.103 C  
BRANCH  14  20
HETATM   20  C   UNL     1     -10.335   8.119  69.822  1.00  0.00    -0.216 C  
HETATM   21  C   UNL     1     -12.181   6.858  70.832  1.00  0.00    -0.404 C  
HETATM   22  C   UNL     1     -11.544   8.172  70.409  1.00  0.00    -0.063 C  
HETATM   23  C   UNL     1     -12.506   6.848  72.322  1.00  0.00    -0.051 C  
HETATM   24  O   UNL     1     -11.312   6.834  73.106  1.00  0.00    -0.483 OA 
HETATM   25  C   UNL     1     -13.368   8.049  72.691  1.00  0.00     0.213 C  
HETATM   26  H   UNL     1     -11.514   6.828  74.034  1.00  0.00     0.000 HD 
HETATM   27  C   UNL     1     -12.734   9.374  72.244  1.00  0.00    -0.341 C  
HETATM   28  C   UNL     1     -12.350   9.347  70.759  1.00  0.00    -0.185 C  
HETATM   29  O   UNL     1     -13.653  10.426  72.520  1.00  0.00    -0.581 OA 
HETATM   30  C   UNL     1     -12.762  10.268  69.882  1.00  0.00     0.101 C  
HETATM   31  H   UNL     1     -13.261  11.246  72.243  1.00  0.00     0.000 HD 
ENDBRANCH  14  20
ENDBRANCH   5   6
ENDBRANCH   4   5
TORSDOF 3
ENDMDL
MODEL       64
REMARK 921   NORMALIZED FREE ENERGY PREDICTED BY IDOCK:   -4.94 KCAL/MOL
REMARK 922        TOTAL FREE ENERGY PREDICTED BY IDOCK:   -6.92 KCAL/MOL
REMARK 923 INTER-LIGAND FREE ENERGY PREDICTED BY IDOCK:   -6.00 KCAL/MOL
REMARK 924 INTRA-LIGAND FREE ENERGY PREDICTED BY IDOCK:   -0.92 KCAL/MOL
REMARK 927      BINDING AFFINITY PREDICTED BY RF-SCORE:    0.00 PKD
ROOT
HETATM    1  C   UNL     1     -12.984  13.904  65.368  1.00  0.00    -0.368 C  
HETATM    2  C   UNL     1     -11.675  13.272  64.896  1.00  0.00    -0.375 C  
HETATM    3  C   UNL     1     -11.854  12.698  63.484  1.00  0.00    -0.619 C  
HETATM    4  C   UNL     1     -10.512  14.272  64.851  1.00  0.00    -0.454 C  
ENDROOT
BRANCH   4   5
HETATM    5  C   UNL     1     -10.094  14.889  66.187  1.00  0.00    -0.316 C  
BRANCH   5   6
HETATM    6  C   UNL     1     -10.352  13.844  67.293  1.00  0.00    -0.257 C  
HETATM    7  C   UNL     1      -9.310  12.708  67.408  1.00  0.00    -0.189 C  
HETATM    8  C   UNL     1      -7.920  13.349  67.575  1.00  0.00    -0.186 C  
HETATM    9  C   UNL     1      -9.772  11.586  68.529  1.00  0.00    -0.191 C  
HETATM   10  C   UNL     1     -11.020  10.878  68.000  1.00  0.00    -0.317 C  
HETATM   11  C   UNL     1     -10.488   9.761  67.127  1.00  0.00    -0.316 C  
HETATM   12  C   UNL     1      -8.943   9.731  67.316  1.00  0.00    -0.146 C  
HETATM   13  C   UNL     1      -8.421   8.332  67.029  1.00  0.00    -0.122 C  
HETATM   14  C   UNL     1      -8.975   7.531  66.090  1.00  0.00    -0.188 C  
HETATM   15  C   UNL     1      -7.234   7.978  67.866  1.00  0.00    -0.091 C  
HETATM   16  C   UNL     1      -7.466  11.061  69.320  1.00  0.00    -0.100 C  
HETATM   17  C   UNL     1      -7.541   8.235  69.362  1.00  0.00    -0.096 C  
HETATM   18  C   UNL     1      -8.732  10.392  68.733  1.00  0.00    -0.146 C  
HETATM   19  C   UNL     1      -8.824   9.126  69.649  1.00  0.00    -0.152 C  
BRANCH  14  20
HETATM   20  C   UNL     1      -8.201   6.597  65.317  1.00  0.00    -0.133 C  
HETATM   21  C   UNL     1      -7.586   4.669  63.930  1.00  0.00    -0.071 C  
HETATM   22  C   UNL     1      -8.414   5.299  65.039  1.00  0.00    -0.150 C  
HETATM   23  C   UNL     1      -6.808   3.457  64.433  1.00  0.00    -0.044 C  
HETATM   24  O   UNL     1      -5.782   3.851  65.347  1.00  0.00    -0.020 OA 
HETATM   25  C   UNL     1      -7.746   2.452  65.091  1.00  0.00    -0.077 C  
HETATM   26  H   UNL     1      -5.298   3.096  65.661  1.00  0.00     0.000 HD 
HETATM   27  C   UNL     1      -8.598   3.095  66.195  1.00  0.00    -0.119 C  
HETATM   28  C   UNL     1      -9.322   4.351  65.694  1.00  0.00    -0.161 C  
HETATM   29  O   UNL     1      -9.523   2.121  66.671  1.00  0.00    -0.367 OA 
HETATM   30  C   UNL     1     -10.644   4.521  65.799  1.00  0.00    -0.226 C  
HETATM   31  H   UNL     1     -10.050   2.519  67.354  1.00  0.00     0.000 HD 
ENDBRANCH  14  20
ENDBRANCH   5   6
ENDBRANCH   4   5
TORSDOF 3
ENDMDL
MODEL       65
REMARK 921   NORMALIZED FREE ENERGY PREDICTED BY IDOCK:   -4.92 KCAL/MOL
REMARK 922        TOTAL FREE ENERGY PREDICTED BY IDOCK:   -6.89 KCAL/MOL
REMARK 923 INTER-LIGAND FREE ENERGY PREDICTED BY IDOCK:   -5.90 KCAL/MOL
REMARK 924 INTRA-LIGAND FREE ENERGY PREDICTED BY IDOCK:   -0.99 KCAL/MOL
REMARK 927      BINDING AFFINITY PREDICTED BY RF-SCORE:    0.00 PKD
ROOT
HETATM    1  C   UNL     1      -9.380   3.820  68.982  1.00  0.00    -0.240 C  
HETATM    2  C   UNL     1      -9.239   4.950  70.002  1.00  0.00    -0.182 C  
HETATM    3  C   UNL     1     -10.420   4.918  70.981  1.00  0.00    -0.164 C  
HETATM    4  C   UNL     1      -7.946   4.852  70.823  1.00  0.00    -0.083 C  
ENDROOT
BRANCH   4   5
HETATM    5  C   UNL     1      -6.635   4.971  70.044  1.00  0.00    -0.036 C  
BRANCH   5   6
HETATM    6  C   UNL     1      -6.923   5.759  68.748  1.00  0.00    -0.068 C  
HETATM    7  C   UNL     1      -7.030   7.294  68.898  1.00  0.00    -0.078 C  
HETATM    8  C   UNL     1      -5.740   7.799  69.569  1.00  0.00    -0.023 C  
HETATM    9  C   UNL     1      -7.476   8.002  67.474  1.00  0.00    -0.097 C  
HETATM   10  C   UNL     1      -8.910   7.571  67.162  1.00  0.00    -0.127 C  
HETATM   11  C   UNL     1      -9.781   8.560  67.907  1.00  0.00    -0.193 C  
HETATM   12  C   UNL     1      -8.836   9.654  68.485  1.00  0.00    -0.124 C  
HETATM   13  C   UNL     1      -9.609  10.951  68.665  1.00  0.00    -0.192 C  
HETATM   14  C   UNL     1     -10.916  10.973  69.014  1.00  0.00    -0.284 C  
HETATM   15  C   UNL     1      -8.759  12.162  68.449  1.00  0.00    -0.141 C  
HETATM   16  C   UNL     1      -6.132  10.077  67.797  1.00  0.00    -0.053 C  
HETATM   17  C   UNL     1      -8.021  12.060  67.091  1.00  0.00    -0.175 C  
HETATM   18  C   UNL     1      -7.579   9.594  67.534  1.00  0.00    -0.095 C  
HETATM   19  C   UNL     1      -8.014  10.615  66.430  1.00  0.00    -0.142 C  
BRANCH  14  20
HETATM   20  C   UNL     1     -11.480  12.013  69.833  1.00  0.00    -0.239 C  
HETATM   21  C   UNL     1     -12.758  13.984  70.540  1.00  0.00    -0.347 C  
HETATM   22  C   UNL     1     -11.921  13.242  69.510  1.00  0.00    -0.366 C  
HETATM   23  C   UNL     1     -12.140  15.331  70.897  1.00  0.00    -0.344 C  
HETATM   24  O   UNL     1     -10.917  15.159  71.616  1.00  0.00    -0.542 OA 
HETATM   25  C   UNL     1     -11.903  16.163  69.642  1.00  0.00    -0.134 C  
HETATM   26  H   UNL     1     -10.531  15.998  71.838  1.00  0.00     0.000 HD 
HETATM   27  C   UNL     1     -11.076  15.404  68.594  1.00  0.00    -0.289 C  
HETATM   28  C   UNL     1     -11.672  14.023  68.294  1.00  0.00    -0.392 C  
HETATM   29  O   UNL     1     -11.005  16.202  67.416  1.00  0.00    -0.302 OA 
HETATM   30  C   UNL     1     -11.979  13.613  67.058  1.00  0.00    -0.448 C  
HETATM   31  H   UNL     1     -10.494  15.732  66.768  1.00  0.00     0.000 HD 
ENDBRANCH  14  20
ENDBRANCH   5   6
ENDBRANCH   4   5
TORSDOF 3
ENDMDL
MODEL       66
REMARK 921   NORMALIZED FREE ENERGY PREDICTED BY IDOCK:   -4.89 KCAL/MOL
REMARK 922        TOTAL FREE ENERGY PREDICTED BY IDOCK:   -6.85 KCAL/MOL
REMARK 923 INTER-LIGAND FREE ENERGY PREDICTED BY IDOCK:   -5.97 KCAL/MOL
REMARK 924 INTRA-LIGAND FREE ENERGY PREDICTED BY IDOCK:   -0.88 KCAL/MOL
REMARK 927      BINDING AFFINITY PREDICTED BY RF-SCORE:    0.00 PKD
ROOT
HETATM    1  C   UNL     1      -8.641   1.940  67.921  1.00  0.00    -0.101 C  
HETATM    2  C   UNL     1      -7.498   2.533  68.742  1.00  0.00    -0.047 C  
HETATM    3  C   UNL     1      -6.401   1.479  68.944  1.00  0.00    -0.025 C  
HETATM    4  C   UNL     1      -6.856   3.756  68.073  1.00  0.00    -0.047 C  
ENDROOT
BRANCH   4   5
HETATM    5  C   UNL     1      -7.759   4.974  67.873  1.00  0.00    -0.084 C  
BRANCH   5   6
HETATM    6  C   UNL     1      -8.144   5.512  69.268  1.00  0.00    -0.095 C  
HETATM    7  C   UNL     1      -9.430   6.368  69.332  1.00  0.00    -0.146 C  
HETATM    8  C   UNL     1     -10.582   5.547  68.726  1.00  0.00    -0.236 C  
HETATM    9  C   UNL     1      -9.654   6.996  70.844  1.00  0.00    -0.167 C  
HETATM   10  C   UNL     1      -8.536   8.006  71.106  1.00  0.00    -0.145 C  
HETATM   11  C   UNL     1      -9.042   9.303  70.512  1.00  0.00    -0.307 C  
HETATM   12  C   UNL     1     -10.519   9.063  70.081  1.00  0.00    -0.240 C  
HETATM   13  C   UNL     1     -11.273  10.383  70.088  1.00  0.00    -0.393 C  
HETATM   14  C   UNL     1     -10.684  11.555  69.757  1.00  0.00     0.161 C  
HETATM   15  C   UNL     1     -12.712  10.222  70.462  1.00  0.00    -0.325 C  
HETATM   16  C   UNL     1     -12.145   6.870  70.798  1.00  0.00    -0.400 C  
HETATM   17  C   UNL     1     -12.833   9.428  71.786  1.00  0.00    -0.484 C  
HETATM   18  C   UNL     1     -10.981   7.869  71.004  1.00  0.00    -0.262 C  
HETATM   19  C   UNL     1     -11.517   8.664  72.242  1.00  0.00    -0.423 C  
BRANCH  14  20
HETATM   20  C   UNL     1     -11.394  12.617  69.094  1.00  0.00    -0.339 C  
HETATM   21  C   UNL     1     -12.023  14.323  67.448  1.00  0.00    -0.426 C  
HETATM   22  C   UNL     1     -10.969  13.541  68.215  1.00  0.00    -0.280 C  
HETATM   23  C   UNL     1     -11.869  15.825  67.660  1.00  0.00     0.245 C  
HETATM   24  O   UNL     1     -12.189  16.188  69.005  1.00  0.00    -0.356 OA 
HETATM   25  C   UNL     1     -10.455  16.275  67.313  1.00  0.00    -0.300 C  
HETATM   26  H   UNL     1     -12.093  17.123  69.137  1.00  0.00     0.000 HD 
HETATM   27  C   UNL     1      -9.390  15.469  68.072  1.00  0.00    -0.193 C  
HETATM   28  C   UNL     1      -9.597  13.958  67.904  1.00  0.00    -0.227 C  
HETATM   29  O   UNL     1      -8.107  15.869  67.602  1.00  0.00    -0.135 OA 
HETATM   30  C   UNL     1      -8.638  13.135  67.467  1.00  0.00    -0.196 C  
HETATM   31  H   UNL     1      -7.448  15.370  68.071  1.00  0.00     0.000 HD 
ENDBRANCH  14  20
ENDBRANCH   5   6
ENDBRANCH   4   5
TORSDOF 3
ENDMDL
MODEL       67
REMARK 921   NORMALIZED FREE ENERGY PREDICTED BY IDOCK:   -4.89 KCAL/MOL
REMARK 922        TOTAL FREE ENERGY PREDICTED BY IDOCK:   -6.85 KCAL/MOL
REMARK 923 INTER-LIGAND FREE ENERGY PREDICTED BY IDOCK:   -6.10 KCAL/MOL
REMARK 924 INTRA-LIGAND FREE ENERGY PREDICTED BY IDOCK:   -0.75 KCAL/MOL
REMARK 927      BINDING AFFINITY PREDICTED BY RF-SCORE:    0.00 PKD
ROOT
HETATM    1  C   UNL     1     -13.154  14.162  71.555  1.00  0.00    -0.424 C  
HETATM    2  C   UNL     1     -12.671  15.578  71.241  1.00  0.00    -0.526 C  
HETATM    3  C   UNL     1     -12.014  16.191  72.484  1.00  0.00    -0.660 C  
HETATM    4  C   UNL     1     -11.645  15.617  70.101  1.00  0.00    -0.366 C  
ENDROOT
BRANCH   4   5
HETATM    5  C   UNL     1     -12.133  15.145  68.730  1.00  0.00    -0.199 C  
BRANCH   5   6
HETATM    6  C   UNL     1     -10.892  14.828  67.868  1.00  0.00    -0.269 C  
HETATM    7  C   UNL     1     -10.485  13.338  67.790  1.00  0.00    -0.242 C  
HETATM    8  C   UNL     1     -11.705  12.533  67.308  1.00  0.00    -0.431 C  
HETATM    9  C   UNL     1      -9.070  13.149  66.959  1.00  0.00    -0.231 C  
HETATM   10  C   UNL     1      -7.950  13.786  67.784  1.00  0.00    -0.170 C  
HETATM   11  C   UNL     1      -7.511  12.699  68.742  1.00  0.00    -0.044 C  
HETATM   12  C   UNL     1      -8.260  11.398  68.329  1.00  0.00    -0.150 C  
HETATM   13  C   UNL     1      -7.453  10.185  68.766  1.00  0.00    -0.086 C  
HETATM   14  C   UNL     1      -6.715  10.176  69.900  1.00  0.00    -0.110 C  
HETATM   15  C   UNL     1      -7.601   9.028  67.830  1.00  0.00    -0.093 C  
HETATM   16  C   UNL     1      -9.678  10.962  65.928  1.00  0.00    -0.269 C  
HETATM   17  C   UNL     1      -7.313   9.478  66.377  1.00  0.00    -0.093 C  
HETATM   18  C   UNL     1      -8.594  11.633  66.805  1.00  0.00    -0.180 C  
HETATM   19  C   UNL     1      -7.302  11.049  66.142  1.00  0.00    -0.060 C  
BRANCH  14  20
HETATM   20  C   UNL     1      -6.532   8.991  70.694  1.00  0.00    -0.056 C  
HETATM   21  C   UNL     1      -6.917   6.801  71.730  1.00  0.00    -0.071 C  
HETATM   22  C   UNL     1      -7.430   8.135  71.212  1.00  0.00    -0.074 C  
HETATM   23  C   UNL     1      -7.283   6.592  73.196  1.00  0.00    -0.077 C  
HETATM   24  O   UNL     1      -6.569   7.501  74.036  1.00  0.00    -0.078 OA 
HETATM   25  C   UNL     1      -8.784   6.748  73.402  1.00  0.00    -0.140 C  
HETATM   26  H   UNL     1      -6.797   7.371  74.949  1.00  0.00     0.000 HD 
HETATM   27  C   UNL     1      -9.306   8.087  72.858  1.00  0.00    -0.271 C  
HETATM   28  C   UNL     1      -8.874   8.314  71.404  1.00  0.00    -0.204 C  
HETATM   29  O   UNL     1     -10.724   8.098  72.983  1.00  0.00    -0.332 OA 
HETATM   30  C   UNL     1      -9.738   8.589  70.420  1.00  0.00    -0.193 C  
HETATM   31  H   UNL     1     -11.047   8.926  72.646  1.00  0.00     0.000 HD 
ENDBRANCH  14  20
ENDBRANCH   5   6
ENDBRANCH   4   5
TORSDOF 3
ENDMDL
MODEL       68
REMARK 921   NORMALIZED FREE ENERGY PREDICTED BY IDOCK:   -4.89 KCAL/MOL
REMARK 922        TOTAL FREE ENERGY PREDICTED BY IDOCK:   -6.85 KCAL/MOL
REMARK 923 INTER-LIGAND FREE ENERGY PREDICTED BY IDOCK:   -5.44 KCAL/MOL
REMARK 924 INTRA-LIGAND FREE ENERGY PREDICTED BY IDOCK:   -1.40 KCAL/MOL
REMARK 927      BINDING AFFINITY PREDICTED BY RF-SCORE:    0.00 PKD
ROOT
HETATM    1  C   UNL     1     -11.931  12.420  66.415  1.00  0.00    -0.346 C  
HETATM    2  C   UNL     1     -11.500  12.280  64.955  1.00  0.00    -0.386 C  
HETATM    3  C   UNL     1     -11.253  13.669  64.351  1.00  0.00    -0.382 C  
HETATM    4  C   UNL     1     -10.212  11.461  64.791  1.00  0.00    -0.338 C  
ENDROOT
BRANCH   4   5
HETATM    5  C   UNL     1     -10.274   9.999  65.237  1.00  0.00    -0.196 C  
BRANCH   5   6
HETATM    6  C   UNL     1      -8.913   9.639  65.869  1.00  0.00    -0.203 C  
HETATM    7  C   UNL     1      -8.528  10.427  67.142  1.00  0.00    -0.126 C  
HETATM    8  C   UNL     1      -9.666  10.267  68.166  1.00  0.00    -0.158 C  
HETATM    9  C   UNL     1      -6.998  10.050  67.638  1.00  0.00    -0.085 C  
HETATM   10  C   UNL     1      -6.019  10.569  66.583  1.00  0.00    -0.071 C  
HETATM   11  C   UNL     1      -5.769  12.012  66.967  1.00  0.00    -0.123 C  
HETATM   12  C   UNL     1      -6.463  12.245  68.341  1.00  0.00    -0.057 C  
HETATM   13  C   UNL     1      -5.764  13.376  69.079  1.00  0.00    -0.076 C  
HETATM   14  C   UNL     1      -5.227  14.438  68.436  1.00  0.00    -0.105 C  
HETATM   15  C   UNL     1      -5.777  13.189  70.562  1.00  0.00    -0.176 C  
HETATM   16  C   UNL     1      -7.468  10.261  70.078  1.00  0.00    -0.143 C  
HETATM   17  C   UNL     1      -5.241  11.783  70.927  1.00  0.00    -0.137 C  
HETATM   18  C   UNL     1      -6.532  10.799  68.968  1.00  0.00    -0.054 C  
HETATM   19  C   UNL     1      -5.160  10.753  69.719  1.00  0.00    -0.038 C  
BRANCH  14  20
HETATM   20  C   UNL     1      -5.203  15.758  69.009  1.00  0.00    -0.100 C  
HETATM   21  C   UNL     1      -5.890  17.799  70.183  1.00  0.00    -0.189 C  
HETATM   22  C   UNL     1      -6.203  16.612  69.285  1.00  0.00    -0.194 C  
HETATM   23  C   UNL     1      -6.216  19.121  69.497  1.00  0.00    -0.279 C  
HETATM   24  O   UNL     1      -5.326  19.366  68.407  1.00  0.00    -0.188 OA 
HETATM   25  C   UNL     1      -7.661  19.133  69.014  1.00  0.00    -0.316 C  
HETATM   26  H   UNL     1      -5.529  20.189  67.980  1.00  0.00     0.000 HD 
HETATM   27  C   UNL     1      -7.982  17.922  68.124  1.00  0.00    -0.265 C  
HETATM   28  C   UNL     1      -7.587  16.603  68.799  1.00  0.00    -0.227 C  
HETATM   29  O   UNL     1      -9.373  17.949  67.817  1.00  0.00    -0.256 OA 
HETATM   30  C   UNL     1      -8.440  15.587  68.969  1.00  0.00    -0.229 C  
HETATM   31  H   UNL     1      -9.571  17.200  67.267  1.00  0.00     0.000 HD 
ENDBRANCH  14  20
ENDBRANCH   5   6
ENDBRANCH   4   5
TORSDOF 3
ENDMDL
MODEL       69
REMARK 921   NORMALIZED FREE ENERGY PREDICTED BY IDOCK:   -4.87 KCAL/MOL
REMARK 922        TOTAL FREE ENERGY PREDICTED BY IDOCK:   -6.83 KCAL/MOL
REMARK 923 INTER-LIGAND FREE ENERGY PREDICTED BY IDOCK:   -5.66 KCAL/MOL
REMARK 924 INTRA-LIGAND FREE ENERGY PREDICTED BY IDOCK:   -1.18 KCAL/MOL
REMARK 927      BINDING AFFINITY PREDICTED BY RF-SCORE:    0.00 PKD
ROOT
HETATM    1  C   UNL     1     -10.893  15.073  65.061  1.00  0.00    -0.439 C  
HETATM    2  C   UNL     1     -11.369  13.764  65.689  1.00  0.00    -0.311 C  
HETATM    3  C   UNL     1     -12.553  14.036  66.626  1.00  0.00    -0.146 C  
HETATM    4  C   UNL     1     -11.824  12.734  64.646  1.00  0.00    -0.428 C  
ENDROOT
BRANCH   4   5
HETATM    5  C   UNL     1     -10.757  12.239  63.668  1.00  0.00    -0.513 C  
BRANCH   5   6
HETATM    6  C   UNL     1      -9.433  12.090  64.447  1.00  0.00     0.125 C  
HETATM    7  C   UNL     1      -9.291  10.809  65.302  1.00  0.00    -0.247 C  
HETATM    8  C   UNL     1      -9.527   9.594  64.387  1.00  0.00    -0.135 C  
HETATM    9  C   UNL     1      -7.899  10.836  66.190  1.00  0.00    -0.155 C  
HETATM   10  C   UNL     1      -8.023  11.951  67.229  1.00  0.00    -0.171 C  
HETATM   11  C   UNL     1      -8.736  11.309  68.400  1.00  0.00    -0.159 C  
HETATM   12  C   UNL     1      -8.846   9.787  68.088  1.00  0.00    -0.119 C  
HETATM   13  C   UNL     1      -8.936   9.005  69.389  1.00  0.00    -0.145 C  
HETATM   14  C   UNL     1      -9.569   9.490  70.483  1.00  0.00    -0.312 C  
HETATM   15  C   UNL     1      -8.289   7.661  69.299  1.00  0.00    -0.134 C  
HETATM   16  C   UNL     1      -7.475   8.382  66.060  1.00  0.00    -0.084 C  
HETATM   17  C   UNL     1      -6.845   7.800  68.755  1.00  0.00    -0.059 C  
HETATM   18  C   UNL     1      -7.659   9.532  67.079  1.00  0.00    -0.091 C  
HETATM   19  C   UNL     1      -6.505   9.199  68.083  1.00  0.00    -0.059 C  
BRANCH  14  20
HETATM   20  C   UNL     1     -10.270   8.642  71.409  1.00  0.00    -0.324 C  
HETATM   21  C   UNL     1     -10.854   7.391  73.437  1.00  0.00    -0.362 C  
HETATM   22  C   UNL     1      -9.823   7.930  72.458  1.00  0.00    -0.299 C  
HETATM   23  C   UNL     1     -10.756   5.876  73.574  1.00  0.00    -0.259 C  
HETATM   24  O   UNL     1     -11.163   5.225  72.369  1.00  0.00    -0.231 OA 
HETATM   25  C   UNL     1      -9.339   5.460  73.948  1.00  0.00    -0.133 C  
HETATM   26  H   UNL     1     -11.102   4.281  72.454  1.00  0.00     0.000 HD 
HETATM   27  C   UNL     1      -8.296   6.024  72.971  1.00  0.00    -0.116 C  
HETATM   28  C   UNL     1      -8.448   7.539  72.791  1.00  0.00    -0.155 C  
HETATM   29  O   UNL     1      -7.000   5.690  73.459  1.00  0.00    -0.082 OA 
HETATM   30  C   UNL     1      -7.443   8.401  72.977  1.00  0.00    -0.113 C  
HETATM   31  H   UNL     1      -6.355   6.038  72.854  1.00  0.00     0.000 HD 
ENDBRANCH  14  20
ENDBRANCH   5   6
ENDBRANCH   4   5
TORSDOF 3
ENDMDL
MODEL       70
REMARK 921   NORMALIZED FREE ENERGY PREDICTED BY IDOCK:   -4.85 KCAL/MOL
REMARK 922        TOTAL FREE ENERGY PREDICTED BY IDOCK:   -6.81 KCAL/MOL
REMARK 923 INTER-LIGAND FREE ENERGY PREDICTED BY IDOCK:   -5.77 KCAL/MOL
REMARK 924 INTRA-LIGAND FREE ENERGY PREDICTED BY IDOCK:   -1.03 KCAL/MOL
REMARK 927      BINDING AFFINITY PREDICTED BY RF-SCORE:    0.00 PKD
ROOT
HETATM    1  C   UNL     1     -11.612   8.884  72.076  1.00  0.00    -0.435 C  
HETATM    2  C   UNL     1     -12.515   7.678  72.331  1.00  0.00    -0.108 C  
HETATM    3  C   UNL     1     -13.767   7.769  71.449  1.00  0.00    -0.359 C  
HETATM    4  C   UNL     1     -11.824   6.342  72.025  1.00  0.00    -0.370 C  
ENDROOT
BRANCH   4   5
HETATM    5  C   UNL     1     -10.600   5.998  72.877  1.00  0.00    -0.262 C  
BRANCH   5   6
HETATM    6  C   UNL     1      -9.358   6.041  71.961  1.00  0.00    -0.158 C  
HETATM    7  C   UNL     1      -8.655   7.413  71.837  1.00  0.00    -0.122 C  
HETATM    8  C   UNL     1      -8.306   7.901  73.254  1.00  0.00    -0.248 C  
HETATM    9  C   UNL     1      -7.433   7.359  70.726  1.00  0.00    -0.078 C  
HETATM   10  C   UNL     1      -8.059   7.149  69.347  1.00  0.00    -0.130 C  
HETATM   11  C   UNL     1      -8.410   8.541  68.867  1.00  0.00    -0.118 C  
HETATM   12  C   UNL     1      -7.812   9.543  69.898  1.00  0.00    -0.140 C  
HETATM   13  C   UNL     1      -7.546  10.877  69.219  1.00  0.00    -0.113 C  
HETATM   14  C   UNL     1      -8.337  11.358  68.232  1.00  0.00    -0.152 C  
HETATM   15  C   UNL     1      -6.357  11.584  69.785  1.00  0.00    -0.140 C  
HETATM   16  C   UNL     1      -5.938   8.954  71.925  1.00  0.00    -0.069 C  
HETATM   17  C   UNL     1      -5.131  10.637  69.800  1.00  0.00    -0.038 C  
HETATM   18  C   UNL     1      -6.633   8.730  70.560  1.00  0.00    -0.042 C  
HETATM   19  C   UNL     1      -5.461   9.097  69.590  1.00  0.00    -0.034 C  
BRANCH  14  20
HETATM   20  C   UNL     1      -8.582  12.764  68.053  1.00  0.00    -0.186 C  
HETATM   21  C   UNL     1      -9.699  14.948  68.033  1.00  0.00    -0.212 C  
HETATM   22  C   UNL     1      -9.731  13.437  67.866  1.00  0.00    -0.226 C  
HETATM   23  C   UNL     1     -10.178  15.660  66.773  1.00  0.00    -0.276 C  
HETATM   24  O   UNL     1      -9.248  15.487  65.701  1.00  0.00    -0.334 OA 
HETATM   25  C   UNL     1     -11.557  15.158  66.363  1.00  0.00    -0.089 C  
HETATM   26  H   UNL     1      -9.547  15.931  64.916  1.00  0.00     0.000 HD 
HETATM   27  C   UNL     1     -11.594  13.629  66.216  1.00  0.00    -0.348 C  
HETATM   28  C   UNL     1     -11.046  12.926  67.464  1.00  0.00    -0.302 C  
HETATM   29  O   UNL     1     -12.937  13.237  65.950  1.00  0.00    -0.288 OA 
HETATM   30  C   UNL     1     -11.731  11.993  68.135  1.00  0.00    -0.398 C  
HETATM   31  H   UNL     1     -12.960  12.292  65.860  1.00  0.00     0.000 HD 
ENDBRANCH  14  20
ENDBRANCH   5   6
ENDBRANCH   4   5
TORSDOF 3
ENDMDL
MODEL       71
REMARK 921   NORMALIZED FREE ENERGY PREDICTED BY IDOCK:   -4.83 KCAL/MOL
REMARK 922        TOTAL FREE ENERGY PREDICTED BY IDOCK:   -6.78 KCAL/MOL
REMARK 923 INTER-LIGAND FREE ENERGY PREDICTED BY IDOCK:   -5.87 KCAL/MOL
REMARK 924 INTRA-LIGAND FREE ENERGY PREDICTED BY IDOCK:   -0.91 KCAL/MOL
REMARK 927      BINDING AFFINITY PREDICTED BY RF-SCORE:    0.00 PKD
ROOT
HETATM    1  C   UNL     1      -7.333  19.313  65.567  1.00  0.00    -0.079 C  
HETATM    2  C   UNL     1      -8.314  19.180  66.731  1.00  0.00    -0.305 C  
HETATM    3  C   UNL     1      -8.975  20.536  67.012  1.00  0.00    -0.380 C  
HETATM    4  C   UNL     1      -9.430  18.163  66.454  1.00  0.00    -0.284 C  
ENDROOT
BRANCH   4   5
HETATM    5  C   UNL     1      -8.993  16.712  66.250  1.00  0.00    -0.340 C  
BRANCH   5   6
HETATM    6  C   UNL     1     -10.213  15.806  66.522  1.00  0.00    -0.294 C  
HETATM    7  C   UNL     1      -9.967  14.603  67.461  1.00  0.00    -0.223 C  
HETATM    8  C   UNL     1      -9.377  15.136  68.779  1.00  0.00    -0.200 C  
HETATM    9  C   UNL     1     -11.305  13.639  67.559  1.00  0.00    -0.335 C  
HETATM   10  C   UNL     1     -11.521  12.991  66.191  1.00  0.00    -0.381 C  
HETATM   11  C   UNL     1     -10.650  11.753  66.210  1.00  0.00    -0.292 C  
HETATM   12  C   UNL     1     -10.091  11.611  67.656  1.00  0.00    -0.204 C  
HETATM   13  C   UNL     1      -9.772  10.151  67.938  1.00  0.00    -0.166 C  
HETATM   14  C   UNL     1      -9.315   9.311  66.981  1.00  0.00    -0.183 C  
HETATM   15  C   UNL     1      -9.989   9.781  69.371  1.00  0.00    -0.217 C  
HETATM   16  C   UNL     1     -10.976  13.001  69.947  1.00  0.00     0.393 C  
HETATM   17  C   UNL     1     -11.407  10.209  69.823  1.00  0.00    -0.312 C  
HETATM   18  C   UNL     1     -11.145  12.387  68.537  1.00  0.00    -0.296 C  
HETATM   19  C   UNL     1     -12.149  11.229  68.858  1.00  0.00    -0.292 C  
BRANCH  14  20
HETATM   20  C   UNL     1      -8.394   8.243  67.266  1.00  0.00    -0.124 C  
HETATM   21  C   UNL     1      -7.466   5.999  67.610  1.00  0.00    -0.078 C  
HETATM   22  C   UNL     1      -8.609   6.995  67.717  1.00  0.00    -0.122 C  
HETATM   23  C   UNL     1      -7.105   5.413  68.971  1.00  0.00    -0.057 C  
HETATM   24  O   UNL     1      -6.521   6.405  69.817  1.00  0.00    -0.043 OA 
HETATM   25  C   UNL     1      -8.334   4.807  69.637  1.00  0.00    -0.082 C  
HETATM   26  H   UNL     1      -6.296   6.041  70.665  1.00  0.00     0.000 HD 
HETATM   27  C   UNL     1      -9.496   5.808  69.725  1.00  0.00    -0.148 C  
HETATM   28  C   UNL     1      -9.804   6.439  68.361  1.00  0.00    -0.141 C  
HETATM   29  O   UNL     1     -10.634   5.129  70.248  1.00  0.00    -0.262 OA 
HETATM   30  C   UNL     1     -11.022   6.425  67.809  1.00  0.00    -0.425 C  
HETATM   31  H   UNL     1     -11.353   5.748  70.302  1.00  0.00     0.000 HD 
ENDBRANCH  14  20
ENDBRANCH   5   6
ENDBRANCH   4   5
TORSDOF 3
ENDMDL
MODEL       72
REMARK 921   NORMALIZED FREE ENERGY PREDICTED BY IDOCK:   -4.82 KCAL/MOL
REMARK 922        TOTAL FREE ENERGY PREDICTED BY IDOCK:   -6.77 KCAL/MOL
REMARK 923 INTER-LIGAND FREE ENERGY PREDICTED BY IDOCK:   -6.93 KCAL/MOL
REMARK 924 INTRA-LIGAND FREE ENERGY PREDICTED BY IDOCK:    0.16 KCAL/MOL
REMARK 927      BINDING AFFINITY PREDICTED BY RF-SCORE:    0.00 PKD
ROOT
HETATM    1  C   UNL     1      -6.623  20.953  67.380  1.00  0.00    -0.412 C  
HETATM    2  C   UNL     1      -7.622  20.716  66.248  1.00  0.00    -0.039 C  
HETATM    3  C   UNL     1      -6.900  20.124  65.031  1.00  0.00    -0.270 C  
HETATM    4  C   UNL     1      -8.749  19.751  66.640  1.00  0.00    -0.406 C  
ENDROOT
BRANCH   4   5
HETATM    5  C   UNL     1      -9.669  20.203  67.776  1.00  0.00    -0.529 C  
BRANCH   5   6
HETATM    6  C   UNL     1     -10.189  18.941  68.496  1.00  0.00    -0.407 C  
HETATM    7  C   UNL     1      -9.486  17.614  68.130  1.00  0.00    -0.286 C  
HETATM    8  C   UNL     1      -7.975  17.793  68.365  1.00  0.00    -0.293 C  
HETATM    9  C   UNL     1     -10.223  16.327  68.858  1.00  0.00    -0.256 C  
HETATM   10  C   UNL     1     -11.617  16.176  68.248  1.00  0.00    -0.181 C  
HETATM   11  C   UNL     1     -11.406  15.332  67.009  1.00  0.00    -0.230 C  
HETATM   12  C   UNL     1      -9.923  14.857  67.028  1.00  0.00    -0.240 C  
HETATM   13  C   UNL     1      -9.793  13.559  66.248  1.00  0.00    -0.306 C  
HETATM   14  C   UNL     1     -10.545  13.291  65.156  1.00  0.00    -0.342 C  
HETATM   15  C   UNL     1      -8.738  12.657  66.804  1.00  0.00    -0.135 C  
HETATM   16  C   UNL     1      -8.135  15.010  69.206  1.00  0.00    -0.178 C  
HETATM   17  C   UNL     1      -8.957  12.452  68.323  1.00  0.00    -0.178 C  
HETATM   18  C   UNL     1      -9.537  14.918  68.557  1.00  0.00    -0.215 C  
HETATM   19  C   UNL     1      -9.957  13.479  69.009  1.00  0.00     0.122 C  
BRANCH  14  20
HETATM   20  C   UNL     1     -10.051  12.519  64.047  1.00  0.00    -0.316 C  
HETATM   21  C   UNL     1      -9.599  10.638  62.538  1.00  0.00    -0.246 C  
HETATM   22  C   UNL     1      -9.811  11.200  63.935  1.00  0.00    -0.354 C  
HETATM   23  C   UNL     1      -8.253   9.933  62.417  1.00  0.00    -0.133 C  
HETATM   24  O   UNL     1      -7.175  10.867  62.499  1.00  0.00    -0.332 OA 
HETATM   25  C   UNL     1      -8.109   8.863  63.493  1.00  0.00    -0.168 C  
HETATM   26  H   UNL     1      -6.337  10.427  62.424  1.00  0.00     0.000 HD 
HETATM   27  C   UNL     1      -8.345   9.428  64.903  1.00  0.00    -0.150 C  
HETATM   28  C   UNL     1      -9.671  10.193  64.992  1.00  0.00    -0.384 C  
HETATM   29  O   UNL     1      -8.310   8.347  65.829  1.00  0.00    -0.128 OA 
HETATM   30  C   UNL     1     -10.611   9.920  65.904  1.00  0.00     0.058 C  
HETATM   31  H   UNL     1      -8.456   8.696  66.701  1.00  0.00     0.000 HD 
ENDBRANCH  14  20
ENDBRANCH   5   6
ENDBRANCH   4   5
TORSDOF 3
ENDMDL
MODEL       73
REMARK 921   NORMALIZED FREE ENERGY PREDICTED BY IDOCK:   -4.75 KCAL/MOL
REMARK 922        TOTAL FREE ENERGY PREDICTED BY IDOCK:   -6.69 KCAL/MOL
REMARK 923 INTER-LIGAND FREE ENERGY PREDICTED BY IDOCK:   -5.81 KCAL/MOL
REMARK 924 INTRA-LIGAND FREE ENERGY PREDICTED BY IDOCK:   -0.88 KCAL/MOL
REMARK 927      BINDING AFFINITY PREDICTED BY RF-SCORE:    0.00 PKD
ROOT
HETATM    1  C   UNL     1     -11.505  14.702  64.222  1.00  0.00    -0.174 C  
HETATM    2  C   UNL     1     -11.593  13.491  65.151  1.00  0.00    -0.333 C  
HETATM    3  C   UNL     1     -12.645  13.746  66.239  1.00  0.00    -0.372 C  
HETATM    4  C   UNL     1     -11.983  12.203  64.414  1.00  0.00    -0.443 C  
ENDROOT
BRANCH   4   5
HETATM    5  C   UNL     1     -11.004  11.705  63.348  1.00  0.00    -0.442 C  
BRANCH   5   6
HETATM    6  C   UNL     1      -9.590  11.708  63.966  1.00  0.00    -0.158 C  
HETATM    7  C   UNL     1      -9.055  10.337  64.439  1.00  0.00    -0.275 C  
HETATM    8  C   UNL     1      -9.132   9.358  63.252  1.00  0.00    -0.059 C  
HETATM    9  C   UNL     1      -7.599  10.495  65.203  1.00  0.00    -0.046 C  
HETATM   10  C   UNL     1      -7.832  11.260  66.507  1.00  0.00    -0.133 C  
HETATM   11  C   UNL     1      -8.224  10.197  67.512  1.00  0.00    -0.114 C  
HETATM   12  C   UNL     1      -8.031   8.818  66.816  1.00  0.00    -0.097 C  
HETATM   13  C   UNL     1      -7.773   7.749  67.866  1.00  0.00    -0.122 C  
HETATM   14  C   UNL     1      -8.349   7.782  69.090  1.00  0.00    -0.134 C  
HETATM   15  C   UNL     1      -6.859   6.671  67.377  1.00  0.00    -0.073 C  
HETATM   16  C   UNL     1      -6.659   8.330  64.398  1.00  0.00    -0.066 C  
HETATM   17  C   UNL     1      -5.567   7.293  66.791  1.00  0.00    -0.023 C  
HETATM   18  C   UNL     1      -6.960   9.118  65.696  1.00  0.00    -0.081 C  
HETATM   19  C   UNL     1      -5.639   8.852  66.493  1.00  0.00    -0.046 C  
BRANCH  14  20
HETATM   20  C   UNL     1      -8.715   6.588  69.804  1.00  0.00    -0.143 C  
HETATM   21  C   UNL     1     -10.054   4.860  70.918  1.00  0.00    -0.292 C  
HETATM   22  C   UNL     1      -9.793   6.315  70.561  1.00  0.00    -0.207 C  
HETATM   23  C   UNL     1     -10.117   4.657  72.428  1.00  0.00    -0.182 C  
HETATM   24  O   UNL     1      -8.834   4.855  73.025  1.00  0.00    -0.113 OA 
HETATM   25  C   UNL     1     -11.143   5.594  73.053  1.00  0.00    -0.327 C  
HETATM   26  H   UNL     1      -8.873   4.729  73.966  1.00  0.00     0.000 HD 
HETATM   27  C   UNL     1     -10.891   7.062  72.674  1.00  0.00    -0.270 C  
HETATM   28  C   UNL     1     -10.762   7.241  71.157  1.00  0.00    -0.244 C  
HETATM   29  O   UNL     1     -11.955   7.849  73.199  1.00  0.00    -0.662 OA 
HETATM   30  C   UNL     1     -11.502   8.110  70.459  1.00  0.00    -0.179 C  
HETATM   31  H   UNL     1     -11.799   8.756  72.964  1.00  0.00     0.000 HD 
ENDBRANCH  14  20
ENDBRANCH   5   6
ENDBRANCH   4   5
TORSDOF 3
ENDMDL
MODEL       74
REMARK 921   NORMALIZED FREE ENERGY PREDICTED BY IDOCK:   -4.73 KCAL/MOL
REMARK 922        TOTAL FREE ENERGY PREDICTED BY IDOCK:   -6.66 KCAL/MOL
REMARK 923 INTER-LIGAND FREE ENERGY PREDICTED BY IDOCK:   -6.17 KCAL/MOL
REMARK 924 INTRA-LIGAND FREE ENERGY PREDICTED BY IDOCK:   -0.49 KCAL/MOL
REMARK 927      BINDING AFFINITY PREDICTED BY RF-SCORE:    0.00 PKD
ROOT
HETATM    1  C   UNL     1      -8.881   2.549  66.423  1.00  0.00    -0.136 C  
HETATM    2  C   UNL     1      -7.650   3.074  65.683  1.00  0.00    -0.074 C  
HETATM    3  C   UNL     1      -6.837   1.899  65.126  1.00  0.00    -0.038 C  
HETATM    4  C   UNL     1      -8.010   3.995  64.509  1.00  0.00    -0.086 C  
ENDROOT
BRANCH   4   5
HETATM    5  C   UNL     1      -8.738   5.293  64.861  1.00  0.00    -0.122 C  
BRANCH   5   6
HETATM    6  C   UNL     1      -8.464   5.603  66.348  1.00  0.00    -0.121 C  
HETATM    7  C   UNL     1      -9.525   6.468  67.066  1.00  0.00    -0.161 C  
HETATM    8  C   UNL     1     -10.894   5.787  66.894  1.00  0.00    -0.337 C  
HETATM    9  C   UNL     1      -9.048   6.843  68.603  1.00  0.00    -0.131 C  
HETATM   10  C   UNL     1      -7.834   7.768  68.507  1.00  0.00    -0.120 C  
HETATM   11  C   UNL     1      -8.418   9.158  68.368  1.00  0.00    -0.128 C  
HETATM   12  C   UNL     1      -9.957   9.028  68.572  1.00  0.00    -0.193 C  
HETATM   13  C   UNL     1     -10.517  10.347  69.080  1.00  0.00    -0.240 C  
HETATM   14  C   UNL     1     -10.012  11.543  68.698  1.00  0.00    -0.207 C  
HETATM   15  C   UNL     1     -11.682  10.162  69.998  1.00  0.00    -0.294 C  
HETATM   16  C   UNL     1     -11.336   6.787  69.593  1.00  0.00    -0.326 C  
HETATM   17  C   UNL     1     -11.319   9.164  71.125  1.00  0.00    -0.392 C  
HETATM   18  C   UNL     1     -10.105   7.710  69.427  1.00  0.00    -0.196 C  
HETATM   19  C   UNL     1     -10.007   8.303  70.873  1.00  0.00    -0.223 C  
BRANCH  14  20
HETATM   20  C   UNL     1     -10.832  12.716  68.551  1.00  0.00    -0.279 C  
HETATM   21  C   UNL     1     -11.660  14.898  67.793  1.00  0.00    -0.358 C  
HETATM   22  C   UNL     1     -10.517  13.962  68.155  1.00  0.00    -0.246 C  
HETATM   23  C   UNL     1     -11.626  16.172  68.630  1.00  0.00    -0.283 C  
HETATM   24  O   UNL     1     -11.929  15.894  69.998  1.00  0.00    -0.342 OA 
HETATM   25  C   UNL     1     -10.268  16.854  68.515  1.00  0.00    -0.310 C  
HETATM   26  H   UNL     1     -11.908  16.687  70.520  1.00  0.00     0.000 HD 
HETATM   27  C   UNL     1      -9.113  15.901  68.860  1.00  0.00    -0.233 C  
HETATM   28  C   UNL     1      -9.197  14.596  68.060  1.00  0.00    -0.197 C  
HETATM   29  O   UNL     1      -7.885  16.580  68.614  1.00  0.00    -0.201 OA 
HETATM   30  C   UNL     1      -8.188  14.130  67.316  1.00  0.00    -0.200 C  
HETATM   31  H   UNL     1      -7.171  15.990  68.827  1.00  0.00     0.000 HD 
ENDBRANCH  14  20
ENDBRANCH   5   6
ENDBRANCH   4   5
TORSDOF 3
ENDMDL
MODEL       75
REMARK 921   NORMALIZED FREE ENERGY PREDICTED BY IDOCK:   -4.72 KCAL/MOL
REMARK 922        TOTAL FREE ENERGY PREDICTED BY IDOCK:   -6.66 KCAL/MOL
REMARK 923 INTER-LIGAND FREE ENERGY PREDICTED BY IDOCK:   -5.82 KCAL/MOL
REMARK 924 INTRA-LIGAND FREE ENERGY PREDICTED BY IDOCK:   -0.83 KCAL/MOL
REMARK 927      BINDING AFFINITY PREDICTED BY RF-SCORE:    0.00 PKD
ROOT
HETATM    1  C   UNL     1     -12.713  14.059  65.512  1.00  0.00    -0.517 C  
HETATM    2  C   UNL     1     -12.373  12.716  64.867  1.00  0.00    -0.563 C  
HETATM    3  C   UNL     1     -12.033  12.921  63.386  1.00  0.00    -0.612 C  
HETATM    4  C   UNL     1     -11.175  12.024  65.532  1.00  0.00    -0.372 C  
ENDROOT
BRANCH   4   5
HETATM    5  C   UNL     1     -11.346  11.629  67.000  1.00  0.00    -0.373 C  
BRANCH   5   6
HETATM    6  C   UNL     1      -9.960  11.220  67.545  1.00  0.00    -0.203 C  
HETATM    7  C   UNL     1      -9.770   9.716  67.849  1.00  0.00    -0.169 C  
HETATM    8  C   UNL     1     -10.112   8.923  66.575  1.00  0.00    -0.356 C  
HETATM    9  C   UNL     1      -8.303   9.431  68.554  1.00  0.00    -0.118 C  
HETATM   10  C   UNL     1      -8.311  10.080  69.939  1.00  0.00    -0.169 C  
HETATM   11  C   UNL     1      -8.930   9.041  70.848  1.00  0.00    -0.300 C  
HETATM   12  C   UNL     1      -9.099   7.741  70.007  1.00  0.00    -0.150 C  
HETATM   13  C   UNL     1      -9.090   6.532  70.929  1.00  0.00    -0.154 C  
HETATM   14  C   UNL     1      -9.612   6.569  72.177  1.00  0.00    -0.151 C  
HETATM   15  C   UNL     1      -8.481   5.326  70.290  1.00  0.00    -0.111 C  
HETATM   16  C   UNL     1      -7.944   7.206  67.488  1.00  0.00    -0.113 C  
HETATM   17  C   UNL     1      -7.089   5.676  69.707  1.00  0.00    -0.064 C  
HETATM   18  C   UNL     1      -8.013   7.894  68.872  1.00  0.00    -0.123 C  
HETATM   19  C   UNL     1      -6.781   7.229  69.572  1.00  0.00    -0.045 C  
BRANCH  14  20
HETATM   20  C   UNL     1     -10.245   5.428  72.783  1.00  0.00    -0.222 C  
HETATM   21  C   UNL     1     -10.710   3.556  74.298  1.00  0.00    -0.215 C  
HETATM   22  C   UNL     1      -9.734   4.439  73.537  1.00  0.00    -0.146 C  
HETATM   23  C   UNL     1     -10.537   2.086  73.931  1.00  0.00    -0.137 C  
HETATM   24  O   UNL     1     -10.947   1.842  72.584  1.00  0.00    -0.120 OA 
HETATM   25  C   UNL     1      -9.092   1.648  74.132  1.00  0.00    -0.066 C  
HETATM   26  H   UNL     1     -10.839   0.927  72.355  1.00  0.00     0.000 HD 
HETATM   27  C   UNL     1      -8.105   2.555  73.380  1.00  0.00    -0.059 C  
HETATM   28  C   UNL     1      -8.334   4.036  73.707  1.00  0.00    -0.092 C  
HETATM   29  O   UNL     1      -6.781   2.151  73.716  1.00  0.00    -0.020 OA 
HETATM   30  C   UNL     1      -7.365   4.843  74.152  1.00  0.00    -0.082 C  
HETATM   31  H   UNL     1      -6.171   2.712  73.251  1.00  0.00     0.000 HD 
ENDBRANCH  14  20
ENDBRANCH   5   6
ENDBRANCH   4   5
TORSDOF 3
ENDMDL
MODEL       76
REMARK 921   NORMALIZED FREE ENERGY PREDICTED BY IDOCK:   -4.71 KCAL/MOL
REMARK 922        TOTAL FREE ENERGY PREDICTED BY IDOCK:   -6.64 KCAL/MOL
REMARK 923 INTER-LIGAND FREE ENERGY PREDICTED BY IDOCK:   -5.56 KCAL/MOL
REMARK 924 INTRA-LIGAND FREE ENERGY PREDICTED BY IDOCK:   -1.08 KCAL/MOL
REMARK 927      BINDING AFFINITY PREDICTED BY RF-SCORE:    0.00 PKD
ROOT
HETATM    1  C   UNL     1     -11.100  14.490  65.077  1.00  0.00    -0.393 C  
HETATM    2  C   UNL     1     -11.557  13.139  65.627  1.00  0.00    -0.371 C  
HETATM    3  C   UNL     1     -12.367  12.390  64.561  1.00  0.00    -0.519 C  
HETATM    4  C   UNL     1     -10.385  12.240  66.044  1.00  0.00    -0.273 C  
ENDROOT
BRANCH   4   5
HETATM    5  C   UNL     1      -9.502  12.755  67.182  1.00  0.00    -0.223 C  
BRANCH   5   6
HETATM    6  C   UNL     1      -9.855  11.956  68.455  1.00  0.00    -0.187 C  
HETATM    7  C   UNL     1      -9.039  10.664  68.692  1.00  0.00    -0.170 C  
HETATM    8  C   UNL     1      -7.545  11.032  68.674  1.00  0.00    -0.124 C  
HETATM    9  C   UNL     1      -9.604   9.833  70.002  1.00  0.00    -0.282 C  
HETATM   10  C   UNL     1     -11.005   9.319  69.667  1.00  0.00    -0.192 C  
HETATM   11  C   UNL     1     -10.772   8.003  68.956  1.00  0.00    -0.107 C  
HETATM   12  C   UNL     1      -9.249   7.693  69.057  1.00  0.00    -0.140 C  
HETATM   13  C   UNL     1      -9.027   6.192  68.970  1.00  0.00    -0.125 C  
HETATM   14  C   UNL     1      -9.802   5.388  68.205  1.00  0.00    -0.196 C  
HETATM   15  C   UNL     1      -7.859   5.734  69.783  1.00  0.00    -0.095 C  
HETATM   16  C   UNL     1      -7.378   8.980  70.734  1.00  0.00    -0.109 C  
HETATM   17  C   UNL     1      -7.980   6.263  71.234  1.00  0.00    -0.116 C  
HETATM   18  C   UNL     1      -8.794   8.499  70.336  1.00  0.00    -0.157 C  
HETATM   19  C   UNL     1      -9.043   7.425  71.447  1.00  0.00    -0.146 C  
BRANCH  14  20
HETATM   20  C   UNL     1      -9.288   4.216  67.549  1.00  0.00    -0.204 C  
HETATM   21  C   UNL     1      -7.967   2.760  66.081  1.00  0.00    -0.082 C  
HETATM   22  C   UNL     1      -8.685   4.072  66.355  1.00  0.00    -0.116 C  
HETATM   23  C   UNL     1      -8.507   2.079  64.828  1.00  0.00    -0.088 C  
HETATM   24  O   UNL     1      -9.844   1.618  65.032  1.00  0.00    -0.334 OA 
HETATM   25  C   UNL     1      -8.449   3.025  63.635  1.00  0.00    -0.086 C  
HETATM   26  H   UNL     1     -10.181   1.193  64.251  1.00  0.00     0.000 HD 
HETATM   27  C   UNL     1      -9.156   4.359  63.921  1.00  0.00    -0.138 C  
HETATM   28  C   UNL     1      -8.651   5.000  65.220  1.00  0.00    -0.145 C  
HETATM   29  O   UNL     1      -8.952   5.221  62.806  1.00  0.00    -0.307 OA 
HETATM   30  C   UNL     1      -8.180   6.251  65.281  1.00  0.00    -0.138 C  
HETATM   31  H   UNL     1      -9.389   6.046  62.984  1.00  0.00     0.000 HD 
ENDBRANCH  14  20
ENDBRANCH   5   6
ENDBRANCH   4   5
TORSDOF 3
ENDMDL
MODEL       77
REMARK 921   NORMALIZED FREE ENERGY PREDICTED BY IDOCK:   -4.69 KCAL/MOL
REMARK 922        TOTAL FREE ENERGY PREDICTED BY IDOCK:   -6.62 KCAL/MOL
REMARK 923 INTER-LIGAND FREE ENERGY PREDICTED BY IDOCK:   -5.62 KCAL/MOL
REMARK 924 INTRA-LIGAND FREE ENERGY PREDICTED BY IDOCK:   -1.00 KCAL/MOL
REMARK 927      BINDING AFFINITY PREDICTED BY RF-SCORE:    0.00 PKD
ROOT
HETATM    1  C   UNL     1      -9.665  15.030  68.814  1.00  0.00    -0.227 C  
HETATM    2  C   UNL     1     -10.486  15.194  67.536  1.00  0.00    -0.258 C  
HETATM    3  C   UNL     1     -10.275  16.599  66.958  1.00  0.00    -0.290 C  
HETATM    4  C   UNL     1     -10.106  14.178  66.450  1.00  0.00    -0.299 C  
ENDROOT
BRANCH   4   5
HETATM    5  C   UNL     1     -10.342  12.704  66.783  1.00  0.00    -0.246 C  
BRANCH   5   6
HETATM    6  C   UNL     1      -9.039  11.934  66.477  1.00  0.00    -0.211 C  
HETATM    7  C   UNL     1      -9.123  10.394  66.582  1.00  0.00    -0.169 C  
HETATM    8  C   UNL     1     -10.268   9.914  65.672  1.00  0.00    -0.229 C  
HETATM    9  C   UNL     1      -7.639   9.700  66.369  1.00  0.00    -0.101 C  
HETATM   10  C   UNL     1      -6.759  10.095  67.556  1.00  0.00    -0.072 C  
HETATM   11  C   UNL     1      -7.067   9.066  68.623  1.00  0.00    -0.071 C  
HETATM   12  C   UNL     1      -7.981   7.989  67.967  1.00  0.00    -0.128 C  
HETATM   13  C   UNL     1      -7.816   6.666  68.698  1.00  0.00    -0.114 C  
HETATM   14  C   UNL     1      -7.587   6.598  70.030  1.00  0.00    -0.100 C  
HETATM   15  C   UNL     1      -7.967   5.486  67.793  1.00  0.00    -0.101 C  
HETATM   16  C   UNL     1      -8.483   7.660  65.209  1.00  0.00    -0.090 C  
HETATM   17  C   UNL     1      -7.042   5.637  66.561  1.00  0.00    -0.072 C  
HETATM   18  C   UNL     1      -7.642   8.105  66.430  1.00  0.00    -0.091 C  
HETATM   19  C   UNL     1      -6.452   7.094  66.329  1.00  0.00    -0.051 C  
BRANCH  14  20
HETATM   20  C   UNL     1      -8.090   5.526  70.847  1.00  0.00    -0.114 C  
HETATM   21  C   UNL     1      -9.582   3.826  71.797  1.00  0.00    -0.226 C  
HETATM   22  C   UNL     1      -9.349   5.200  71.188  1.00  0.00    -0.194 C  
HETATM   23  C   UNL     1     -10.243   3.927  73.168  1.00  0.00    -0.156 C  
HETATM   24  O   UNL     1      -9.350   4.500  74.126  1.00  0.00    -0.112 OA 
HETATM   25  C   UNL     1     -11.527   4.744  73.086  1.00  0.00    -0.348 C  
HETATM   26  H   UNL     1      -9.762   4.562  74.980  1.00  0.00     0.000 HD 
HETATM   27  C   UNL     1     -11.294   6.123  72.450  1.00  0.00    -0.296 C  
HETATM   28  C   UNL     1     -10.569   6.011  71.104  1.00  0.00    -0.303 C  
HETATM   29  O   UNL     1     -12.556   6.767  72.305  1.00  0.00    -0.527 OA 
HETATM   30  C   UNL     1     -11.040   6.551  69.974  1.00  0.00    -0.422 C  
HETATM   31  H   UNL     1     -12.412   7.620  71.912  1.00  0.00     0.000 HD 
ENDBRANCH  14  20
ENDBRANCH   5   6
ENDBRANCH   4   5
TORSDOF 3
ENDMDL
MODEL       78
REMARK 921   NORMALIZED FREE ENERGY PREDICTED BY IDOCK:   -4.67 KCAL/MOL
REMARK 922        TOTAL FREE ENERGY PREDICTED BY IDOCK:   -6.59 KCAL/MOL
REMARK 923 INTER-LIGAND FREE ENERGY PREDICTED BY IDOCK:   -5.70 KCAL/MOL
REMARK 924 INTRA-LIGAND FREE ENERGY PREDICTED BY IDOCK:   -0.89 KCAL/MOL
REMARK 927      BINDING AFFINITY PREDICTED BY RF-SCORE:    0.00 PKD
ROOT
HETATM    1  C   UNL     1      -7.651   2.280  64.840  1.00  0.00    -0.068 C  
HETATM    2  C   UNL     1      -8.507   3.165  63.935  1.00  0.00    -0.090 C  
HETATM    3  C   UNL     1      -9.079   2.331  62.781  1.00  0.00    -0.087 C  
HETATM    4  C   UNL     1      -9.686   3.810  64.676  1.00  0.00    -0.183 C  
ENDROOT
BRANCH   4   5
HETATM    5  C   UNL     1      -9.332   4.775  65.809  1.00  0.00    -0.163 C  
BRANCH   5   6
HETATM    6  C   UNL     1      -8.488   5.920  65.209  1.00  0.00    -0.144 C  
HETATM    7  C   UNL     1      -8.227   7.128  66.139  1.00  0.00    -0.128 C  
HETATM    8  C   UNL     1      -7.590   6.602  67.438  1.00  0.00    -0.104 C  
HETATM    9  C   UNL     1      -7.437   8.338  65.338  1.00  0.00    -0.085 C  
HETATM   10  C   UNL     1      -8.386   8.898  64.277  1.00  0.00    -0.176 C  
HETATM   11  C   UNL     1      -9.206   9.941  65.006  1.00  0.00    -0.295 C  
HETATM   12  C   UNL     1      -8.591  10.092  66.428  1.00  0.00    -0.137 C  
HETATM   13  C   UNL     1      -8.894  11.481  66.969  1.00  0.00    -0.173 C  
HETATM   14  C   UNL     1     -10.046  12.132  66.689  1.00  0.00    -0.218 C  
HETATM   15  C   UNL     1      -7.806  12.005  67.851  1.00  0.00    -0.144 C  
HETATM   16  C   UNL     1      -6.097   9.099  67.298  1.00  0.00    -0.057 C  
HETATM   17  C   UNL     1      -6.439  11.901  67.130  1.00  0.00    -0.146 C  
HETATM   18  C   UNL     1      -7.100   9.613  66.237  1.00  0.00    -0.093 C  
HETATM   19  C   UNL     1      -6.418  10.966  65.846  1.00  0.00    -0.056 C  
BRANCH  14  20
HETATM   20  C   UNL     1     -10.680  13.021  67.626  1.00  0.00    -0.239 C  
HETATM   21  C   UNL     1     -11.845  14.961  68.572  1.00  0.00    -0.325 C  
HETATM   22  C   UNL     1     -10.855  14.353  67.591  1.00  0.00    -0.276 C  
HETATM   23  C   UNL     1     -11.185  16.021  69.447  1.00  0.00    -0.349 C  
HETATM   24  O   UNL     1     -10.243  15.431  70.345  1.00  0.00    -0.449 OA 
HETATM   25  C   UNL     1     -10.506  17.080  68.588  1.00  0.00    -0.363 C  
HETATM   26  H   UNL     1      -9.832  16.092  70.890  1.00  0.00     0.000 HD 
HETATM   27  C   UNL     1      -9.522  16.464  67.582  1.00  0.00    -0.225 C  
HETATM   28  C   UNL     1     -10.181  15.352  66.755  1.00  0.00    -0.273 C  
HETATM   29  O   UNL     1      -9.026  17.504  66.746  1.00  0.00    -0.240 OA 
HETATM   30  C   UNL     1     -10.180  15.341  65.417  1.00  0.00    -0.414 C  
HETATM   31  H   UNL     1      -8.418  17.122  66.123  1.00  0.00     0.000 HD 
ENDBRANCH  14  20
ENDBRANCH   5   6
ENDBRANCH   4   5
TORSDOF 3
ENDMDL
MODEL       79
REMARK 921   NORMALIZED FREE ENERGY PREDICTED BY IDOCK:   -4.66 KCAL/MOL
REMARK 922        TOTAL FREE ENERGY PREDICTED BY IDOCK:   -6.58 KCAL/MOL
REMARK 923 INTER-LIGAND FREE ENERGY PREDICTED BY IDOCK:   -5.89 KCAL/MOL
REMARK 924 INTRA-LIGAND FREE ENERGY PREDICTED BY IDOCK:   -0.69 KCAL/MOL
REMARK 927      BINDING AFFINITY PREDICTED BY RF-SCORE:    0.00 PKD
ROOT
HETATM    1  C   UNL     1      -5.713  19.345  67.027  1.00  0.00    -0.174 C  
HETATM    2  C   UNL     1      -7.206  19.302  67.350  1.00  0.00    -0.234 C  
HETATM    3  C   UNL     1      -7.777  20.726  67.359  1.00  0.00    -0.323 C  
HETATM    4  C   UNL     1      -8.012  18.481  66.334  1.00  0.00    -0.291 C  
ENDROOT
BRANCH   4   5
HETATM    5  C   UNL     1      -7.672  16.992  66.240  1.00  0.00    -0.346 C  
BRANCH   5   6
HETATM    6  C   UNL     1      -8.998  16.210  66.121  1.00  0.00    -0.372 C  
HETATM    7  C   UNL     1      -9.244  15.127  67.196  1.00  0.00    -0.226 C  
HETATM    8  C   UNL     1      -9.123  15.790  68.580  1.00  0.00    -0.204 C  
HETATM    9  C   UNL     1     -10.621  14.273  66.878  1.00  0.00    -0.273 C  
HETATM   10  C   UNL     1     -10.391  13.465  65.600  1.00  0.00    -0.295 C  
HETATM   11  C   UNL     1      -9.727  12.187  66.066  1.00  0.00    -0.258 C  
HETATM   12  C   UNL     1      -9.754  12.201  67.622  1.00  0.00    -0.188 C  
HETATM   13  C   UNL     1      -9.721  10.773  68.145  1.00  0.00    -0.169 C  
HETATM   14  C   UNL     1      -9.039   9.787  67.517  1.00  0.00    -0.142 C  
HETATM   15  C   UNL     1     -10.484  10.609  69.420  1.00  0.00    -0.252 C  
HETATM   16  C   UNL     1     -11.259  13.933  69.265  1.00  0.00    -0.296 C  
HETATM   17  C   UNL     1     -11.914  11.182  69.262  1.00  0.00    -0.421 C  
HETATM   18  C   UNL     1     -10.966  13.152  67.962  1.00  0.00    -0.270 C  
HETATM   19  C   UNL     1     -12.137  12.113  67.994  1.00  0.00    -0.043 C  
BRANCH  14  20
HETATM   20  C   UNL     1      -8.407   8.709  68.230  1.00  0.00    -0.127 C  
HETATM   21  C   UNL     1      -7.146   6.661  68.713  1.00  0.00    -0.082 C  
HETATM   22  C   UNL     1      -8.100   7.460  67.839  1.00  0.00    -0.119 C  
HETATM   23  C   UNL     1      -7.774   5.350  69.172  1.00  0.00    -0.089 C  
HETATM   24  O   UNL     1      -8.844   5.587  70.088  1.00  0.00    -0.131 OA 
HETATM   25  C   UNL     1      -8.268   4.544  67.977  1.00  0.00    -0.094 C  
HETATM   26  H   UNL     1      -9.235   4.770  70.374  1.00  0.00     0.000 HD 
HETATM   27  C   UNL     1      -9.215   5.359  67.083  1.00  0.00    -0.111 C  
HETATM   28  C   UNL     1      -8.598   6.705  66.684  1.00  0.00    -0.123 C  
HETATM   29  O   UNL     1      -9.533   4.576  65.936  1.00  0.00    -0.145 OA 
HETATM   30  C   UNL     1      -8.482   7.106  65.413  1.00  0.00    -0.090 C  
HETATM   31  H   UNL     1     -10.118   5.081  65.383  1.00  0.00     0.000 HD 
ENDBRANCH  14  20
ENDBRANCH   5   6
ENDBRANCH   4   5
TORSDOF 3
ENDMDL
MODEL       80
REMARK 921   NORMALIZED FREE ENERGY PREDICTED BY IDOCK:   -4.63 KCAL/MOL
REMARK 922        TOTAL FREE ENERGY PREDICTED BY IDOCK:   -6.55 KCAL/MOL
REMARK 923 INTER-LIGAND FREE ENERGY PREDICTED BY IDOCK:   -5.36 KCAL/MOL
REMARK 924 INTRA-LIGAND FREE ENERGY PREDICTED BY IDOCK:   -1.18 KCAL/MOL
REMARK 927      BINDING AFFINITY PREDICTED BY RF-SCORE:    0.00 PKD
ROOT
HETATM    1  C   UNL     1      -9.581   3.908  65.262  1.00  0.00    -0.185 C  
HETATM    2  C   UNL     1      -8.197   4.468  64.936  1.00  0.00    -0.107 C  
HETATM    3  C   UNL     1      -8.329   5.898  64.395  1.00  0.00    -0.048 C  
HETATM    4  C   UNL     1      -7.270   4.513  66.158  1.00  0.00    -0.076 C  
ENDROOT
BRANCH   4   5
HETATM    5  C   UNL     1      -6.917   3.167  66.794  1.00  0.00    -0.054 C  
BRANCH   5   6
HETATM    6  C   UNL     1      -6.803   3.379  68.319  1.00  0.00    -0.049 C  
HETATM    7  C   UNL     1      -8.064   3.932  69.022  1.00  0.00    -0.068 C  
HETATM    8  C   UNL     1      -9.245   3.004  68.686  1.00  0.00    -0.231 C  
HETATM    9  C   UNL     1      -7.769   4.244  70.617  1.00  0.00    -0.052 C  
HETATM   10  C   UNL     1      -6.775   5.405  70.694  1.00  0.00    -0.044 C  
HETATM   11  C   UNL     1      -7.632   6.651  70.627  1.00  0.00    -0.095 C  
HETATM   12  C   UNL     1      -9.117   6.188  70.698  1.00  0.00    -0.156 C  
HETATM   13  C   UNL     1      -9.973   7.307  71.270  1.00  0.00    -0.191 C  
HETATM   14  C   UNL     1      -9.713   8.613  71.030  1.00  0.00    -0.266 C  
HETATM   15  C   UNL     1     -11.124   6.796  72.076  1.00  0.00    -0.283 C  
HETATM   16  C   UNL     1     -10.047   3.621  71.417  1.00  0.00    -0.067 C  
HETATM   17  C   UNL     1     -10.624   5.788  73.140  1.00  0.00    -0.272 C  
HETATM   18  C   UNL     1      -9.032   4.790  71.426  1.00  0.00    -0.164 C  
HETATM   19  C   UNL     1      -9.148   5.245  72.920  1.00  0.00    -0.125 C  
BRANCH  14  20
HETATM   20  C   UNL     1     -10.752   9.600  70.918  1.00  0.00    -0.402 C  
HETATM   21  C   UNL     1     -12.526  11.018  69.990  1.00  0.00    -0.319 C  
HETATM   22  C   UNL     1     -11.203  10.282  69.850  1.00  0.00    -0.360 C  
HETATM   23  C   UNL     1     -12.373  12.505  69.689  1.00  0.00     0.027 C  
HETATM   24  O   UNL     1     -11.596  13.155  70.697  1.00  0.00    -0.482 OA 
HETATM   25  C   UNL     1     -11.743  12.714  68.318  1.00  0.00    -0.389 C  
HETATM   26  H   UNL     1     -11.501  14.081  70.509  1.00  0.00     0.000 HD 
HETATM   27  C   UNL     1     -10.417  11.952  68.170  1.00  0.00    -0.207 C  
HETATM   28  C   UNL     1     -10.570  10.472  68.541  1.00  0.00    -0.234 C  
HETATM   29  O   UNL     1      -9.961  12.104  66.830  1.00  0.00    -0.199 OA 
HETATM   30  C   UNL     1     -10.213   9.474  67.724  1.00  0.00    -0.265 C  
HETATM   31  H   UNL     1      -9.141  11.633  66.738  1.00  0.00     0.000 HD 
ENDBRANCH  14  20
ENDBRANCH   5   6
ENDBRANCH   4   5
TORSDOF 3
ENDMDL
MODEL       81
REMARK 921   NORMALIZED FREE ENERGY PREDICTED BY IDOCK:   -4.61 KCAL/MOL
REMARK 922        TOTAL FREE ENERGY PREDICTED BY IDOCK:   -6.52 KCAL/MOL
REMARK 923 INTER-LIGAND FREE ENERGY PREDICTED BY IDOCK:   -5.55 KCAL/MOL
REMARK 924 INTRA-LIGAND FREE ENERGY PREDICTED BY IDOCK:   -0.97 KCAL/MOL
REMARK 927      BINDING AFFINITY PREDICTED BY RF-SCORE:    0.00 PKD
ROOT
HETATM    1  C   UNL     1      -8.280  19.201  68.462  1.00  0.00    -0.399 C  
HETATM    2  C   UNL     1      -9.796  19.338  68.595  1.00  0.00    -0.500 C  
HETATM    3  C   UNL     1     -10.280  20.562  67.807  1.00  0.00    -0.307 C  
HETATM    4  C   UNL     1     -10.553  18.111  68.067  1.00  0.00    -0.359 C  
ENDROOT
BRANCH   4   5
HETATM    5  C   UNL     1     -10.296  16.789  68.792  1.00  0.00    -0.318 C  
BRANCH   5   6
HETATM    6  C   UNL     1      -9.717  15.791  67.766  1.00  0.00    -0.216 C  
HETATM    7  C   UNL     1     -10.050  14.301  68.008  1.00  0.00    -0.227 C  
HETATM    8  C   UNL     1     -11.581  14.163  68.101  1.00  0.00    -0.365 C  
HETATM    9  C   UNL     1      -9.261  13.330  66.930  1.00  0.00    -0.242 C  
HETATM   10  C   UNL     1      -7.763  13.416  67.227  1.00  0.00    -0.092 C  
HETATM   11  C   UNL     1      -7.524  12.382  68.306  1.00  0.00    -0.124 C  
HETATM   12  C   UNL     1      -8.853  11.590  68.481  1.00  0.00    -0.139 C  
HETATM   13  C   UNL     1      -8.551  10.201  69.019  1.00  0.00    -0.156 C  
HETATM   14  C   UNL     1      -7.537   9.962  69.881  1.00  0.00    -0.167 C  
HETATM   15  C   UNL     1      -9.510   9.169  68.517  1.00  0.00    -0.151 C  
HETATM   16  C   UNL     1     -11.079  11.634  66.747  1.00  0.00    -0.366 C  
HETATM   17  C   UNL     1      -9.602   9.233  66.972  1.00  0.00    -0.223 C  
HETATM   18  C   UNL     1      -9.577  11.774  67.091  1.00  0.00    -0.189 C  
HETATM   19  C   UNL     1      -8.999  10.546  66.311  1.00  0.00    -0.174 C  
BRANCH  14  20
HETATM   20  C   UNL     1      -7.611   8.950  70.902  1.00  0.00    -0.122 C  
HETATM   21  C   UNL     1      -7.159   6.924  72.208  1.00  0.00    -0.073 C  
HETATM   22  C   UNL     1      -7.261   7.652  70.877  1.00  0.00    -0.062 C  
HETATM   23  C   UNL     1      -8.070   5.702  72.248  1.00  0.00    -0.108 C  
HETATM   24  O   UNL     1      -9.446   6.088  72.256  1.00  0.00    -0.151 OA 
HETATM   25  C   UNL     1      -7.786   4.782  71.066  1.00  0.00    -0.082 C  
HETATM   26  H   UNL     1     -10.013   5.327  72.281  1.00  0.00     0.000 HD 
HETATM   27  C   UNL     1      -7.868   5.524  69.724  1.00  0.00    -0.082 C  
HETATM   28  C   UNL     1      -6.999   6.788  69.721  1.00  0.00    -0.063 C  
HETATM   29  O   UNL     1      -7.476   4.625  68.691  1.00  0.00    -0.063 OA 
HETATM   30  C   UNL     1      -6.069   7.032  68.792  1.00  0.00    -0.027 C  
HETATM   31  H   UNL     1      -7.526   5.085  67.861  1.00  0.00     0.000 HD 
ENDBRANCH  14  20
ENDBRANCH   5   6
ENDBRANCH   4   5
TORSDOF 3
ENDMDL
MODEL       82
REMARK 921   NORMALIZED FREE ENERGY PREDICTED BY IDOCK:   -4.59 KCAL/MOL
REMARK 922        TOTAL FREE ENERGY PREDICTED BY IDOCK:   -6.50 KCAL/MOL
REMARK 923 INTER-LIGAND FREE ENERGY PREDICTED BY IDOCK:   -5.14 KCAL/MOL
REMARK 924 INTRA-LIGAND FREE ENERGY PREDICTED BY IDOCK:   -1.36 KCAL/MOL
REMARK 927      BINDING AFFINITY PREDICTED BY RF-SCORE:    0.00 PKD
ROOT
HETATM    1  C   UNL     1      -8.664   3.499  64.482  1.00  0.00    -0.101 C  
HETATM    2  C   UNL     1      -8.514   4.390  65.714  1.00  0.00    -0.114 C  
HETATM    3  C   UNL     1      -9.683   4.146  66.678  1.00  0.00    -0.233 C  
HETATM    4  C   UNL     1      -7.211   4.129  66.483  1.00  0.00    -0.075 C  
ENDROOT
BRANCH   4   5
HETATM    5  C   UNL     1      -5.910   4.417  65.732  1.00  0.00    -0.022 C  
BRANCH   5   6
HETATM    6  C   UNL     1      -6.009   5.839  65.139  1.00  0.00    -0.025 C  
HETATM    7  C   UNL     1      -6.269   6.979  66.151  1.00  0.00    -0.039 C  
HETATM    8  C   UNL     1      -5.177   6.914  67.235  1.00  0.00    -0.012 C  
HETATM    9  C   UNL     1      -6.493   8.422  65.380  1.00  0.00    -0.055 C  
HETATM   10  C   UNL     1      -7.800   8.337  64.591  1.00  0.00    -0.132 C  
HETATM   11  C   UNL     1      -8.876   8.721  65.584  1.00  0.00    -0.239 C  
HETATM   12  C   UNL     1      -8.153   9.199  66.878  1.00  0.00    -0.112 C  
HETATM   13  C   UNL     1      -9.050  10.163  67.637  1.00  0.00    -0.144 C  
HETATM   14  C   UNL     1     -10.397  10.036  67.657  1.00  0.00    -0.272 C  
HETATM   15  C   UNL     1      -8.278  11.217  68.364  1.00  0.00    -0.144 C  
HETATM   16  C   UNL     1      -5.411   9.815  67.143  1.00  0.00    -0.042 C  
HETATM   17  C   UNL     1      -7.288  11.915  67.399  1.00  0.00    -0.145 C  
HETATM   18  C   UNL     1      -6.736   9.661  66.358  1.00  0.00    -0.076 C  
HETATM   19  C   UNL     1      -7.036  11.160  66.024  1.00  0.00     0.057 C  
BRANCH  14  20
HETATM   20  C   UNL     1     -11.191  10.401  68.800  1.00  0.00    -0.295 C  
HETATM   21  C   UNL     1     -11.931  10.704  71.119  1.00  0.00    -0.401 C  
HETATM   22  C   UNL     1     -11.218   9.896  70.046  1.00  0.00    -0.327 C  
HETATM   23  C   UNL     1     -13.040   9.894  71.784  1.00  0.00    -0.452 C  
HETATM   24  O   UNL     1     -14.112   9.649  70.872  1.00  0.00    -0.348 OA 
HETATM   25  C   UNL     1     -12.493   8.578  72.324  1.00  0.00    -0.448 C  
HETATM   26  H   UNL     1     -14.803   9.145  71.286  1.00  0.00     0.000 HD 
HETATM   27  C   UNL     1     -11.754   7.774  71.244  1.00  0.00    -0.288 C  
HETATM   28  C   UNL     1     -10.687   8.620  70.538  1.00  0.00    -0.252 C  
HETATM   29  O   UNL     1     -11.177   6.625  71.859  1.00  0.00    -0.242 OA 
HETATM   30  C   UNL     1      -9.407   8.247  70.440  1.00  0.00    -0.162 C  
HETATM   31  H   UNL     1     -10.719   6.128  71.191  1.00  0.00     0.000 HD 
ENDBRANCH  14  20
ENDBRANCH   5   6
ENDBRANCH   4   5
TORSDOF 3
ENDMDL
MODEL       83
REMARK 921   NORMALIZED FREE ENERGY PREDICTED BY IDOCK:   -4.58 KCAL/MOL
REMARK 922        TOTAL FREE ENERGY PREDICTED BY IDOCK:   -6.49 KCAL/MOL
REMARK 923 INTER-LIGAND FREE ENERGY PREDICTED BY IDOCK:   -5.79 KCAL/MOL
REMARK 924 INTRA-LIGAND FREE ENERGY PREDICTED BY IDOCK:   -0.69 KCAL/MOL
REMARK 927      BINDING AFFINITY PREDICTED BY RF-SCORE:    0.00 PKD
ROOT
HETATM    1  C   UNL     1      -7.733   1.927  64.725  1.00  0.00    -0.068 C  
HETATM    2  C   UNL     1      -7.784   3.428  64.440  1.00  0.00    -0.077 C  
HETATM    3  C   UNL     1      -7.535   3.683  62.948  1.00  0.00    -0.054 C  
HETATM    4  C   UNL     1      -9.136   4.057  64.803  1.00  0.00    -0.141 C  
ENDROOT
BRANCH   4   5
HETATM    5  C   UNL     1      -9.535   4.008  66.279  1.00  0.00    -0.199 C  
BRANCH   5   6
HETATM    6  C   UNL     1      -8.490   4.816  67.079  1.00  0.00    -0.105 C  
HETATM    7  C   UNL     1      -8.955   5.353  68.452  1.00  0.00    -0.113 C  
HETATM    8  C   UNL     1      -9.477   4.164  69.279  1.00  0.00    -0.258 C  
HETATM    9  C   UNL     1      -7.800   6.311  69.141  1.00  0.00    -0.105 C  
HETATM   10  C   UNL     1      -7.664   7.574  68.288  1.00  0.00    -0.120 C  
HETATM   11  C   UNL     1      -8.730   8.510  68.814  1.00  0.00    -0.139 C  
HETATM   12  C   UNL     1      -9.338   7.843  70.083  1.00  0.00    -0.156 C  
HETATM   13  C   UNL     1      -9.903   8.914  71.002  1.00  0.00    -0.321 C  
HETATM   14  C   UNL     1     -10.472  10.047  70.530  1.00  0.00    -0.265 C  
HETATM   15  C   UNL     1      -9.784   8.553  72.448  1.00  0.00    -0.357 C  
HETATM   16  C   UNL     1      -8.285   5.635  71.491  1.00  0.00    -0.119 C  
HETATM   17  C   UNL     1      -8.325   8.153  72.779  1.00  0.00    -0.240 C  
HETATM   18  C   UNL     1      -8.189   6.883  70.580  1.00  0.00    -0.120 C  
HETATM   19  C   UNL     1      -7.401   7.853  71.522  1.00  0.00    -0.068 C  
BRANCH  14  20
HETATM   20  C   UNL     1     -11.566  10.700  71.200  1.00  0.00    -0.127 C  
HETATM   21  C   UNL     1     -13.620  11.980  71.599  1.00  0.00     0.136 C  
HETATM   22  C   UNL     1     -12.342  11.728  70.814  1.00  0.00    -0.433 C  
HETATM   23  C   UNL     1     -13.658  13.395  72.165  1.00  0.00    -0.567 C  
HETATM   24  O   UNL     1     -12.674  13.565  73.188  1.00  0.00    -0.081 OA 
HETATM   25  C   UNL     1     -13.452  14.422  71.058  1.00  0.00    -0.309 C  
HETATM   26  H   UNL     1     -12.698  14.447  73.540  1.00  0.00     0.000 HD 
HETATM   27  C   UNL     1     -12.173  14.153  70.251  1.00  0.00    -0.349 C  
HETATM   28  C   UNL     1     -12.116  12.706  69.745  1.00  0.00    -0.301 C  
HETATM   29  O   UNL     1     -12.121  15.080  69.172  1.00  0.00    -0.466 OA 
HETATM   30  C   UNL     1     -11.936  12.390  68.458  1.00  0.00    -0.273 C  
HETATM   31  H   UNL     1     -11.330  14.914  68.673  1.00  0.00     0.000 HD 
ENDBRANCH  14  20
ENDBRANCH   5   6
ENDBRANCH   4   5
TORSDOF 3
ENDMDL
MODEL       84
REMARK 921   NORMALIZED FREE ENERGY PREDICTED BY IDOCK:   -4.58 KCAL/MOL
REMARK 922        TOTAL FREE ENERGY PREDICTED BY IDOCK:   -6.48 KCAL/MOL
REMARK 923 INTER-LIGAND FREE ENERGY PREDICTED BY IDOCK:   -5.71 KCAL/MOL
REMARK 924 INTRA-LIGAND FREE ENERGY PREDICTED BY IDOCK:   -0.77 KCAL/MOL
REMARK 927      BINDING AFFINITY PREDICTED BY RF-SCORE:    0.00 PKD
ROOT
HETATM    1  C   UNL     1      -9.730   3.714  70.189  1.00  0.00    -0.188 C  
HETATM    2  C   UNL     1      -9.407   4.973  70.992  1.00  0.00    -0.203 C  
HETATM    3  C   UNL     1     -10.613   5.363  71.857  1.00  0.00    -0.288 C  
HETATM    4  C   UNL     1      -8.201   4.790  71.924  1.00  0.00    -0.110 C  
ENDROOT
BRANCH   4   5
HETATM    5  C   UNL     1      -6.859   4.498  71.251  1.00  0.00    -0.031 C  
BRANCH   5   6
HETATM    6  C   UNL     1      -7.017   4.771  69.740  1.00  0.00    -0.053 C  
HETATM    7  C   UNL     1      -6.971   6.256  69.313  1.00  0.00    -0.064 C  
HETATM    8  C   UNL     1      -5.662   6.867  69.845  1.00  0.00    -0.023 C  
HETATM    9  C   UNL     1      -7.290   6.423  67.701  1.00  0.00    -0.088 C  
HETATM   10  C   UNL     1      -8.748   6.025  67.465  1.00  0.00    -0.107 C  
HETATM   11  C   UNL     1      -9.540   7.287  67.734  1.00  0.00    -0.158 C  
HETATM   12  C   UNL     1      -8.510   8.437  67.940  1.00  0.00    -0.131 C  
HETATM   13  C   UNL     1      -9.152   9.767  67.580  1.00  0.00    -0.142 C  
HETATM   14  C   UNL     1     -10.462  10.023  67.801  1.00  0.00    -0.282 C  
HETATM   15  C   UNL     1      -8.175  10.739  66.999  1.00  0.00    -0.126 C  
HETATM   16  C   UNL     1      -5.753   8.354  67.342  1.00  0.00    -0.039 C  
HETATM   17  C   UNL     1      -7.402  10.082  65.829  1.00  0.00    -0.117 C  
HETATM   18  C   UNL     1      -7.231   7.928  67.169  1.00  0.00    -0.090 C  
HETATM   19  C   UNL     1      -7.518   8.500  65.741  1.00  0.00    -0.081 C  
BRANCH  14  20
HETATM   20  C   UNL     1     -10.946  11.334  68.143  1.00  0.00    -0.284 C  
HETATM   21  C   UNL     1     -12.086  13.502  68.009  1.00  0.00    -0.298 C  
HETATM   22  C   UNL     1     -11.313  12.364  67.360  1.00  0.00    -0.381 C  
HETATM   23  C   UNL     1     -11.378  14.839  67.818  1.00  0.00    -0.330 C  
HETATM   24  O   UNL     1     -10.158  14.883  68.561  1.00  0.00    -0.220 OA 
HETATM   25  C   UNL     1     -11.108  15.098  66.341  1.00  0.00    -0.312 C  
HETATM   26  H   UNL     1      -9.717  15.716  68.442  1.00  0.00     0.000 HD 
HETATM   27  C   UNL     1     -10.346  13.937  65.682  1.00  0.00    -0.325 C  
HETATM   28  C   UNL     1     -11.033  12.590  65.938  1.00  0.00    -0.314 C  
HETATM   29  O   UNL     1     -10.242  14.206  64.287  1.00  0.00    -0.639 OA 
HETATM   30  C   UNL     1     -11.384  11.752  64.957  1.00  0.00    -0.288 C  
HETATM   31  H   UNL     1      -9.771  13.488  63.879  1.00  0.00     0.000 HD 
ENDBRANCH  14  20
ENDBRANCH   5   6
ENDBRANCH   4   5
TORSDOF 3
ENDMDL
MODEL       85
REMARK 921   NORMALIZED FREE ENERGY PREDICTED BY IDOCK:   -4.53 KCAL/MOL
REMARK 922        TOTAL FREE ENERGY PREDICTED BY IDOCK:   -6.42 KCAL/MOL
REMARK 923 INTER-LIGAND FREE ENERGY PREDICTED BY IDOCK:   -5.66 KCAL/MOL
REMARK 924 INTRA-LIGAND FREE ENERGY PREDICTED BY IDOCK:   -0.77 KCAL/MOL
REMARK 927      BINDING AFFINITY PREDICTED BY RF-SCORE:    0.00 PKD
ROOT
HETATM    1  C   UNL     1      -7.433  15.850  68.374  1.00  0.00    -0.127 C  
HETATM    2  C   UNL     1      -6.076  15.151  68.305  1.00  0.00    -0.121 C  
HETATM    3  C   UNL     1      -5.127  15.753  69.349  1.00  0.00    -0.102 C  
HETATM    4  C   UNL     1      -6.169  13.642  68.570  1.00  0.00    -0.091 C  
ENDROOT
BRANCH   4   5
HETATM    5  C   UNL     1      -6.990  12.825  67.571  1.00  0.00    -0.149 C  
BRANCH   5   6
HETATM    6  C   UNL     1      -8.314  12.427  68.258  1.00  0.00    -0.169 C  
HETATM    7  C   UNL     1      -8.430  10.950  68.700  1.00  0.00    -0.152 C  
HETATM    8  C   UNL     1      -7.227  10.626  69.603  1.00  0.00    -0.139 C  
HETATM    9  C   UNL     1      -9.937  10.621  69.291  1.00  0.00    -0.215 C  
HETATM   10  C   UNL     1     -10.931  10.730  68.133  1.00  0.00    -0.308 C  
HETATM   11  C   UNL     1     -10.910   9.365  67.478  1.00  0.00    -0.208 C  
HETATM   12  C   UNL     1     -10.042   8.439  68.380  1.00  0.00    -0.224 C  
HETATM   13  C   UNL     1     -10.471   6.993  68.188  1.00  0.00    -0.242 C  
HETATM   14  C   UNL     1     -10.902   6.518  66.997  1.00  0.00    -0.465 C  
HETATM   15  C   UNL     1     -10.327   6.180  69.434  1.00  0.00    -0.283 C  
HETATM   16  C   UNL     1      -9.178   8.984  71.011  1.00  0.00    -0.331 C  
HETATM   17  C   UNL     1     -11.033   6.887  70.617  1.00  0.00    -0.304 C  
HETATM   18  C   UNL     1     -10.132   9.121  69.801  1.00  0.00    -0.211 C  
HETATM   19  C   UNL     1     -11.405   8.412  70.372  1.00  0.00    -0.178 C  
BRANCH  14  20
HETATM   20  C   UNL     1     -10.657   5.166  66.570  1.00  0.00    -0.320 C  
HETATM   21  C   UNL     1      -9.508   3.142  65.794  1.00  0.00    -0.056 C  
HETATM   22  C   UNL     1      -9.680   4.653  65.801  1.00  0.00    -0.206 C  
HETATM   23  C   UNL     1      -9.620   2.573  64.384  1.00  0.00    -0.128 C  
HETATM   24  O   UNL     1     -10.955   2.695  63.886  1.00  0.00    -0.464 OA 
HETATM   25  C   UNL     1      -8.640   3.266  63.445  1.00  0.00    -0.089 C  
HETATM   26  H   UNL     1     -11.024   2.341  63.008  1.00  0.00     0.000 HD 
HETATM   27  C   UNL     1      -8.800   4.794  63.470  1.00  0.00    -0.104 C  
HETATM   28  C   UNL     1      -8.753   5.346  64.900  1.00  0.00    -0.097 C  
HETATM   29  O   UNL     1      -7.775   5.364  62.662  1.00  0.00    -0.060 OA 
HETATM   30  C   UNL     1      -7.911   6.313  65.282  1.00  0.00    -0.117 C  
HETATM   31  H   UNL     1      -7.873   6.309  62.678  1.00  0.00     0.000 HD 
ENDBRANCH  14  20
ENDBRANCH   5   6
ENDBRANCH   4   5
TORSDOF 3
ENDMDL
MODEL       86
REMARK 921   NORMALIZED FREE ENERGY PREDICTED BY IDOCK:   -4.51 KCAL/MOL
REMARK 922        TOTAL FREE ENERGY PREDICTED BY IDOCK:   -6.41 KCAL/MOL
REMARK 923 INTER-LIGAND FREE ENERGY PREDICTED BY IDOCK:   -5.36 KCAL/MOL
REMARK 924 INTRA-LIGAND FREE ENERGY PREDICTED BY IDOCK:   -1.05 KCAL/MOL
REMARK 927      BINDING AFFINITY PREDICTED BY RF-SCORE:    0.00 PKD
ROOT
HETATM    1  C   UNL     1      -5.702  19.010  66.285  1.00  0.00    -0.178 C  
HETATM    2  C   UNL     1      -6.914  19.467  67.095  1.00  0.00    -0.218 C  
HETATM    3  C   UNL     1      -6.964  21.000  67.136  1.00  0.00    -0.411 C  
HETATM    4  C   UNL     1      -8.243  18.970  66.511  1.00  0.00    -0.312 C  
ENDROOT
BRANCH   4   5
HETATM    5  C   UNL     1      -8.447  17.454  66.477  1.00  0.00    -0.298 C  
BRANCH   5   6
HETATM    6  C   UNL     1      -9.895  17.160  66.923  1.00  0.00    -0.285 C  
HETATM    7  C   UNL     1     -10.058  16.109  68.045  1.00  0.00    -0.242 C  
HETATM    8  C   UNL     1      -9.196  16.548  69.242  1.00  0.00    -0.122 C  
HETATM    9  C   UNL     1     -11.652  15.784  68.332  1.00  0.00    -0.343 C  
HETATM   10  C   UNL     1     -12.221  15.084  67.096  1.00  0.00     0.276 C  
HETATM   11  C   UNL     1     -11.904  13.619  67.304  1.00  0.00    -0.429 C  
HETATM   12  C   UNL     1     -11.322  13.477  68.741  1.00  0.00    -0.329 C  
HETATM   13  C   UNL     1     -11.575  12.069  69.257  1.00  0.00    -0.380 C  
HETATM   14  C   UNL     1     -11.565  10.987  68.444  1.00  0.00    -0.372 C  
HETATM   15  C   UNL     1     -11.794  12.029  70.735  1.00  0.00     0.045 C  
HETATM   16  C   UNL     1     -11.393  15.422  70.785  1.00  0.00    -0.376 C  
HETATM   17  C   UNL     1     -12.888  13.047  71.140  1.00  0.00    -0.331 C  
HETATM   18  C   UNL     1     -11.910  14.728  69.501  1.00  0.00    -0.366 C  
HETATM   19  C   UNL     1     -13.253  14.127  70.033  1.00  0.00     0.563 C  
BRANCH  14  20
HETATM   20  C   UNL     1     -11.112   9.695  68.883  1.00  0.00    -0.097 C  
HETATM   21  C   UNL     1      -9.706   7.914  69.815  1.00  0.00    -0.176 C  
HETATM   22  C   UNL     1      -9.869   9.202  69.025  1.00  0.00    -0.176 C  
HETATM   23  C   UNL     1      -9.021   6.832  68.986  1.00  0.00    -0.131 C  
HETATM   24  O   UNL     1      -9.866   6.391  67.921  1.00  0.00    -0.120 OA 
HETATM   25  C   UNL     1      -7.694   7.339  68.434  1.00  0.00    -0.120 C  
HETATM   26  H   UNL     1      -9.439   5.718  67.405  1.00  0.00     0.000 HD 
HETATM   27  C   UNL     1      -7.857   8.653  67.655  1.00  0.00    -0.103 C  
HETATM   28  C   UNL     1      -8.607   9.709  68.475  1.00  0.00    -0.119 C  
HETATM   29  O   UNL     1      -6.563   9.113  67.279  1.00  0.00    -0.063 OA 
HETATM   30  C   UNL     1      -8.122  10.935  68.704  1.00  0.00    -0.143 C  
HETATM   31  H   UNL     1      -6.663   9.926  66.797  1.00  0.00     0.000 HD 
ENDBRANCH  14  20
ENDBRANCH   5   6
ENDBRANCH   4   5
TORSDOF 3
ENDMDL
MODEL       87
REMARK 921   NORMALIZED FREE ENERGY PREDICTED BY IDOCK:   -4.45 KCAL/MOL
REMARK 922        TOTAL FREE ENERGY PREDICTED BY IDOCK:   -6.33 KCAL/MOL
REMARK 923 INTER-LIGAND FREE ENERGY PREDICTED BY IDOCK:   -5.44 KCAL/MOL
REMARK 924 INTRA-LIGAND FREE ENERGY PREDICTED BY IDOCK:   -0.89 KCAL/MOL
REMARK 927      BINDING AFFINITY PREDICTED BY RF-SCORE:    0.00 PKD
ROOT
HETATM    1  C   UNL     1     -10.806  19.733  65.476  1.00  0.00    -0.254 C  
HETATM    2  C   UNL     1      -9.816  19.346  66.574  1.00  0.00    -0.471 C  
HETATM    3  C   UNL     1      -9.770  20.444  67.645  1.00  0.00    -0.540 C  
HETATM    4  C   UNL     1     -10.184  18.028  67.270  1.00  0.00    -0.371 C  
ENDROOT
BRANCH   4   5
HETATM    5  C   UNL     1     -10.183  16.773  66.395  1.00  0.00    -0.329 C  
BRANCH   5   6
HETATM    6  C   UNL     1     -10.379  15.551  67.318  1.00  0.00    -0.267 C  
HETATM    7  C   UNL     1      -9.345  14.413  67.164  1.00  0.00    -0.226 C  
HETATM    8  C   UNL     1      -7.940  15.015  67.346  1.00  0.00    -0.218 C  
HETATM    9  C   UNL     1      -9.744  13.113  68.101  1.00  0.00    -0.228 C  
HETATM   10  C   UNL     1     -11.032  12.506  67.543  1.00  0.00    -0.288 C  
HETATM   11  C   UNL     1     -10.573  11.559  66.456  1.00  0.00    -0.301 C  
HETATM   12  C   UNL     1      -9.019  11.498  66.532  1.00  0.00    -0.190 C  
HETATM   13  C   UNL     1      -8.533  10.170  65.972  1.00  0.00    -0.136 C  
HETATM   14  C   UNL     1      -9.157   9.544  64.948  1.00  0.00    -0.276 C  
HETATM   15  C   UNL     1      -7.297   9.676  66.653  1.00  0.00    -0.090 C  
HETATM   16  C   UNL     1      -7.396  12.459  68.632  1.00  0.00    -0.102 C  
HETATM   17  C   UNL     1      -7.500   9.668  68.188  1.00  0.00    -0.082 C  
HETATM   18  C   UNL     1      -8.707  11.902  68.025  1.00  0.00    -0.173 C  
HETATM   19  C   UNL     1      -8.752  10.496  68.711  1.00  0.00    -0.154 C  
BRANCH  14  20
HETATM   20  C   UNL     1      -8.446   8.759  63.973  1.00  0.00    -0.121 C  
HETATM   21  C   UNL     1      -7.594   6.843  62.701  1.00  0.00    -0.099 C  
HETATM   22  C   UNL     1      -8.033   7.480  64.010  1.00  0.00    -0.091 C  
HETATM   23  C   UNL     1      -6.165   6.317  62.787  1.00  0.00    -0.030 C  
HETATM   24  O   UNL     1      -5.229   7.391  62.891  1.00  0.00    -0.033 OA 
HETATM   25  C   UNL     1      -6.013   5.365  63.967  1.00  0.00    -0.021 C  
HETATM   26  H   UNL     1      -4.339   7.064  62.945  1.00  0.00     0.000 HD 
HETATM   27  C   UNL     1      -6.478   6.003  65.286  1.00  0.00    -0.042 C  
HETATM   28  C   UNL     1      -7.890   6.588  65.166  1.00  0.00    -0.111 C  
HETATM   29  O   UNL     1      -6.414   5.013  66.308  1.00  0.00    -0.041 OA 
HETATM   30  C   UNL     1      -8.887   6.264  65.997  1.00  0.00    -0.159 C  
HETATM   31  H   UNL     1      -6.701   5.408  67.123  1.00  0.00     0.000 HD 
ENDBRANCH  14  20
ENDBRANCH   5   6
ENDBRANCH   4   5
TORSDOF 3
ENDMDL
MODEL       88
REMARK 921   NORMALIZED FREE ENERGY PREDICTED BY IDOCK:   -4.45 KCAL/MOL
REMARK 922        TOTAL FREE ENERGY PREDICTED BY IDOCK:   -6.33 KCAL/MOL
REMARK 923 INTER-LIGAND FREE ENERGY PREDICTED BY IDOCK:   -5.57 KCAL/MOL
REMARK 924 INTRA-LIGAND FREE ENERGY PREDICTED BY IDOCK:   -0.77 KCAL/MOL
REMARK 927      BINDING AFFINITY PREDICTED BY RF-SCORE:    0.00 PKD
ROOT
HETATM    1  C   UNL     1      -9.163  16.699  66.084  1.00  0.00    -0.312 C  
HETATM    2  C   UNL     1     -10.539  16.035  66.083  1.00  0.00    -0.302 C  
HETATM    3  C   UNL     1     -11.263  16.341  64.765  1.00  0.00    -0.267 C  
HETATM    4  C   UNL     1     -10.465  14.510  66.234  1.00  0.00    -0.303 C  
ENDROOT
BRANCH   4   5
HETATM    5  C   UNL     1      -9.869  13.984  67.541  1.00  0.00    -0.236 C  
BRANCH   5   6
HETATM    6  C   UNL     1      -8.981  12.767  67.201  1.00  0.00    -0.214 C  
HETATM    7  C   UNL     1      -9.554  11.383  67.581  1.00  0.00    -0.176 C  
HETATM    8  C   UNL     1     -10.942  11.245  66.931  1.00  0.00    -0.348 C  
HETATM    9  C   UNL     1      -8.456  10.183  67.296  1.00  0.00    -0.125 C  
HETATM   10  C   UNL     1      -7.290  10.369  68.268  1.00  0.00    -0.088 C  
HETATM   11  C   UNL     1      -7.721   9.650  69.528  1.00  0.00    -0.109 C  
HETATM   12  C   UNL     1      -9.048   8.906  69.198  1.00  0.00    -0.141 C  
HETATM   13  C   UNL     1      -9.202   7.705  70.118  1.00  0.00    -0.154 C  
HETATM   14  C   UNL     1      -8.765   7.714  71.399  1.00  0.00    -0.132 C  
HETATM   15  C   UNL     1      -9.906   6.562  69.460  1.00  0.00    -0.167 C  
HETATM   16  C   UNL     1     -10.134   8.463  66.631  1.00  0.00    -0.358 C  
HETATM   17  C   UNL     1      -9.230   6.227  68.107  1.00  0.00    -0.110 C  
HETATM   18  C   UNL     1      -8.982   8.714  67.633  1.00  0.00    -0.141 C  
HETATM   19  C   UNL     1      -8.240   7.338  67.550  1.00  0.00    -0.113 C  
BRANCH  14  20
HETATM   20  C   UNL     1      -9.437   6.996  72.449  1.00  0.00    -0.159 C  
HETATM   21  C   UNL     1      -9.942   5.325  74.172  1.00  0.00    -0.223 C  
HETATM   22  C   UNL     1      -9.352   5.707  72.825  1.00  0.00    -0.144 C  
HETATM   23  C   UNL     1     -10.995   4.230  74.031  1.00  0.00    -0.180 C  
HETATM   24  O   UNL     1     -12.156   4.720  73.357  1.00  0.00    -0.347 OA 
HETATM   25  C   UNL     1     -10.422   3.027  73.293  1.00  0.00    -0.252 C  
HETATM   26  H   UNL     1     -12.811   4.038  73.269  1.00  0.00     0.000 HD 
HETATM   27  C   UNL     1      -9.806   3.418  71.941  1.00  0.00    -0.167 C  
HETATM   28  C   UNL     1      -8.799   4.565  72.089  1.00  0.00    -0.135 C  
HETATM   29  O   UNL     1      -9.194   2.263  71.377  1.00  0.00    -0.087 OA 
HETATM   30  C   UNL     1      -7.541   4.494  71.640  1.00  0.00    -0.078 C  
HETATM   31  H   UNL     1      -8.812   2.505  70.541  1.00  0.00     0.000 HD 
ENDBRANCH  14  20
ENDBRANCH   5   6
ENDBRANCH   4   5
TORSDOF 3
ENDMDL
MODEL       89
REMARK 921   NORMALIZED FREE ENERGY PREDICTED BY IDOCK:   -4.41 KCAL/MOL
REMARK 922        TOTAL FREE ENERGY PREDICTED BY IDOCK:   -6.29 KCAL/MOL
REMARK 923 INTER-LIGAND FREE ENERGY PREDICTED BY IDOCK:   -4.95 KCAL/MOL
REMARK 924 INTRA-LIGAND FREE ENERGY PREDICTED BY IDOCK:   -1.34 KCAL/MOL
REMARK 927      BINDING AFFINITY PREDICTED BY RF-SCORE:    0.00 PKD
ROOT
HETATM    1  C   UNL     1     -10.596  11.462  65.633  1.00  0.00    -0.314 C  
HETATM    2  C   UNL     1     -10.429  10.719  64.308  1.00  0.00    -0.330 C  
HETATM    3  C   UNL     1     -10.621  11.692  63.138  1.00  0.00    -0.341 C  
HETATM    4  C   UNL     1      -9.045  10.073  64.159  1.00  0.00    -0.295 C  
ENDROOT
BRANCH   4   5
HETATM    5  C   UNL     1      -8.689   8.984  65.172  1.00  0.00    -0.223 C  
BRANCH   5   6
HETATM    6  C   UNL     1      -7.409   9.425  65.914  1.00  0.00    -0.095 C  
HETATM    7  C   UNL     1      -7.614  10.402  67.095  1.00  0.00    -0.096 C  
HETATM    8  C   UNL     1      -8.620   9.766  68.072  1.00  0.00    -0.122 C  
HETATM    9  C   UNL     1      -6.166  10.905  67.711  1.00  0.00    -0.051 C  
HETATM   10  C   UNL     1      -5.475  11.763  66.651  1.00  0.00    -0.059 C  
HETATM   11  C   UNL     1      -6.028  13.156  66.861  1.00  0.00     1.003 C  
HETATM   12  C   UNL     1      -6.889  13.113  68.158  1.00  0.00    -0.111 C  
HETATM   13  C   UNL     1      -6.940  14.499  68.782  1.00  0.00    -0.104 C  
HETATM   14  C   UNL     1      -6.945  15.629  68.038  1.00  0.00    -0.141 C  
HETATM   15  C   UNL     1      -7.017  14.455  70.274  1.00  0.00     0.173 C  
HETATM   16  C   UNL     1      -6.939  11.045  70.078  1.00  0.00     0.030 C  
HETATM   17  C   UNL     1      -5.889  13.557  70.840  1.00  0.00    -0.150 C  
HETATM   18  C   UNL     1      -6.289  11.893  68.959  1.00  0.00    -0.080 C  
HETATM   19  C   UNL     1      -5.170  12.620  69.778  1.00  0.00    -0.079 C  
BRANCH  14  20
HETATM   20  C   UNL     1      -7.650  16.816  68.440  1.00  0.00    -0.205 C  
HETATM   21  C   UNL     1      -9.464  18.399  68.910  1.00  0.00    -0.250 C  
HETATM   22  C   UNL     1      -8.853  17.289  68.069  1.00  0.00    -0.238 C  
HETATM   23  C   UNL     1      -9.772  19.633  68.068  1.00  0.00    -0.396 C  
HETATM   24  O   UNL     1      -8.570  20.263  67.623  1.00  0.00    -0.319 OA 
HETATM   25  C   UNL     1     -10.650  19.266  66.878  1.00  0.00    -0.557 C  
HETATM   26  H   UNL     1      -8.761  21.031  67.098  1.00  0.00     0.000 HD 
HETATM   27  C   UNL     1     -10.042  18.129  66.042  1.00  0.00    -0.268 C  
HETATM   28  C   UNL     1      -9.674  16.920  66.911  1.00  0.00    -0.264 C  
HETATM   29  O   UNL     1     -10.975  17.771  65.027  1.00  0.00    -0.784 OA 
HETATM   30  C   UNL     1     -10.111  15.681  66.660  1.00  0.00    -0.280 C  
HETATM   31  H   UNL     1     -10.599  17.068  64.511  1.00  0.00     0.000 HD 
ENDBRANCH  14  20
ENDBRANCH   5   6
ENDBRANCH   4   5
TORSDOF 3
ENDMDL
MODEL       90
REMARK 921   NORMALIZED FREE ENERGY PREDICTED BY IDOCK:   -4.31 KCAL/MOL
REMARK 922        TOTAL FREE ENERGY PREDICTED BY IDOCK:   -6.18 KCAL/MOL
REMARK 923 INTER-LIGAND FREE ENERGY PREDICTED BY IDOCK:   -5.54 KCAL/MOL
REMARK 924 INTRA-LIGAND FREE ENERGY PREDICTED BY IDOCK:   -0.64 KCAL/MOL
REMARK 927      BINDING AFFINITY PREDICTED BY RF-SCORE:    0.00 PKD
ROOT
HETATM    1  C   UNL     1      -6.164  20.668  63.455  1.00  0.00    -0.233 C  
HETATM    2  C   UNL     1      -6.310  19.506  64.438  1.00  0.00    -0.047 C  
HETATM    3  C   UNL     1      -5.384  18.355  64.023  1.00  0.00     0.092 C  
HETATM    4  C   UNL     1      -5.955  19.898  65.879  1.00  0.00    -0.195 C  
ENDROOT
BRANCH   4   5
HETATM    5  C   UNL     1      -6.835  20.966  66.530  1.00  0.00    -0.281 C  
BRANCH   5   6
HETATM    6  C   UNL     1      -8.276  20.416  66.599  1.00  0.00    -0.236 C  
HETATM    7  C   UNL     1      -8.477  19.151  67.465  1.00  0.00    -0.317 C  
HETATM    8  C   UNL     1      -7.936  19.446  68.875  1.00  0.00    -0.360 C  
HETATM    9  C   UNL     1     -10.024  18.585  67.344  1.00  0.00    -0.351 C  
HETATM   10  C   UNL     1     -10.232  18.081  65.915  1.00  0.00    -0.231 C  
HETATM   11  C   UNL     1      -9.730  16.653  65.934  1.00  0.00    -0.269 C  
HETATM   12  C   UNL     1      -9.413  16.300  67.417  1.00  0.00    -0.227 C  
HETATM   13  C   UNL     1      -9.532  14.798  67.621  1.00  0.00    -0.204 C  
HETATM   14  C   UNL     1      -9.198  13.908  66.658  1.00  0.00    -0.253 C  
HETATM   15  C   UNL     1     -10.015  14.439  68.989  1.00  0.00    -0.135 C  
HETATM   16  C   UNL     1     -10.177  17.777  69.698  1.00  0.00     0.287 C  
HETATM   17  C   UNL     1     -11.314  15.216  69.316  1.00  0.00    -0.313 C  
HETATM   18  C   UNL     1     -10.326  17.295  68.235  1.00  0.00    -0.361 C  
HETATM   19  C   UNL     1     -11.632  16.442  68.357  1.00  0.00    -0.071 C  
BRANCH  14  20
HETATM   20  C   UNL     1      -8.635  12.619  66.958  1.00  0.00    -0.181 C  
HETATM   21  C   UNL     1      -8.432  10.218  67.418  1.00  0.00    -0.125 C  
HETATM   22  C   UNL     1      -9.186  11.533  67.530  1.00  0.00    -0.166 C  
HETATM   23  C   UNL     1      -8.137   9.624  68.792  1.00  0.00    -0.097 C  
HETATM   24  O   UNL     1      -7.186  10.421  69.500  1.00  0.00    -0.098 OA 
HETATM   25  C   UNL     1      -9.419   9.483  69.603  1.00  0.00    -0.213 C  
HETATM   26  H   UNL     1      -7.002  10.051  70.356  1.00  0.00     0.000 HD 
HETATM   27  C   UNL     1     -10.191  10.808  69.696  1.00  0.00    -0.057 C  
HETATM   28  C   UNL     1     -10.422  11.428  68.313  1.00  0.00    -0.221 C  
HETATM   29  O   UNL     1     -11.424  10.561  70.364  1.00  0.00    -0.300 OA 
HETATM   30  C   UNL     1     -11.633  11.776  67.862  1.00  0.00    -0.377 C  
HETATM   31  H   UNL     1     -11.902  11.380  70.421  1.00  0.00     0.000 HD 
ENDBRANCH  14  20
ENDBRANCH   5   6
ENDBRANCH   4   5
TORSDOF 3
ENDMDL
MODEL       91
REMARK 921   NORMALIZED FREE ENERGY PREDICTED BY IDOCK:   -4.28 KCAL/MOL
REMARK 922        TOTAL FREE ENERGY PREDICTED BY IDOCK:   -6.13 KCAL/MOL
REMARK 923 INTER-LIGAND FREE ENERGY PREDICTED BY IDOCK:   -5.11 KCAL/MOL
REMARK 924 INTRA-LIGAND FREE ENERGY PREDICTED BY IDOCK:   -1.02 KCAL/MOL
REMARK 927      BINDING AFFINITY PREDICTED BY RF-SCORE:    0.00 PKD
ROOT
HETATM    1  C   UNL     1      -8.403   1.728  65.138  1.00  0.00    -0.085 C  
HETATM    2  C   UNL     1      -9.128   2.570  64.089  1.00  0.00    -0.113 C  
HETATM    3  C   UNL     1      -9.768   1.653  63.037  1.00  0.00    -0.096 C  
HETATM    4  C   UNL     1     -10.240   3.441  64.690  1.00  0.00    -0.039 C  
ENDROOT
BRANCH   4   5
HETATM    5  C   UNL     1      -9.801   4.508  65.694  1.00  0.00    -0.227 C  
BRANCH   5   6
HETATM    6  C   UNL     1      -8.849   5.481  64.965  1.00  0.00    -0.052 C  
HETATM    7  C   UNL     1      -8.345   6.684  65.795  1.00  0.00    -0.143 C  
HETATM    8  C   UNL     1      -7.693   6.139  67.079  1.00  0.00    -0.100 C  
HETATM    9  C   UNL     1      -7.453   7.718  64.866  1.00  0.00    -0.094 C  
HETATM   10  C   UNL     1      -8.389   8.357  63.839  1.00  0.00    -0.063 C  
HETATM   11  C   UNL     1      -8.991   9.547  64.555  1.00  0.00    -0.256 C  
HETATM   12  C   UNL     1      -8.253   9.681  65.919  1.00  0.00    -0.119 C  
HETATM   13  C   UNL     1      -8.308  11.126  66.389  1.00  0.00    -0.167 C  
HETATM   14  C   UNL     1      -9.372  11.926  66.147  1.00  0.00    -0.228 C  
HETATM   15  C   UNL     1      -7.091  11.528  67.159  1.00  0.00    -0.140 C  
HETATM   16  C   UNL     1      -5.869   8.374  66.677  1.00  0.00    -0.048 C  
HETATM   17  C   UNL     1      -5.814  11.183  66.354  1.00  0.00    -0.148 C  
HETATM   18  C   UNL     1      -6.866   8.975  65.657  1.00  0.00    -0.076 C  
HETATM   19  C   UNL     1      -6.028  10.188  65.133  1.00  0.00    -0.119 C  
BRANCH  14  20
HETATM   20  C   UNL     1      -9.796  12.947  67.067  1.00  0.00    -0.233 C  
HETATM   21  C   UNL     1     -10.308  14.137  69.151  1.00  0.00    -0.102 C  
HETATM   22  C   UNL     1     -10.245  12.857  68.332  1.00  0.00    -0.238 C  
HETATM   23  C   UNL     1     -11.717  14.399  69.671  1.00  0.00    -0.309 C  
HETATM   24  O   UNL     1     -12.607  14.719  68.600  1.00  0.00    -0.493 OA 
HETATM   25  C   UNL     1     -12.235  13.194  70.448  1.00  0.00    -0.389 C  
HETATM   26  H   UNL     1     -13.485  14.883  68.924  1.00  0.00     0.000 HD 
HETATM   27  C   UNL     1     -12.151  11.898  69.627  1.00  0.00    -0.239 C  
HETATM   28  C   UNL     1     -10.745  11.682  69.053  1.00  0.00    -0.217 C  
HETATM   29  O   UNL     1     -12.540  10.813  70.463  1.00  0.00    -0.329 OA 
HETATM   30  C   UNL     1     -10.042  10.561  69.248  1.00  0.00    -0.244 C  
HETATM   31  H   UNL     1     -12.487  10.012  69.955  1.00  0.00     0.000 HD 
ENDBRANCH  14  20
ENDBRANCH   5   6
ENDBRANCH   4   5
TORSDOF 3
ENDMDL
MODEL       92
REMARK 921   NORMALIZED FREE ENERGY PREDICTED BY IDOCK:   -4.26 KCAL/MOL
REMARK 922        TOTAL FREE ENERGY PREDICTED BY IDOCK:   -6.11 KCAL/MOL
REMARK 923 INTER-LIGAND FREE ENERGY PREDICTED BY IDOCK:   -6.28 KCAL/MOL
REMARK 924 INTRA-LIGAND FREE ENERGY PREDICTED BY IDOCK:    0.17 KCAL/MOL
REMARK 927      BINDING AFFINITY PREDICTED BY RF-SCORE:    0.00 PKD
ROOT
HETATM    1  C   UNL     1      -8.082   4.658  73.091  1.00  0.00    -0.100 C  
HETATM    2  C   UNL     1      -7.274   3.651  72.274  1.00  0.00    -0.048 C  
HETATM    3  C   UNL     1      -7.252   2.295  72.992  1.00  0.00    -0.032 C  
HETATM    4  C   UNL     1      -7.847   3.427  70.868  1.00  0.00    -0.047 C  
ENDROOT
BRANCH   4   5
HETATM    5  C   UNL     1      -7.861   4.642  69.938  1.00  0.00    -0.061 C  
BRANCH   5   6
HETATM    6  C   UNL     1      -8.270   5.874  70.773  1.00  0.00    -0.124 C  
HETATM    7  C   UNL     1      -9.428   6.725  70.202  1.00  0.00    -0.159 C  
HETATM    8  C   UNL     1     -10.634   5.797  69.970  1.00  0.00    -0.380 C  
HETATM    9  C   UNL     1      -9.674   8.083  71.110  1.00  0.00    -0.190 C  
HETATM   10  C   UNL     1      -8.450   8.986  70.949  1.00  0.00    -0.253 C  
HETATM   11  C   UNL     1      -8.729   9.793  69.699  1.00  0.00    -0.211 C  
HETATM   12  C   UNL     1     -10.189   9.472  69.265  1.00  0.00    -0.212 C  
HETATM   13  C   UNL     1     -10.754  10.641  68.473  1.00  0.00    -0.252 C  
HETATM   14  C   UNL     1      -9.988  11.401  67.657  1.00  0.00    -0.196 C  
HETATM   15  C   UNL     1     -12.225  10.817  68.677  1.00  0.00     0.207 C  
HETATM   16  C   UNL     1     -12.148   8.142  70.801  1.00  0.00    -0.070 C  
HETATM   17  C   UNL     1     -12.550  10.874  70.190  1.00  0.00    -0.304 C  
HETATM   18  C   UNL     1     -10.877   9.004  70.605  1.00  0.00    -0.295 C  
HETATM   19  C   UNL     1     -11.388  10.378  71.153  1.00  0.00    -0.102 C  
BRANCH  14  20
HETATM   20  C   UNL     1     -10.495  11.989  66.446  1.00  0.00    -0.267 C  
HETATM   21  C   UNL     1     -10.718  13.430  64.473  1.00  0.00    -0.434 C  
HETATM   22  C   UNL     1     -10.317  13.215  65.924  1.00  0.00    -0.295 C  
HETATM   23  C   UNL     1     -11.740  14.553  64.337  1.00  0.00    -0.367 C  
HETATM   24  O   UNL     1     -12.994  14.178  64.911  1.00  0.00    -0.705 OA 
HETATM   25  C   UNL     1     -11.223  15.832  64.984  1.00  0.00    -0.314 C  
HETATM   26  H   UNL     1     -13.631  14.877  64.825  1.00  0.00     0.000 HD 
HETATM   27  C   UNL     1     -10.797  15.608  66.443  1.00  0.00    -0.252 C  
HETATM   28  C   UNL     1      -9.821  14.433  66.575  1.00  0.00    -0.298 C  
HETATM   29  O   UNL     1     -10.220  16.816  66.931  1.00  0.00    -0.279 OA 
HETATM   30  C   UNL     1      -8.628  14.538  67.171  1.00  0.00    -0.242 C  
HETATM   31  H   UNL     1      -9.957  16.677  67.834  1.00  0.00     0.000 HD 
ENDBRANCH  14  20
ENDBRANCH   5   6
ENDBRANCH   4   5
TORSDOF 3
ENDMDL
MODEL       93
REMARK 921   NORMALIZED FREE ENERGY PREDICTED BY IDOCK:   -4.25 KCAL/MOL
REMARK 922        TOTAL FREE ENERGY PREDICTED BY IDOCK:   -6.10 KCAL/MOL
REMARK 923 INTER-LIGAND FREE ENERGY PREDICTED BY IDOCK:   -5.43 KCAL/MOL
REMARK 924 INTRA-LIGAND FREE ENERGY PREDICTED BY IDOCK:   -0.67 KCAL/MOL
REMARK 927      BINDING AFFINITY PREDICTED BY RF-SCORE:    0.00 PKD
ROOT
HETATM    1  C   UNL     1      -9.127   3.471  66.442  1.00  0.00    -0.166 C  
HETATM    2  C   UNL     1      -9.593   4.675  65.624  1.00  0.00    -0.189 C  
HETATM    3  C   UNL     1     -10.217   4.198  64.306  1.00  0.00    -0.133 C  
HETATM    4  C   UNL     1     -10.640   5.524  66.358  1.00  0.00    -0.291 C  
ENDROOT
BRANCH   4   5
HETATM    5  C   UNL     1     -10.186   6.190  67.658  1.00  0.00    -0.214 C  
BRANCH   5   6
HETATM    6  C   UNL     1      -8.813   6.847  67.400  1.00  0.00    -0.118 C  
HETATM    7  C   UNL     1      -8.507   8.122  68.220  1.00  0.00    -0.130 C  
HETATM    8  C   UNL     1      -8.679   7.783  69.712  1.00  0.00    -0.139 C  
HETATM    9  C   UNL     1      -7.077   8.802  67.752  1.00  0.00    -0.083 C  
HETATM   10  C   UNL     1      -7.247   9.325  66.325  1.00  0.00    -0.088 C  
HETATM   11  C   UNL     1      -7.832  10.711  66.490  1.00  0.00    -0.140 C  
HETATM   12  C   UNL     1      -7.817  11.035  68.013  1.00  0.00    -0.112 C  
HETATM   13  C   UNL     1      -7.764  12.541  68.213  1.00  0.00    -0.141 C  
HETATM   14  C   UNL     1      -8.378  13.406  67.373  1.00  0.00    -0.193 C  
HETATM   15  C   UNL     1      -7.001  12.932  69.438  1.00  0.00     0.107 C  
HETATM   16  C   UNL     1      -6.435   9.614  70.022  1.00  0.00    -0.067 C  
HETATM   17  C   UNL     1      -5.608  12.254  69.437  1.00  0.00    -0.078 C  
HETATM   18  C   UNL     1      -6.669  10.109  68.574  1.00  0.00    -0.057 C  
HETATM   19  C   UNL     1      -5.436  11.058  68.405  1.00  0.00    -0.043 C  
BRANCH  14  20
HETATM   20  C   UNL     1      -8.947  14.649  67.823  1.00  0.00    -0.181 C  
HETATM   21  C   UNL     1     -10.534  16.479  68.204  1.00  0.00    -0.313 C  
HETATM   22  C   UNL     1      -9.956  15.383  67.323  1.00  0.00    -0.226 C  
HETATM   23  C   UNL     1     -10.461  17.841  67.522  1.00  0.00    -0.372 C  
HETATM   24  O   UNL     1      -9.107  18.280  67.398  1.00  0.00    -0.251 OA 
HETATM   25  C   UNL     1     -11.129  17.793  66.153  1.00  0.00     0.529 C  
HETATM   26  H   UNL     1      -9.061  19.128  66.973  1.00  0.00     0.000 HD 
HETATM   27  C   UNL     1     -10.559  16.671  65.272  1.00  0.00    -0.205 C  
HETATM   28  C   UNL     1     -10.577  15.318  65.996  1.00  0.00    -0.327 C  
HETATM   29  O   UNL     1     -11.315  16.621  64.066  1.00  0.00    -1.486 OA 
HETATM   30  C   UNL     1     -11.150  14.224  65.483  1.00  0.00    -0.323 C  
HETATM   31  H   UNL     1     -10.963  15.926  63.522  1.00  0.00     0.000 HD 
ENDBRANCH  14  20
ENDBRANCH   5   6
ENDBRANCH   4   5
TORSDOF 3
ENDMDL
MODEL       94
REMARK 921   NORMALIZED FREE ENERGY PREDICTED BY IDOCK:   -4.22 KCAL/MOL
REMARK 922        TOTAL FREE ENERGY PREDICTED BY IDOCK:   -6.07 KCAL/MOL
REMARK 923 INTER-LIGAND FREE ENERGY PREDICTED BY IDOCK:   -5.20 KCAL/MOL
REMARK 924 INTRA-LIGAND FREE ENERGY PREDICTED BY IDOCK:   -0.86 KCAL/MOL
REMARK 927      BINDING AFFINITY PREDICTED BY RF-SCORE:    0.00 PKD
ROOT
HETATM    1  C   UNL     1     -10.877  15.909  65.095  1.00  0.00    -0.438 C  
HETATM    2  C   UNL     1      -9.888  16.666  65.980  1.00  0.00    -0.335 C  
HETATM    3  C   UNL     1     -10.492  18.011  66.405  1.00  0.00    -0.345 C  
HETATM    4  C   UNL     1      -9.520  15.894  67.255  1.00  0.00    -0.217 C  
ENDROOT
BRANCH   4   5
HETATM    5  C   UNL     1      -8.802  14.558  67.059  1.00  0.00    -0.256 C  
BRANCH   5   6
HETATM    6  C   UNL     1      -9.674  13.453  67.691  1.00  0.00    -0.222 C  
HETATM    7  C   UNL     1      -8.976  12.095  67.935  1.00  0.00    -0.184 C  
HETATM    8  C   UNL     1      -7.717  12.350  68.783  1.00  0.00    -0.007 C  
HETATM    9  C   UNL     1     -10.047  10.963  68.481  1.00  0.00    -0.193 C  
HETATM   10  C   UNL     1     -11.034  10.663  67.351  1.00  0.00    -0.361 C  
HETATM   11  C   UNL     1     -10.356   9.595  66.521  1.00  0.00    -0.264 C  
HETATM   12  C   UNL     1      -9.072   9.166  67.290  1.00  0.00    -0.143 C  
HETATM   13  C   UNL     1      -8.701   7.741  66.909  1.00  0.00    -0.136 C  
HETATM   14  C   UNL     1      -8.907   7.246  65.667  1.00  0.00    -0.044 C  
HETATM   15  C   UNL     1      -8.067   6.991  68.036  1.00  0.00    -0.119 C  
HETATM   16  C   UNL     1      -8.428   9.786  69.968  1.00  0.00    -0.229 C  
HETATM   17  C   UNL     1      -8.951   7.087  69.305  1.00  0.00    -0.138 C  
HETATM   18  C   UNL     1      -9.399   9.537  68.789  1.00  0.00    -0.146 C  
HETATM   19  C   UNL     1     -10.076   8.208  69.264  1.00  0.00    -0.202 C  
BRANCH  14  20
HETATM   20  C   UNL     1      -8.029   6.280  65.064  1.00  0.00    -0.120 C  
HETATM   21  C   UNL     1      -7.219   4.295  63.872  1.00  0.00    -0.050 C  
HETATM   22  C   UNL     1      -8.206   4.972  64.809  1.00  0.00    -0.130 C  
HETATM   23  C   UNL     1      -6.540   3.104  64.540  1.00  0.00    -0.035 C  
HETATM   24  O   UNL     1      -5.667   3.534  65.587  1.00  0.00    -0.017 OA 
HETATM   25  C   UNL     1      -7.577   2.129  65.082  1.00  0.00    -0.068 C  
HETATM   26  H   UNL     1      -5.244   2.792  66.004  1.00  0.00     0.000 HD 
HETATM   27  C   UNL     1      -8.588   2.818  66.011  1.00  0.00    -0.117 C  
HETATM   28  C   UNL     1      -9.213   4.053  65.351  1.00  0.00    -0.150 C  
HETATM   29  O   UNL     1      -9.583   1.867  66.374  1.00  0.00    -0.342 OA 
HETATM   30  C   UNL     1     -10.535   4.230  65.239  1.00  0.00    -0.196 C  
HETATM   31  H   UNL     1     -10.209   2.293  66.949  1.00  0.00     0.000 HD 
ENDBRANCH  14  20
ENDBRANCH   5   6
ENDBRANCH   4   5
TORSDOF 3
ENDMDL
MODEL       95
REMARK 921   NORMALIZED FREE ENERGY PREDICTED BY IDOCK:   -4.19 KCAL/MOL
REMARK 922        TOTAL FREE ENERGY PREDICTED BY IDOCK:   -6.03 KCAL/MOL
REMARK 923 INTER-LIGAND FREE ENERGY PREDICTED BY IDOCK:   -4.94 KCAL/MOL
REMARK 924 INTRA-LIGAND FREE ENERGY PREDICTED BY IDOCK:   -1.09 KCAL/MOL
REMARK 927      BINDING AFFINITY PREDICTED BY RF-SCORE:    0.00 PKD
ROOT
HETATM    1  C   UNL     1     -10.888  16.786  68.806  1.00  0.00    -0.318 C  
HETATM    2  C   UNL     1     -10.927  15.314  69.214  1.00  0.00    -0.261 C  
HETATM    3  C   UNL     1     -11.192  15.198  70.721  1.00  0.00    -0.322 C  
HETATM    4  C   UNL     1     -12.019  14.522  68.483  1.00  0.00    -0.321 C  
ENDROOT
BRANCH   4   5
HETATM    5  C   UNL     1     -11.884  14.419  66.963  1.00  0.00    -0.437 C  
BRANCH   5   6
HETATM    6  C   UNL     1     -10.480  13.858  66.649  1.00  0.00    -0.272 C  
HETATM    7  C   UNL     1     -10.344  12.318  66.678  1.00  0.00    -0.237 C  
HETATM    8  C   UNL     1     -11.396  11.727  65.722  1.00  0.00    -0.309 C  
HETATM    9  C   UNL     1      -8.774  11.853  66.466  1.00  0.00    -0.158 C  
HETATM   10  C   UNL     1      -7.978  12.308  67.690  1.00  0.00    -0.161 C  
HETATM   11  C   UNL     1      -8.153  11.194  68.699  1.00  0.00    -0.150 C  
HETATM   12  C   UNL     1      -8.893  10.033  67.973  1.00  0.00    -0.125 C  
HETATM   13  C   UNL     1      -8.552   8.712  68.644  1.00  0.00    -0.131 C  
HETATM   14  C   UNL     1      -8.337   8.610  69.976  1.00  0.00    -0.124 C  
HETATM   15  C   UNL     1      -8.520   7.569  67.681  1.00  0.00    -0.117 C  
HETATM   16  C   UNL     1      -9.300   9.775  65.192  1.00  0.00    -0.322 C  
HETATM   17  C   UNL     1      -7.607   7.911  66.478  1.00  0.00    -0.092 C  
HETATM   18  C   UNL     1      -8.551  10.273  66.452  1.00  0.00    -0.138 C  
HETATM   19  C   UNL     1      -7.227   9.446  66.329  1.00  0.00    -0.092 C  
BRANCH  14  20
HETATM   20  C   UNL     1      -8.694   7.437  70.729  1.00  0.00    -0.145 C  
HETATM   21  C   UNL     1      -8.528   5.336  71.984  1.00  0.00    -0.126 C  
HETATM   22  C   UNL     1      -8.066   6.256  70.865  1.00  0.00    -0.124 C  
HETATM   23  C   UNL     1      -8.955   3.974  71.446  1.00  0.00    -0.111 C  
HETATM   24  O   UNL     1     -10.152   4.081  70.673  1.00  0.00    -0.143 OA 
HETATM   25  C   UNL     1      -7.841   3.351  70.614  1.00  0.00    -0.043 C  
HETATM   26  H   UNL     1     -10.418   3.233  70.338  1.00  0.00     0.000 HD 
HETATM   27  C   UNL     1      -7.360   4.291  69.498  1.00  0.00    -0.050 C  
HETATM   28  C   UNL     1      -6.997   5.679  70.043  1.00  0.00    -0.065 C  
HETATM   29  O   UNL     1      -6.246   3.684  68.850  1.00  0.00    -0.027 OA 
HETATM   30  C   UNL     1      -5.811   6.259  69.830  1.00  0.00    -0.018 C  
HETATM   31  H   UNL     1      -5.948   4.266  68.161  1.00  0.00     0.000 HD 
ENDBRANCH  14  20
ENDBRANCH   5   6
ENDBRANCH   4   5
TORSDOF 3
ENDMDL
MODEL       96
REMARK 921   NORMALIZED FREE ENERGY PREDICTED BY IDOCK:   -4.17 KCAL/MOL
REMARK 922        TOTAL FREE ENERGY PREDICTED BY IDOCK:   -6.00 KCAL/MOL
REMARK 923 INTER-LIGAND FREE ENERGY PREDICTED BY IDOCK:   -6.10 KCAL/MOL
REMARK 924 INTRA-LIGAND FREE ENERGY PREDICTED BY IDOCK:    0.10 KCAL/MOL
REMARK 927      BINDING AFFINITY PREDICTED BY RF-SCORE:    0.00 PKD
ROOT
HETATM    1  C   UNL     1      -8.367   4.281  71.641  1.00  0.00    -0.100 C  
HETATM    2  C   UNL     1      -9.640   4.251  72.486  1.00  0.00    -0.187 C  
HETATM    3  C   UNL     1      -9.355   3.574  73.833  1.00  0.00    -0.108 C  
HETATM    4  C   UNL     1     -10.195   5.653  72.775  1.00  0.00    -0.213 C  
ENDROOT
BRANCH   4   5
HETATM    5  C   UNL     1     -10.647   6.469  71.562  1.00  0.00    -0.265 C  
BRANCH   5   6
HETATM    6  C   UNL     1      -9.418   6.687  70.653  1.00  0.00    -0.174 C  
HETATM    7  C   UNL     1      -8.815   8.110  70.659  1.00  0.00    -0.143 C  
HETATM    8  C   UNL     1      -8.490   8.486  72.116  1.00  0.00    -0.221 C  
HETATM    9  C   UNL     1      -7.602   8.249  69.547  1.00  0.00    -0.095 C  
HETATM   10  C   UNL     1      -8.222   8.126  68.154  1.00  0.00    -0.129 C  
HETATM   11  C   UNL     1      -8.674   9.529  67.809  1.00  0.00    -0.115 C  
HETATM   12  C   UNL     1      -8.141  10.469  68.930  1.00  0.00    -0.138 C  
HETATM   13  C   UNL     1      -7.975  11.876  68.380  1.00  0.00    -0.154 C  
HETATM   14  C   UNL     1      -8.806  12.390  67.444  1.00  0.00    -0.188 C  
HETATM   15  C   UNL     1      -6.835  12.610  69.009  1.00  0.00    -0.083 C  
HETATM   16  C   UNL     1      -6.214   9.826  70.890  1.00  0.00    -0.084 C  
HETATM   17  C   UNL     1      -5.545  11.755  68.934  1.00  0.00    -0.050 C  
HETATM   18  C   UNL     1      -6.902   9.683  69.511  1.00  0.00    -0.056 C  
HETATM   19  C   UNL     1      -5.766  10.223  68.579  1.00  0.00    -0.037 C  
BRANCH  14  20
HETATM   20  C   UNL     1      -9.152  13.786  67.400  1.00  0.00    -0.221 C  
HETATM   21  C   UNL     1     -10.455  15.858  67.232  1.00  0.00    -0.310 C  
HETATM   22  C   UNL     1     -10.197  14.414  66.832  1.00  0.00    -0.265 C  
HETATM   23  C   UNL     1     -10.453  16.783  66.020  1.00  0.00    -0.293 C  
HETATM   24  O   UNL     1      -9.143  16.889  65.459  1.00  0.00    -0.414 OA 
HETATM   25  C   UNL     1     -11.441  16.293  64.969  1.00  0.00     0.060 C  
HETATM   26  H   UNL     1      -9.142  17.465  64.704  1.00  0.00     0.000 HD 
HETATM   27  C   UNL     1     -11.193  14.827  64.582  1.00  0.00    -0.342 C  
HETATM   28  C   UNL     1     -11.130  13.918  65.815  1.00  0.00    -0.294 C  
HETATM   29  O   UNL     1     -12.226  14.419  63.691  1.00  0.00    -0.988 OA 
HETATM   30  C   UNL     1     -11.893  12.828  65.958  1.00  0.00    -0.495 C  
HETATM   31  H   UNL     1     -12.073  13.512  63.452  1.00  0.00     0.000 HD 
ENDBRANCH  14  20
ENDBRANCH   5   6
ENDBRANCH   4   5
TORSDOF 3
ENDMDL
MODEL       97
REMARK 921   NORMALIZED FREE ENERGY PREDICTED BY IDOCK:   -4.16 KCAL/MOL
REMARK 922        TOTAL FREE ENERGY PREDICTED BY IDOCK:   -6.00 KCAL/MOL
REMARK 923 INTER-LIGAND FREE ENERGY PREDICTED BY IDOCK:   -5.57 KCAL/MOL
REMARK 924 INTRA-LIGAND FREE ENERGY PREDICTED BY IDOCK:   -0.43 KCAL/MOL
REMARK 927      BINDING AFFINITY PREDICTED BY RF-SCORE:    0.00 PKD
ROOT
HETATM    1  C   UNL     1     -10.476  17.748  67.424  1.00  0.00    -0.367 C  
HETATM    2  C   UNL     1      -9.459  17.489  66.313  1.00  0.00    -0.238 C  
HETATM    3  C   UNL     1      -8.249  18.416  66.488  1.00  0.00    -0.289 C  
HETATM    4  C   UNL     1      -8.944  16.043  66.304  1.00  0.00    -0.380 C  
ENDROOT
BRANCH   4   5
HETATM    5  C   UNL     1      -9.982  14.953  66.034  1.00  0.00    -0.337 C  
BRANCH   5   6
HETATM    6  C   UNL     1     -10.193  14.164  67.345  1.00  0.00    -0.244 C  
HETATM    7  C   UNL     1      -9.410  12.837  67.470  1.00  0.00    -0.189 C  
HETATM    8  C   UNL     1      -7.917  13.140  67.249  1.00  0.00    -0.140 C  
HETATM    9  C   UNL     1      -9.827  12.026  68.847  1.00  0.00     0.039 C  
HETATM   10  C   UNL     1     -11.281  11.574  68.706  1.00  0.00    -0.309 C  
HETATM   11  C   UNL     1     -11.204  10.252  67.972  1.00  0.00    -0.303 C  
HETATM   12  C   UNL     1      -9.696   9.877  67.866  1.00  0.00    -0.162 C  
HETATM   13  C   UNL     1      -9.554   8.367  67.752  1.00  0.00    -0.185 C  
HETATM   14  C   UNL     1     -10.459   7.601  67.101  1.00  0.00    -0.412 C  
HETATM   15  C   UNL     1      -8.307   7.856  68.400  1.00  0.00    -0.124 C  
HETATM   16  C   UNL     1      -7.561  11.075  69.271  1.00  0.00    -0.090 C  
HETATM   17  C   UNL     1      -8.206   8.384  69.853  1.00  0.00    -0.122 C  
HETATM   18  C   UNL     1      -9.038  10.656  69.070  1.00  0.00    -0.174 C  
HETATM   19  C   UNL     1      -9.179   9.589  70.206  1.00  0.00    -0.303 C  
BRANCH  14  20
HETATM   20  C   UNL     1     -10.091   6.410  66.383  1.00  0.00    -0.078 C  
HETATM   21  C   UNL     1      -9.741   4.050  65.813  1.00  0.00    -0.192 C  
HETATM   22  C   UNL     1      -9.769   5.182  66.827  1.00  0.00    -0.178 C  
HETATM   23  C   UNL     1      -8.380   3.363  65.778  1.00  0.00    -0.103 C  
HETATM   24  O   UNL     1      -7.381   4.232  65.240  1.00  0.00    -0.070 OA 
HETATM   25  C   UNL     1      -7.980   2.895  67.172  1.00  0.00    -0.075 C  
HETATM   26  H   UNL     1      -6.533   3.804  65.219  1.00  0.00     0.000 HD 
HETATM   27  C   UNL     1      -8.029   4.035  68.200  1.00  0.00    -0.077 C  
HETATM   28  C   UNL     1      -9.380   4.761  68.177  1.00  0.00    -0.172 C  
HETATM   29  O   UNL     1      -7.758   3.489  69.488  1.00  0.00    -0.051 OA 
HETATM   30  C   UNL     1     -10.136   4.931  69.268  1.00  0.00    -0.248 C  
HETATM   31  H   UNL     1      -7.789   4.194  70.124  1.00  0.00     0.000 HD 
ENDBRANCH  14  20
ENDBRANCH   5   6
ENDBRANCH   4   5
TORSDOF 3
ENDMDL
MODEL       98
REMARK 921   NORMALIZED FREE ENERGY PREDICTED BY IDOCK:   -4.08 KCAL/MOL
REMARK 922        TOTAL FREE ENERGY PREDICTED BY IDOCK:   -5.89 KCAL/MOL
REMARK 923 INTER-LIGAND FREE ENERGY PREDICTED BY IDOCK:   -5.29 KCAL/MOL
REMARK 924 INTRA-LIGAND FREE ENERGY PREDICTED BY IDOCK:   -0.61 KCAL/MOL
REMARK 927      BINDING AFFINITY PREDICTED BY RF-SCORE:    0.00 PKD
ROOT
HETATM    1  C   UNL     1     -13.670  15.114  70.828  1.00  0.00    -0.244 C  
HETATM    2  C   UNL     1     -12.504  14.275  71.349  1.00  0.00    -0.437 C  
HETATM    3  C   UNL     1     -12.951  13.463  72.571  1.00  0.00    -0.312 C  
HETATM    4  C   UNL     1     -11.965  13.289  70.303  1.00  0.00    -0.372 C  
ENDROOT
BRANCH   4   5
HETATM    5  C   UNL     1     -11.365  13.902  69.036  1.00  0.00    -0.324 C  
BRANCH   5   6
HETATM    6  C   UNL     1     -10.308  12.919  68.489  1.00  0.00    -0.239 C  
HETATM    7  C   UNL     1     -10.602  11.417  68.709  1.00  0.00    -0.235 C  
HETATM    8  C   UNL     1     -11.990  11.110  68.118  1.00  0.00    -0.131 C  
HETATM    9  C   UNL     1      -9.336  10.482  68.207  1.00  0.00    -0.156 C  
HETATM   10  C   UNL     1      -8.151  10.756  69.134  1.00  0.00    -0.133 C  
HETATM   11  C   UNL     1      -8.354   9.820  70.306  1.00  0.00    -0.172 C  
HETATM   12  C   UNL     1      -9.552   8.893  69.947  1.00  0.00    -0.185 C  
HETATM   13  C   UNL     1      -9.426   7.580  70.704  1.00  0.00    -0.164 C  
HETATM   14  C   UNL     1      -8.903   7.509  71.950  1.00  0.00    -0.134 C  
HETATM   15  C   UNL     1      -9.968   6.418  69.935  1.00  0.00    -0.198 C  
HETATM   16  C   UNL     1     -10.736   8.580  67.404  1.00  0.00    -0.215 C  
HETATM   17  C   UNL     1      -9.348   6.382  68.516  1.00  0.00    -0.122 C  
HETATM   18  C   UNL     1      -9.572   8.911  68.369  1.00  0.00    -0.157 C  
HETATM   19  C   UNL     1      -8.611   7.714  68.063  1.00  0.00    -0.123 C  
BRANCH  14  20
HETATM   20  C   UNL     1      -9.359   6.557  72.927  1.00  0.00    -0.144 C  
HETATM   21  C   UNL     1      -9.448   4.605  74.410  1.00  0.00    -0.136 C  
HETATM   22  C   UNL     1      -9.053   5.258  73.095  1.00  0.00    -0.127 C  
HETATM   23  C   UNL     1     -10.341   3.390  74.185  1.00  0.00    -0.182 C  
HETATM   24  O   UNL     1     -11.621   3.781  73.682  1.00  0.00    -0.166 OA 
HETATM   25  C   UNL     1      -9.677   2.405  73.231  1.00  0.00    -0.146 C  
HETATM   26  H   UNL     1     -12.177   3.025  73.542  1.00  0.00     0.000 HD 
HETATM   27  C   UNL     1      -9.259   3.071  71.912  1.00  0.00    -0.110 C  
HETATM   28  C   UNL     1      -8.417   4.330  72.155  1.00  0.00    -0.111 C  
HETATM   29  O   UNL     1      -8.545   2.115  71.134  1.00  0.00    -0.056 OA 
HETATM   30  C   UNL     1      -7.211   4.518  71.607  1.00  0.00    -0.063 C  
HETATM   31  H   UNL     1      -8.286   2.527  70.318  1.00  0.00     0.000 HD 
ENDBRANCH  14  20
ENDBRANCH   5   6
ENDBRANCH   4   5
TORSDOF 3
ENDMDL
MODEL       99
REMARK 921   NORMALIZED FREE ENERGY PREDICTED BY IDOCK:   -4.07 KCAL/MOL
REMARK 922        TOTAL FREE ENERGY PREDICTED BY IDOCK:   -5.89 KCAL/MOL
REMARK 923 INTER-LIGAND FREE ENERGY PREDICTED BY IDOCK:   -4.86 KCAL/MOL
REMARK 924 INTRA-LIGAND FREE ENERGY PREDICTED BY IDOCK:   -1.03 KCAL/MOL
REMARK 927      BINDING AFFINITY PREDICTED BY RF-SCORE:    0.00 PKD
ROOT
HETATM    1  C   UNL     1     -11.206  16.244  68.026  1.00  0.00    -0.260 C  
HETATM    2  C   UNL     1     -11.225  14.818  68.577  1.00  0.00    -0.291 C  
HETATM    3  C   UNL     1     -11.488  14.848  70.089  1.00  0.00    -0.320 C  
HETATM    4  C   UNL     1     -12.309  13.945  67.930  1.00  0.00    -0.016 C  
ENDROOT
BRANCH   4   5
HETATM    5  C   UNL     1     -12.173  13.694  66.427  1.00  0.00    -0.472 C  
BRANCH   5   6
HETATM    6  C   UNL     1     -10.712  13.285  66.145  1.00  0.00    -0.287 C  
HETATM    7  C   UNL     1     -10.495  11.830  65.670  1.00  0.00    -0.308 C  
HETATM    8  C   UNL     1     -11.378  11.595  64.431  1.00  0.00    -0.334 C  
HETATM    9  C   UNL     1      -8.886  11.479  65.538  1.00  0.00     0.036 C  
HETATM   10  C   UNL     1      -8.284  11.492  66.944  1.00  0.00    -0.167 C  
HETATM   11  C   UNL     1      -8.526  10.098  67.480  1.00  0.00    -0.118 C  
HETATM   12  C   UNL     1      -9.099   9.251  66.307  1.00  0.00    -0.213 C  
HETATM   13  C   UNL     1      -8.775   7.782  66.532  1.00  0.00    -0.162 C  
HETATM   14  C   UNL     1      -8.730   7.231  67.767  1.00  0.00    -0.126 C  
HETATM   15  C   UNL     1      -8.553   7.040  65.253  1.00  0.00     0.001 C  
HETATM   16  C   UNL     1      -9.124   9.960  63.575  1.00  0.00    -0.289 C  
HETATM   17  C   UNL     1      -7.512   7.781  64.380  1.00  0.00    -0.099 C  
HETATM   18  C   UNL     1      -8.575  10.001  65.021  1.00  0.00    -0.173 C  
HETATM   19  C   UNL     1      -7.202   9.277  64.815  1.00  0.00    -0.103 C  
BRANCH  14  20
HETATM   20  C   UNL     1      -9.117   5.869  68.020  1.00  0.00    -0.117 C  
HETATM   21  C   UNL     1      -9.045   3.523  68.732  1.00  0.00    -0.204 C  
HETATM   22  C   UNL     1      -8.374   4.756  68.147  1.00  0.00    -0.098 C  
HETATM   23  C   UNL     1      -8.957   2.334  67.781  1.00  0.00    -0.157 C  
HETATM   24  O   UNL     1      -9.757   2.550  66.616  1.00  0.00    -0.378 OA 
HETATM   25  C   UNL     1      -7.510   2.067  67.386  1.00  0.00    -0.059 C  
HETATM   26  H   UNL     1      -9.703   1.810  66.024  1.00  0.00     0.000 HD 
HETATM   27  C   UNL     1      -6.826   3.320  66.816  1.00  0.00    -0.053 C  
HETATM   28  C   UNL     1      -6.980   4.525  67.752  1.00  0.00    -0.060 C  
HETATM   29  O   UNL     1      -5.454   3.015  66.587  1.00  0.00    -0.015 OA 
HETATM   30  C   UNL     1      -5.941   5.241  68.197  1.00  0.00    -0.022 C  
HETATM   31  H   UNL     1      -5.031   3.790  66.235  1.00  0.00     0.000 HD 
ENDBRANCH  14  20
ENDBRANCH   5   6
ENDBRANCH   4   5
TORSDOF 3
ENDMDL
MODEL      100
REMARK 921   NORMALIZED FREE ENERGY PREDICTED BY IDOCK:   -4.04 KCAL/MOL
REMARK 922        TOTAL FREE ENERGY PREDICTED BY IDOCK:   -5.85 KCAL/MOL
REMARK 923 INTER-LIGAND FREE ENERGY PREDICTED BY IDOCK:   -5.46 KCAL/MOL
REMARK 924 INTRA-LIGAND FREE ENERGY PREDICTED BY IDOCK:   -0.38 KCAL/MOL
REMARK 927      BINDING AFFINITY PREDICTED BY RF-SCORE:    0.00 PKD
ROOT
HETATM    1  C   UNL     1     -10.568   4.572  65.651  1.00  0.00    -0.231 C  
HETATM    2  C   UNL     1     -10.093   5.670  66.601  1.00  0.00    -0.237 C  
HETATM    3  C   UNL     1     -11.283   6.540  67.028  1.00  0.00    -0.280 C  
HETATM    4  C   UNL     1      -9.439   5.114  67.874  1.00  0.00    -0.155 C  
ENDROOT
BRANCH   4   5
HETATM    5  C   UNL     1      -8.160   4.297  67.680  1.00  0.00    -0.095 C  
BRANCH   5   6
HETATM    6  C   UNL     1      -6.959   5.255  67.829  1.00  0.00    -0.065 C  
HETATM    7  C   UNL     1      -7.268   6.639  68.445  1.00  0.00    -0.085 C  
HETATM    8  C   UNL     1      -7.959   6.414  69.803  1.00  0.00    -0.119 C  
HETATM    9  C   UNL     1      -5.936   7.614  68.421  1.00  0.00    -0.032 C  
HETATM   10  C   UNL     1      -5.613   7.935  66.960  1.00  0.00    -0.033 C  
HETATM   11  C   UNL     1      -6.476   9.135  66.630  1.00  0.00    -0.067 C  
HETATM   12  C   UNL     1      -7.142   9.597  67.959  1.00  0.00    -0.080 C  
HETATM   13  C   UNL     1      -7.472  11.079  67.875  1.00  0.00    -0.093 C  
HETATM   14  C   UNL     1      -7.851  11.672  66.720  1.00  0.00    -0.130 C  
HETATM   15  C   UNL     1      -7.362  11.769  69.197  1.00  0.00    -0.005 C  
HETATM   16  C   UNL     1      -6.440   8.778  70.567  1.00  0.00    -0.040 C  
HETATM   17  C   UNL     1      -5.985  11.473  69.840  1.00  0.00    -0.130 C  
HETATM   18  C   UNL     1      -6.161   9.055  69.070  1.00  0.00    -0.043 C  
HETATM   19  C   UNL     1      -5.178  10.267  69.192  1.00  0.00    -0.038 C  
BRANCH  14  20
HETATM   20  C   UNL     1      -8.785  12.766  66.682  1.00  0.00    -0.065 C  
HETATM   21  C   UNL     1     -10.884  14.032  66.593  1.00  0.00    -0.297 C  
HETATM   22  C   UNL     1     -10.037  12.833  66.196  1.00  0.00    -0.274 C  
HETATM   23  C   UNL     1     -11.380  14.796  65.370  1.00  0.00    -0.356 C  
HETATM   24  O   UNL     1     -10.298  15.441  64.695  1.00  0.00    -0.510 OA 
HETATM   25  C   UNL     1     -12.117  13.863  64.417  1.00  0.00    -0.477 C  
HETATM   26  H   UNL     1     -10.607  15.917  63.933  1.00  0.00     0.000 HD 
HETATM   27  C   UNL     1     -11.269  12.641  64.034  1.00  0.00    -0.406 C  
HETATM   28  C   UNL     1     -10.720  11.921  65.273  1.00  0.00    -0.331 C  
HETATM   29  O   UNL     1     -12.071  11.769  63.243  1.00  0.00    -0.791 OA 
HETATM   30  C   UNL     1     -10.904  10.616  65.499  1.00  0.00     0.000 C  
HETATM   31  H   UNL     1     -11.546  11.013  63.007  1.00  0.00     0.000 HD 
ENDBRANCH  14  20
ENDBRANCH   5   6
ENDBRANCH   4   5
TORSDOF 3
ENDMDL
MODEL      101
REMARK 921   NORMALIZED FREE ENERGY PREDICTED BY IDOCK:   -4.00 KCAL/MOL
REMARK 922        TOTAL FREE ENERGY PREDICTED BY IDOCK:   -5.80 KCAL/MOL
REMARK 923 INTER-LIGAND FREE ENERGY PREDICTED BY IDOCK:   -4.59 KCAL/MOL
REMARK 924 INTRA-LIGAND FREE ENERGY PREDICTED BY IDOCK:   -1.21 KCAL/MOL
REMARK 927      BINDING AFFINITY PREDICTED BY RF-SCORE:    0.00 PKD
ROOT
HETATM    1  C   UNL     1     -12.267  13.522  64.679  1.00  0.00    -0.450 C  
HETATM    2  C   UNL     1     -11.126  14.418  65.157  1.00  0.00    -0.365 C  
HETATM    3  C   UNL     1     -11.100  15.713  64.336  1.00  0.00    -0.178 C  
HETATM    4  C   UNL     1     -11.253  14.804  66.637  1.00  0.00    -0.346 C  
ENDROOT
BRANCH   4   5
HETATM    5  C   UNL     1     -11.192  13.658  67.648  1.00  0.00    -0.303 C  
BRANCH   5   6
HETATM    6  C   UNL     1      -9.899  12.858  67.380  1.00  0.00    -0.207 C  
HETATM    7  C   UNL     1      -9.971  11.339  67.662  1.00  0.00    -0.197 C  
HETATM    8  C   UNL     1     -11.150  10.759  66.859  1.00  0.00    -0.204 C  
HETATM    9  C   UNL     1      -8.494  10.626  67.471  1.00  0.00    -0.121 C  
HETATM   10  C   UNL     1      -7.570  11.153  68.570  1.00  0.00    -0.120 C  
HETATM   11  C   UNL     1      -7.831  10.252  69.758  1.00  0.00    -0.151 C  
HETATM   12  C   UNL     1      -8.765   9.108  69.266  1.00  0.00    -0.139 C  
HETATM   13  C   UNL     1      -8.565   7.877  70.135  1.00  0.00    -0.134 C  
HETATM   14  C   UNL     1      -8.284   7.961  71.456  1.00  0.00    -0.122 C  
HETATM   15  C   UNL     1      -8.747   6.601  69.377  1.00  0.00    -0.135 C  
HETATM   16  C   UNL     1      -9.373   8.467  66.585  1.00  0.00    -0.243 C  
HETATM   17  C   UNL     1      -7.871   6.611  68.100  1.00  0.00    -0.110 C  
HETATM   18  C   UNL     1      -8.487   9.048  67.714  1.00  0.00    -0.117 C  
HETATM   19  C   UNL     1      -7.297   8.032  67.681  1.00  0.00    -0.093 C  
BRANCH  14  20
HETATM   20  C   UNL     1      -8.750   6.989  72.409  1.00  0.00    -0.136 C  
HETATM   21  C   UNL     1      -8.772   5.208  74.097  1.00  0.00    -0.113 C  
HETATM   22  C   UNL     1      -8.182   5.853  72.852  1.00  0.00    -0.118 C  
HETATM   23  C   UNL     1      -9.206   3.771  73.829  1.00  0.00    -0.089 C  
HETATM   24  O   UNL     1     -10.329   3.732  72.946  1.00  0.00    -0.155 OA 
HETATM   25  C   UNL     1      -8.052   2.959  73.255  1.00  0.00    -0.068 C  
HETATM   26  H   UNL     1     -10.600   2.836  72.779  1.00  0.00     0.000 HD 
HETATM   27  C   UNL     1      -7.442   3.623  72.010  1.00  0.00    -0.057 C  
HETATM   28  C   UNL     1      -7.072   5.088  72.274  1.00  0.00    -0.083 C  
HETATM   29  O   UNL     1      -6.304   2.866  71.612  1.00  0.00    -0.014 OA 
HETATM   30  C   UNL     1      -5.850   5.583  72.049  1.00  0.00    -0.025 C  
HETATM   31  H   UNL     1      -5.926   3.277  70.843  1.00  0.00     0.000 HD 
ENDBRANCH  14  20
ENDBRANCH   5   6
ENDBRANCH   4   5
TORSDOF 3
ENDMDL
MODEL      102
REMARK 921   NORMALIZED FREE ENERGY PREDICTED BY IDOCK:   -3.90 KCAL/MOL
REMARK 922        TOTAL FREE ENERGY PREDICTED BY IDOCK:   -5.69 KCAL/MOL
REMARK 923 INTER-LIGAND FREE ENERGY PREDICTED BY IDOCK:   -5.15 KCAL/MOL
REMARK 924 INTRA-LIGAND FREE ENERGY PREDICTED BY IDOCK:   -0.54 KCAL/MOL
REMARK 927      BINDING AFFINITY PREDICTED BY RF-SCORE:    0.00 PKD
ROOT
HETATM    1  C   UNL     1     -10.005  17.827  65.995  1.00  0.00    -0.219 C  
HETATM    2  C   UNL     1      -9.607  18.932  66.973  1.00  0.00    -0.348 C  
HETATM    3  C   UNL     1      -9.978  20.302  66.390  1.00  0.00    -0.507 C  
HETATM    4  C   UNL     1     -10.300  18.798  68.336  1.00  0.00    -0.360 C  
ENDROOT
BRANCH   4   5
HETATM    5  C   UNL     1      -9.978  17.539  69.142  1.00  0.00    -0.197 C  
BRANCH   5   6
HETATM    6  C   UNL     1     -10.964  16.433  68.708  1.00  0.00    -0.344 C  
HETATM    7  C   UNL     1     -10.556  14.984  69.061  1.00  0.00    -0.245 C  
HETATM    8  C   UNL     1     -10.293  14.918  70.576  1.00  0.00     0.257 C  
HETATM    9  C   UNL     1     -11.618  13.892  68.423  1.00  0.00    -0.368 C  
HETATM   10  C   UNL     1     -11.487  13.942  66.899  1.00  0.00    -0.370 C  
HETATM   11  C   UNL     1     -10.349  12.996  66.580  1.00  0.00    -0.278 C  
HETATM   12  C   UNL     1      -9.967  12.278  67.907  1.00  0.00    -0.202 C  
HETATM   13  C   UNL     1      -9.340  10.928  67.594  1.00  0.00    -0.163 C  
HETATM   14  C   UNL     1      -8.569  10.723  66.501  1.00  0.00    -0.150 C  
HETATM   15  C   UNL     1      -9.645   9.897  68.633  1.00  0.00    -0.159 C  
HETATM   16  C   UNL     1     -11.458  12.262  70.303  1.00  0.00     0.096 C  
HETATM   17  C   UNL     1     -11.171   9.832  68.887  1.00  0.00    -0.076 C  
HETATM   18  C   UNL     1     -11.285  12.370  68.769  1.00  0.00    -0.318 C  
HETATM   19  C   UNL     1     -12.007  11.057  68.317  1.00  0.00    -0.113 C  
BRANCH  14  20
HETATM   20  C   UNL     1      -7.459   9.808  66.498  1.00  0.00    -0.095 C  
HETATM   21  C   UNL     1      -5.665   8.327  65.719  1.00  0.00    -0.040 C  
HETATM   22  C   UNL     1      -7.058   8.919  65.572  1.00  0.00    -0.080 C  
HETATM   23  C   UNL     1      -5.710   6.804  65.793  1.00  0.00    -0.030 C  
HETATM   24  O   UNL     1      -6.319   6.368  67.010  1.00  0.00    -0.038 OA 
HETATM   25  C   UNL     1      -6.454   6.230  64.594  1.00  0.00    -0.034 C  
HETATM   26  H   UNL     1      -6.347   5.420  67.056  1.00  0.00     0.000 HD 
HETATM   27  C   UNL     1      -7.852   6.845  64.433  1.00  0.00    -0.112 C  
HETATM   28  C   UNL     1      -7.800   8.378  64.428  1.00  0.00    -0.141 C  
HETATM   29  O   UNL     1      -8.426   6.344  63.230  1.00  0.00    -0.324 OA 
HETATM   30  C   UNL     1      -8.328   9.123  63.450  1.00  0.00    -0.192 C  
HETATM   31  H   UNL     1      -9.291   6.725  63.130  1.00  0.00     0.000 HD 
ENDBRANCH  14  20
ENDBRANCH   5   6
ENDBRANCH   4   5
TORSDOF 3
ENDMDL
MODEL      103
REMARK 921   NORMALIZED FREE ENERGY PREDICTED BY IDOCK:   -3.86 KCAL/MOL
REMARK 922        TOTAL FREE ENERGY PREDICTED BY IDOCK:   -5.64 KCAL/MOL
REMARK 923 INTER-LIGAND FREE ENERGY PREDICTED BY IDOCK:   -5.57 KCAL/MOL
REMARK 924 INTRA-LIGAND FREE ENERGY PREDICTED BY IDOCK:   -0.07 KCAL/MOL
REMARK 927      BINDING AFFINITY PREDICTED BY RF-SCORE:    0.00 PKD
ROOT
HETATM    1  C   UNL     1     -11.256   7.455  69.231  1.00  0.00     0.083 C  
HETATM    2  C   UNL     1     -10.580   8.102  70.439  1.00  0.00    -0.226 C  
HETATM    3  C   UNL     1     -11.530   9.119  71.085  1.00  0.00    -0.388 C  
HETATM    4  C   UNL     1     -10.184   7.082  71.516  1.00  0.00    -0.211 C  
ENDROOT
BRANCH   4   5
HETATM    5  C   UNL     1      -9.151   6.030  71.108  1.00  0.00    -0.153 C  
BRANCH   5   6
HETATM    6  C   UNL     1      -8.472   6.510  69.808  1.00  0.00    -0.131 C  
HETATM    7  C   UNL     1      -7.826   7.913  69.859  1.00  0.00    -0.103 C  
HETATM    8  C   UNL     1      -6.833   7.939  71.036  1.00  0.00    -0.041 C  
HETATM    9  C   UNL     1      -7.261   8.365  68.375  1.00  0.00    -0.085 C  
HETATM   10  C   UNL     1      -8.464   8.558  67.451  1.00  0.00    -0.127 C  
HETATM   11  C   UNL     1      -8.913   9.983  67.694  1.00  0.00    -0.135 C  
HETATM   12  C   UNL     1      -7.848  10.645  68.617  1.00  0.00    -0.121 C  
HETATM   13  C   UNL     1      -7.847  12.149  68.397  1.00  0.00    -0.149 C  
HETATM   14  C   UNL     1      -8.974  12.840  68.109  1.00  0.00    -0.199 C  
HETATM   15  C   UNL     1      -6.490  12.755  68.567  1.00  0.00    -0.082 C  
HETATM   16  C   UNL     1      -5.288   9.627  69.233  1.00  0.00    -0.035 C  
HETATM   17  C   UNL     1      -5.455  11.997  67.700  1.00  0.00    -0.082 C  
HETATM   18  C   UNL     1      -6.547   9.793  68.348  1.00  0.00    -0.056 C  
HETATM   19  C   UNL     1      -5.936  10.588  67.146  1.00  0.00    -0.054 C  
BRANCH  14  20
HETATM   20  C   UNL     1      -9.189  14.190  68.557  1.00  0.00    -0.187 C  
HETATM   21  C   UNL     1     -10.236  16.374  68.950  1.00  0.00    -0.258 C  
HETATM   22  C   UNL     1      -9.982  15.161  68.069  1.00  0.00    -0.221 C  
HETATM   23  C   UNL     1      -9.823  17.666  68.254  1.00  0.00    -0.324 C  
HETATM   24  O   UNL     1      -8.404  17.736  68.102  1.00  0.00    -0.248 OA 
HETATM   25  C   UNL     1     -10.507  17.788  66.898  1.00  0.00    -0.308 C  
HETATM   26  H   UNL     1      -8.146  18.541  67.668  1.00  0.00     0.000 HD 
HETATM   27  C   UNL     1     -10.268  16.552  66.017  1.00  0.00    -0.356 C  
HETATM   28  C   UNL     1     -10.624  15.255  66.753  1.00  0.00    -0.304 C  
HETATM   29  O   UNL     1     -11.034  16.697  64.826  1.00  0.00    -0.705 OA 
HETATM   30  C   UNL     1     -11.473  14.346  66.261  1.00  0.00    -0.361 C  
HETATM   31  H   UNL     1     -10.886  15.932  64.281  1.00  0.00     0.000 HD 
ENDBRANCH  14  20
ENDBRANCH   5   6
ENDBRANCH   4   5
TORSDOF 3
ENDMDL
MODEL      104
REMARK 921   NORMALIZED FREE ENERGY PREDICTED BY IDOCK:   -3.76 KCAL/MOL
REMARK 922        TOTAL FREE ENERGY PREDICTED BY IDOCK:   -5.52 KCAL/MOL
REMARK 923 INTER-LIGAND FREE ENERGY PREDICTED BY IDOCK:   -5.06 KCAL/MOL
REMARK 924 INTRA-LIGAND FREE ENERGY PREDICTED BY IDOCK:   -0.46 KCAL/MOL
REMARK 927      BINDING AFFINITY PREDICTED BY RF-SCORE:    0.00 PKD
ROOT
HETATM    1  C   UNL     1     -10.766   3.208  64.239  1.00  0.00     0.079 C  
HETATM    2  C   UNL     1      -9.983   4.321  64.935  1.00  0.00    -0.180 C  
HETATM    3  C   UNL     1     -10.692   4.722  66.235  1.00  0.00    -0.120 C  
HETATM    4  C   UNL     1      -8.549   3.906  65.291  1.00  0.00    -0.114 C  
ENDROOT
BRANCH   4   5
HETATM    5  C   UNL     1      -7.628   3.565  64.118  1.00  0.00    -0.075 C  
BRANCH   5   6
HETATM    6  C   UNL     1      -7.035   4.886  63.582  1.00  0.00    -0.047 C  
HETATM    7  C   UNL     1      -6.953   6.052  64.593  1.00  0.00    -0.052 C  
HETATM    8  C   UNL     1      -6.170   5.562  65.825  1.00  0.00    -0.034 C  
HETATM    9  C   UNL     1      -6.435   7.440  63.863  1.00  0.00    -0.048 C  
HETATM   10  C   UNL     1      -7.519   7.890  62.882  1.00  0.00    -0.110 C  
HETATM   11  C   UNL     1      -8.479   8.709  63.718  1.00  0.00    -0.066 C  
HETATM   12  C   UNL     1      -7.834   8.871  65.126  1.00  0.00    -0.106 C  
HETATM   13  C   UNL     1      -8.356  10.138  65.784  1.00  0.00    -0.147 C  
HETATM   14  C   UNL     1      -9.619  10.584  65.595  1.00  0.00    -0.278 C  
HETATM   15  C   UNL     1      -7.340  10.789  66.666  1.00  0.00    -0.134 C  
HETATM   16  C   UNL     1      -5.162   8.294  65.829  1.00  0.00    -0.031 C  
HETATM   17  C   UNL     1      -6.013  10.990  65.893  1.00  0.00    -0.080 C  
HETATM   18  C   UNL     1      -6.291   8.688  64.847  1.00  0.00    -0.065 C  
HETATM   19  C   UNL     1      -5.885  10.168  64.539  1.00  0.00    -0.126 C  
BRANCH  14  20
HETATM   20  C   UNL     1     -10.358  11.272  66.620  1.00  0.00    -0.279 C  
HETATM   21  C   UNL     1     -11.986  12.728  67.737  1.00  0.00    -0.316 C  
HETATM   22  C   UNL     1     -11.046  12.427  66.581  1.00  0.00    -0.336 C  
HETATM   23  C   UNL     1     -11.641  14.053  68.408  1.00  0.00    -0.331 C  
HETATM   24  O   UNL     1     -10.389  13.971  69.092  1.00  0.00    -0.389 OA 
HETATM   25  C   UNL     1     -11.611  15.181  67.384  1.00  0.00    -0.251 C  
HETATM   26  H   UNL     1     -10.174  14.796  69.510  1.00  0.00     0.000 HD 
HETATM   27  C   UNL     1     -10.678  14.866  66.205  1.00  0.00    -0.320 C  
HETATM   28  C   UNL     1     -10.992  13.500  65.583  1.00  0.00    -0.296 C  
HETATM   29  O   UNL     1     -10.800  15.912  65.246  1.00  0.00    -0.388 OA 
HETATM   30  C   UNL     1     -11.245  13.333  64.280  1.00  0.00    -0.417 C  
HETATM   31  H   UNL     1     -10.223  15.717  64.516  1.00  0.00     0.000 HD 
ENDBRANCH  14  20
ENDBRANCH   5   6
ENDBRANCH   4   5
TORSDOF 3
ENDMDL
MODEL      105
REMARK 921   NORMALIZED FREE ENERGY PREDICTED BY IDOCK:   -3.74 KCAL/MOL
REMARK 922        TOTAL FREE ENERGY PREDICTED BY IDOCK:   -5.50 KCAL/MOL
REMARK 923 INTER-LIGAND FREE ENERGY PREDICTED BY IDOCK:   -4.57 KCAL/MOL
REMARK 924 INTRA-LIGAND FREE ENERGY PREDICTED BY IDOCK:   -0.93 KCAL/MOL
REMARK 927      BINDING AFFINITY PREDICTED BY RF-SCORE:    0.00 PKD
ROOT
HETATM    1  C   UNL     1     -12.907  14.076  65.824  1.00  0.00    -0.416 C  
HETATM    2  C   UNL     1     -11.498  14.083  65.234  1.00  0.00    -0.322 C  
HETATM    3  C   UNL     1     -11.353  12.942  64.219  1.00  0.00    -0.417 C  
HETATM    4  C   UNL     1     -11.161  15.396  64.514  1.00  0.00    -0.272 C  
ENDROOT
BRANCH   4   5
HETATM    5  C   UNL     1     -11.142  16.660  65.377  1.00  0.00     0.014 C  
BRANCH   5   6
HETATM    6  C   UNL     1     -10.604  16.274  66.771  1.00  0.00    -0.257 C  
HETATM    7  C   UNL     1      -9.198  15.631  66.801  1.00  0.00    -0.275 C  
HETATM    8  C   UNL     1      -8.223  16.581  66.081  1.00  0.00    -0.279 C  
HETATM    9  C   UNL     1      -8.798  15.139  68.326  1.00  0.00    -0.173 C  
HETATM   10  C   UNL     1      -9.729  13.987  68.709  1.00  0.00    -0.123 C  
HETATM   11  C   UNL     1      -9.058  12.749  68.154  1.00  0.00    -0.203 C  
HETATM   12  C   UNL     1      -7.662  13.187  67.621  1.00  0.00    -0.168 C  
HETATM   13  C   UNL     1      -6.711  12.001  67.650  1.00  0.00    -0.109 C  
HETATM   14  C   UNL     1      -7.125  10.734  67.418  1.00  0.00    -0.091 C  
HETATM   15  C   UNL     1      -5.298  12.404  67.925  1.00  0.00    -0.083 C  
HETATM   16  C   UNL     1      -6.365  15.643  68.119  1.00  0.00    -0.133 C  
HETATM   17  C   UNL     1      -5.232  13.286  69.195  1.00  0.00    -0.073 C  
HETATM   18  C   UNL     1      -7.344  14.491  68.449  1.00  0.00    -0.114 C  
HETATM   19  C   UNL     1      -6.626  13.866  69.692  1.00  0.00    -0.082 C  
BRANCH  14  20
HETATM   20  C   UNL     1      -6.294   9.756  66.768  1.00  0.00    -0.065 C  
HETATM   21  C   UNL     1      -5.453   8.133  65.132  1.00  0.00    -0.039 C  
HETATM   22  C   UNL     1      -6.601   8.797  65.876  1.00  0.00    -0.057 C  
HETATM   23  C   UNL     1      -5.456   6.622  65.336  1.00  0.00    -0.026 C  
HETATM   24  O   UNL     1      -5.132   6.286  66.687  1.00  0.00    -0.008 OA 
HETATM   25  C   UNL     1      -6.807   6.030  64.953  1.00  0.00    -0.047 C  
HETATM   26  H   UNL     1      -5.134   5.345  66.814  1.00  0.00     0.000 HD 
HETATM   27  C   UNL     1      -7.967   6.718  65.689  1.00  0.00    -0.116 C  
HETATM   28  C   UNL     1      -7.914   8.242  65.531  1.00  0.00    -0.120 C  
HETATM   29  O   UNL     1      -9.191   6.189  65.187  1.00  0.00    -0.356 OA 
HETATM   30  C   UNL     1      -8.942   8.965  65.073  1.00  0.00    -0.160 C  
HETATM   31  H   UNL     1      -9.909   6.615  65.642  1.00  0.00     0.000 HD 
ENDBRANCH  14  20
ENDBRANCH   5   6
ENDBRANCH   4   5
TORSDOF 3
ENDMDL
MODEL      106
REMARK 921   NORMALIZED FREE ENERGY PREDICTED BY IDOCK:   -3.63 KCAL/MOL
REMARK 922        TOTAL FREE ENERGY PREDICTED BY IDOCK:   -5.37 KCAL/MOL
REMARK 923 INTER-LIGAND FREE ENERGY PREDICTED BY IDOCK:   -4.50 KCAL/MOL
REMARK 924 INTRA-LIGAND FREE ENERGY PREDICTED BY IDOCK:   -0.87 KCAL/MOL
REMARK 927      BINDING AFFINITY PREDICTED BY RF-SCORE:    0.00 PKD
ROOT
HETATM    1  C   UNL     1      -9.070  11.306  68.836  1.00  0.00    -0.064 C  
HETATM    2  C   UNL     1     -10.080  10.522  68.000  1.00  0.00    -0.190 C  
HETATM    3  C   UNL     1     -10.627   9.343  68.815  1.00  0.00    -0.234 C  
HETATM    4  C   UNL     1     -11.274  11.377  67.553  1.00  0.00    -0.356 C  
ENDROOT
BRANCH   4   5
HETATM    5  C   UNL     1     -10.959  12.557  66.633  1.00  0.00    -0.303 C  
BRANCH   5   6
HETATM    6  C   UNL     1      -9.626  12.256  65.915  1.00  0.00    -0.207 C  
HETATM    7  C   UNL     1      -9.563  10.924  65.133  1.00  0.00    -0.291 C  
HETATM    8  C   UNL     1     -10.738  10.899  64.138  1.00  0.00    -0.231 C  
HETATM    9  C   UNL     1      -8.049  10.655  64.532  1.00  0.00     0.031 C  
HETATM   10  C   UNL     1      -7.107  10.423  65.714  1.00  0.00    -0.139 C  
HETATM   11  C   UNL     1      -7.229   8.945  66.019  1.00  0.00    -0.089 C  
HETATM   12  C   UNL     1      -8.098   8.317  64.890  1.00  0.00    -0.150 C  
HETATM   13  C   UNL     1      -7.753   6.843  64.741  1.00  0.00    -0.115 C  
HETATM   14  C   UNL     1      -7.404   6.071  65.796  1.00  0.00    -0.076 C  
HETATM   15  C   UNL     1      -7.879   6.363  63.331  1.00  0.00    -0.107 C  
HETATM   16  C   UNL     1      -8.808   9.528  62.441  1.00  0.00    -0.256 C  
HETATM   17  C   UNL     1      -7.082   7.288  62.379  1.00  0.00    -0.075 C  
HETATM   18  C   UNL     1      -7.906   9.312  63.681  1.00  0.00    -0.130 C  
HETATM   19  C   UNL     1      -6.645   8.685  62.999  1.00  0.00    -0.090 C  
BRANCH  14  20
HETATM   20  C   UNL     1      -7.737   4.674  65.875  1.00  0.00    -0.094 C  
HETATM   21  C   UNL     1      -8.986   2.596  66.250  1.00  0.00    -0.143 C  
HETATM   22  C   UNL     1      -8.649   4.031  66.625  1.00  0.00    -0.109 C  
HETATM   23  C   UNL     1      -8.745   1.643  67.415  1.00  0.00    -0.106 C  
HETATM   24  O   UNL     1      -7.350   1.526  67.701  1.00  0.00    -0.051 OA 
HETATM   25  C   UNL     1      -9.503   2.105  68.653  1.00  0.00    -0.201 C  
HETATM   26  H   UNL     1      -7.199   0.932  68.427  1.00  0.00     0.000 HD 
HETATM   27  C   UNL     1      -9.178   3.562  69.018  1.00  0.00    -0.162 C  
HETATM   28  C   UNL     1      -9.360   4.500  67.819  1.00  0.00    -0.180 C  
HETATM   29  O   UNL     1     -10.012   3.947  70.107  1.00  0.00    -0.162 OA 
HETATM   30  C   UNL     1     -10.133   5.592  67.857  1.00  0.00    -0.218 C  
HETATM   31  H   UNL     1      -9.811   4.848  70.332  1.00  0.00     0.000 HD 
ENDBRANCH  14  20
ENDBRANCH   5   6
ENDBRANCH   4   5
TORSDOF 3
ENDMDL
MODEL      107
REMARK 921   NORMALIZED FREE ENERGY PREDICTED BY IDOCK:   -3.40 KCAL/MOL
REMARK 922        TOTAL FREE ENERGY PREDICTED BY IDOCK:   -5.10 KCAL/MOL
REMARK 923 INTER-LIGAND FREE ENERGY PREDICTED BY IDOCK:   -4.18 KCAL/MOL
REMARK 924 INTRA-LIGAND FREE ENERGY PREDICTED BY IDOCK:   -0.93 KCAL/MOL
REMARK 927      BINDING AFFINITY PREDICTED BY RF-SCORE:    0.00 PKD
ROOT
HETATM    1  C   UNL     1     -13.250  14.085  65.381  1.00  0.00    -0.029 C  
HETATM    2  C   UNL     1     -11.851  14.095  64.766  1.00  0.00    -0.425 C  
HETATM    3  C   UNL     1     -11.909  13.559  63.330  1.00  0.00    -0.085 C  
HETATM    4  C   UNL     1     -11.233  15.499  64.717  1.00  0.00    -0.399 C  
ENDROOT
BRANCH   4   5
HETATM    5  C   UNL     1     -10.985  16.181  66.064  1.00  0.00    -0.056 C  
BRANCH   5   6
HETATM    6  C   UNL     1     -10.826  15.077  67.132  1.00  0.00    -0.314 C  
HETATM    7  C   UNL     1      -9.669  14.077  66.905  1.00  0.00    -0.272 C  
HETATM    8  C   UNL     1      -8.365  14.881  66.751  1.00  0.00    -0.158 C  
HETATM    9  C   UNL     1      -9.693  12.871  68.033  1.00  0.00    -0.224 C  
HETATM   10  C   UNL     1     -10.948  12.030  67.798  1.00  0.00    -0.279 C  
HETATM   11  C   UNL     1     -10.541  11.016  66.749  1.00  0.00    -0.317 C  
HETATM   12  C   UNL     1      -9.008  11.174  66.534  1.00  0.00    -0.185 C  
HETATM   13  C   UNL     1      -8.425   9.860  66.036  1.00  0.00    -0.135 C  
HETATM   14  C   UNL     1      -9.112   9.026  65.221  1.00  0.00    -0.226 C  
HETATM   15  C   UNL     1      -7.028   9.631  66.517  1.00  0.00    -0.085 C  
HETATM   16  C   UNL     1      -7.217  12.613  68.173  1.00  0.00    -0.109 C  
HETATM   17  C   UNL     1      -6.960   9.800  68.055  1.00  0.00    -0.077 C  
HETATM   18  C   UNL     1      -8.509  11.810  67.889  1.00  0.00    -0.154 C  
HETATM   19  C   UNL     1      -8.216  10.514  68.716  1.00  0.00    -0.134 C  
BRANCH  14  20
HETATM   20  C   UNL     1      -8.467   8.221  64.218  1.00  0.00     0.001 C  
HETATM   21  C   UNL     1      -7.652   6.277  62.963  1.00  0.00    -0.080 C  
HETATM   22  C   UNL     1      -7.984   6.968  64.277  1.00  0.00    -0.091 C  
HETATM   23  C   UNL     1      -6.196   5.826  62.921  1.00  0.00    -0.021 C  
HETATM   24  O   UNL     1      -5.313   6.949  62.866  1.00  0.00    -0.030 OA 
HETATM   25  C   UNL     1      -5.869   4.953  64.126  1.00  0.00    -0.017 C  
HETATM   26  H   UNL     1      -4.406   6.668  62.840  1.00  0.00     0.000 HD 
HETATM   27  C   UNL     1      -6.225   5.643  65.452  1.00  0.00    -0.030 C  
HETATM   28  C   UNL     1      -7.672   6.152  65.455  1.00  0.00    -0.094 C  
HETATM   29  O   UNL     1      -6.000   4.719  66.512  1.00  0.00    -0.025 OA 
HETATM   30  C   UNL     1      -8.556   5.830  66.406  1.00  0.00    -0.125 C  
HETATM   31  H   UNL     1      -6.221   5.146  67.332  1.00  0.00     0.000 HD 
ENDBRANCH  14  20
ENDBRANCH   5   6
ENDBRANCH   4   5
TORSDOF 3
ENDMDL
MODEL      108
REMARK 921   NORMALIZED FREE ENERGY PREDICTED BY IDOCK:   -3.39 KCAL/MOL
REMARK 922        TOTAL FREE ENERGY PREDICTED BY IDOCK:   -5.09 KCAL/MOL
REMARK 923 INTER-LIGAND FREE ENERGY PREDICTED BY IDOCK:   -5.62 KCAL/MOL
REMARK 924 INTRA-LIGAND FREE ENERGY PREDICTED BY IDOCK:    0.53 KCAL/MOL
REMARK 927      BINDING AFFINITY PREDICTED BY RF-SCORE:    0.00 PKD
ROOT
HETATM    1  C   UNL     1      -6.820   9.327  63.177  1.00  0.00    -0.090 C  
HETATM    2  C   UNL     1      -8.048   9.643  64.030  1.00  0.00    -0.152 C  
HETATM    3  C   UNL     1      -9.204  10.098  63.131  1.00  0.00    -0.316 C  
HETATM    4  C   UNL     1      -8.534   8.435  64.843  1.00  0.00    -0.141 C  
ENDROOT
BRANCH   4   5
HETATM    5  C   UNL     1      -7.563   7.883  65.889  1.00  0.00    -0.083 C  
BRANCH   5   6
HETATM    6  C   UNL     1      -7.967   8.461  67.262  1.00  0.00    -0.105 C  
HETATM    7  C   UNL     1      -9.123   9.487  67.252  1.00  0.00    -0.146 C  
HETATM    8  C   UNL     1     -10.333   8.838  66.556  1.00  0.00    -0.254 C  
HETATM    9  C   UNL     1      -9.363  10.131  68.754  1.00  0.00    -0.168 C  
HETATM   10  C   UNL     1      -8.137  10.974  69.108  1.00  0.00    -0.066 C  
HETATM   11  C   UNL     1      -8.416  12.332  68.501  1.00  0.00    -0.077 C  
HETATM   12  C   UNL     1      -9.878  12.302  67.967  1.00  0.00    -0.204 C  
HETATM   13  C   UNL     1     -10.441  13.714  67.943  1.00  0.00    -0.249 C  
HETATM   14  C   UNL     1      -9.675  14.795  67.671  1.00  0.00    -0.213 C  
HETATM   15  C   UNL     1     -11.911  13.752  68.216  1.00  0.00    -0.413 C  
HETATM   16  C   UNL     1     -11.837  10.352  68.537  1.00  0.00     0.108 C  
HETATM   17  C   UNL     1     -12.232  12.975  69.516  1.00  0.00    -0.198 C  
HETATM   18  C   UNL     1     -10.564  11.179  68.838  1.00  0.00    -0.239 C  
HETATM   19  C   UNL     1     -11.069  12.033  70.049  1.00  0.00     0.259 C  
BRANCH  14  20
HETATM   20  C   UNL     1     -10.183  15.949  66.978  1.00  0.00    -0.283 C  
HETATM   21  C   UNL     1     -10.324  17.903  65.501  1.00  0.00     0.075 C  
HETATM   22  C   UNL     1      -9.543  17.008  66.452  1.00  0.00    -0.301 C  
HETATM   23  C   UNL     1     -10.342  19.349  65.983  1.00  0.00    -0.497 C  
HETATM   24  O   UNL     1     -11.117  19.482  67.177  1.00  0.00    -0.446 OA 
HETATM   25  C   UNL     1      -8.924  19.857  66.214  1.00  0.00    -0.419 C  
HETATM   26  H   UNL     1     -11.129  20.383  67.477  1.00  0.00     0.000 HD 
HETATM   27  C   UNL     1      -8.130  18.940  67.157  1.00  0.00    -0.264 C  
HETATM   28  C   UNL     1      -8.176  17.477  66.698  1.00  0.00    -0.288 C  
HETATM   29  O   UNL     1      -6.790  19.419  67.223  1.00  0.00    -0.198 OA 
HETATM   30  C   UNL     1      -7.077  16.742  66.493  1.00  0.00    -0.254 C  
HETATM   31  H   UNL     1      -6.299  18.852  67.806  1.00  0.00     0.000 HD 
ENDBRANCH  14  20
ENDBRANCH   5   6
ENDBRANCH   4   5
TORSDOF 3
ENDMDL
MODEL      109
REMARK 921   NORMALIZED FREE ENERGY PREDICTED BY IDOCK:   -3.38 KCAL/MOL
REMARK 922        TOTAL FREE ENERGY PREDICTED BY IDOCK:   -5.08 KCAL/MOL
REMARK 923 INTER-LIGAND FREE ENERGY PREDICTED BY IDOCK:   -4.47 KCAL/MOL
REMARK 924 INTRA-LIGAND FREE ENERGY PREDICTED BY IDOCK:   -0.61 KCAL/MOL
REMARK 927      BINDING AFFINITY PREDICTED BY RF-SCORE:    0.00 PKD
ROOT
HETATM    1  C   UNL     1     -13.049  15.562  70.445  1.00  0.00    -0.160 C  
HETATM    2  C   UNL     1     -12.063  15.516  69.278  1.00  0.00    -0.284 C  
HETATM    3  C   UNL     1     -11.039  16.651  69.416  1.00  0.00    -0.176 C  
HETATM    4  C   UNL     1     -11.288  14.193  69.205  1.00  0.00    -0.324 C  
ENDROOT
BRANCH   4   5
HETATM    5  C   UNL     1     -12.118  12.931  68.960  1.00  0.00    -0.198 C  
BRANCH   5   6
HETATM    6  C   UNL     1     -11.679  11.868  69.990  1.00  0.00    -0.366 C  
HETATM    7  C   UNL     1     -10.581  10.885  69.523  1.00  0.00    -0.217 C  
HETATM    8  C   UNL     1      -9.374  11.710  69.041  1.00  0.00     0.140 C  
HETATM    9  C   UNL     1     -10.303   9.718  70.658  1.00  0.00    -0.330 C  
HETATM   10  C   UNL     1     -11.554   8.842  70.751  1.00  0.00    -0.301 C  
HETATM   11  C   UNL     1     -11.378   7.803  69.665  1.00  0.00     0.146 C  
HETATM   12  C   UNL     1      -9.944   7.985  69.087  1.00  0.00    -0.188 C  
HETATM   13  C   UNL     1      -9.459   6.668  68.501  1.00  0.00    -0.123 C  
HETATM   14  C   UNL     1     -10.295   5.793  67.897  1.00  0.00    -0.266 C  
HETATM   15  C   UNL     1      -7.982   6.485  68.643  1.00  0.00    -0.114 C  
HETATM   16  C   UNL     1      -7.858   9.517  70.213  1.00  0.00    -0.180 C  
HETATM   17  C   UNL     1      -7.556   6.707  70.116  1.00  0.00    -0.096 C  
HETATM   18  C   UNL     1      -9.157   8.677  70.266  1.00  0.00    -0.172 C  
HETATM   19  C   UNL     1      -8.640   7.417  71.036  1.00  0.00    -0.134 C  
BRANCH  14  20
HETATM   20  C   UNL     1      -9.883   4.968  66.792  1.00  0.00    -0.212 C  
HETATM   21  C   UNL     1      -9.265   3.006  65.455  1.00  0.00    -0.135 C  
HETATM   22  C   UNL     1      -9.278   3.767  66.772  1.00  0.00    -0.193 C  
HETATM   23  C   UNL     1      -7.843   2.675  65.015  1.00  0.00    -0.081 C  
HETATM   24  O   UNL     1      -7.131   3.859  64.650  1.00  0.00    -0.058 OA 
HETATM   25  C   UNL     1      -7.100   1.929  66.117  1.00  0.00    -0.051 C  
HETATM   26  H   UNL     1      -6.245   3.653  64.376  1.00  0.00     0.000 HD 
HETATM   27  C   UNL     1      -7.133   2.688  67.452  1.00  0.00    -0.052 C  
HETATM   28  C   UNL     1      -8.564   3.074  67.849  1.00  0.00    -0.117 C  
HETATM   29  O   UNL     1      -6.524   1.871  68.447  1.00  0.00    -0.028 OA 
HETATM   30  C   UNL     1      -9.104   2.755  69.030  1.00  0.00    -0.202 C  
HETATM   31  H   UNL     1      -6.545   2.341  69.273  1.00  0.00     0.000 HD 
ENDBRANCH  14  20
ENDBRANCH   5   6
ENDBRANCH   4   5
TORSDOF 3
ENDMDL
MODEL      110
REMARK 921   NORMALIZED FREE ENERGY PREDICTED BY IDOCK:   -3.24 KCAL/MOL
REMARK 922        TOTAL FREE ENERGY PREDICTED BY IDOCK:   -4.92 KCAL/MOL
REMARK 923 INTER-LIGAND FREE ENERGY PREDICTED BY IDOCK:   -4.06 KCAL/MOL
REMARK 924 INTRA-LIGAND FREE ENERGY PREDICTED BY IDOCK:   -0.86 KCAL/MOL
REMARK 927      BINDING AFFINITY PREDICTED BY RF-SCORE:    0.00 PKD
ROOT
HETATM    1  C   UNL     1      -7.703  17.277  66.454  1.00  0.00    -0.347 C  
HETATM    2  C   UNL     1      -9.085  16.698  66.759  1.00  0.00    -0.261 C  
HETATM    3  C   UNL     1     -10.166  17.538  66.066  1.00  0.00    -0.306 C  
HETATM    4  C   UNL     1      -9.241  15.248  66.283  1.00  0.00    -0.350 C  
ENDROOT
BRANCH   4   5
HETATM    5  C   UNL     1      -8.320  14.214  66.935  1.00  0.00    -0.062 C  
BRANCH   5   6
HETATM    6  C   UNL     1      -8.704  12.824  66.386  1.00  0.00     0.111 C  
HETATM    7  C   UNL     1      -9.201  11.796  67.429  1.00  0.00    -0.174 C  
HETATM    8  C   UNL     1     -10.379  12.425  68.195  1.00  0.00    -0.231 C  
HETATM    9  C   UNL     1      -9.444  10.315  66.739  1.00  0.00    -0.198 C  
HETATM   10  C   UNL     1      -8.082   9.765  66.312  1.00  0.00    -0.113 C  
HETATM   11  C   UNL     1      -7.538   9.081  67.548  1.00  0.00    -0.089 C  
HETATM   12  C   UNL     1      -8.676   9.089  68.611  1.00  0.00    -0.133 C  
HETATM   13  C   UNL     1      -8.482   7.928  69.574  1.00  0.00    -0.133 C  
HETATM   14  C   UNL     1      -7.256   7.487  69.940  1.00  0.00    -0.080 C  
HETATM   15  C   UNL     1      -9.777   7.375  70.077  1.00  0.00    -0.175 C  
HETATM   16  C   UNL     1     -11.395   9.696  68.162  1.00  0.00     0.150 C  
HETATM   17  C   UNL     1     -10.715   7.049  68.888  1.00  0.00    -0.227 C  
HETATM   18  C   UNL     1      -9.989   9.202  67.744  1.00  0.00    -0.236 C  
HETATM   19  C   UNL     1     -10.292   7.686  67.496  1.00  0.00    -0.326 C  
BRANCH  14  20
HETATM   20  C   UNL     1      -6.985   6.953  71.248  1.00  0.00    -0.062 C  
HETATM   21  C   UNL     1      -6.481   5.380  73.061  1.00  0.00    -0.069 C  
HETATM   22  C   UNL     1      -7.162   5.715  71.744  1.00  0.00    -0.090 C  
HETATM   23  C   UNL     1      -7.488   4.920  74.109  1.00  0.00    -0.082 C  
HETATM   24  O   UNL     1      -8.338   5.996  74.511  1.00  0.00    -0.114 OA 
HETATM   25  C   UNL     1      -8.321   3.758  73.581  1.00  0.00    -0.087 C  
HETATM   26  H   UNL     1      -8.965   5.710  75.164  1.00  0.00     0.000 HD 
HETATM   27  C   UNL     1      -8.990   4.090  72.239  1.00  0.00    -0.110 C  
HETATM   28  C   UNL     1      -7.976   4.616  71.215  1.00  0.00    -0.088 C  
HETATM   29  O   UNL     1      -9.645   2.919  71.763  1.00  0.00    -0.125 OA 
HETATM   30  C   UNL     1      -7.824   4.081  69.998  1.00  0.00    -0.051 C  
HETATM   31  H   UNL     1     -10.058   3.125  70.932  1.00  0.00     0.000 HD 
ENDBRANCH  14  20
ENDBRANCH   5   6
ENDBRANCH   4   5
TORSDOF 3
ENDMDL
MODEL      111
REMARK 921   NORMALIZED FREE ENERGY PREDICTED BY IDOCK:   -3.08 KCAL/MOL
REMARK 922        TOTAL FREE ENERGY PREDICTED BY IDOCK:   -4.72 KCAL/MOL
REMARK 923 INTER-LIGAND FREE ENERGY PREDICTED BY IDOCK:   -5.21 KCAL/MOL
REMARK 924 INTRA-LIGAND FREE ENERGY PREDICTED BY IDOCK:    0.48 KCAL/MOL
REMARK 927      BINDING AFFINITY PREDICTED BY RF-SCORE:    0.00 PKD
ROOT
HETATM    1  C   UNL     1      -7.553  20.616  67.578  1.00  0.00    -0.340 C  
HETATM    2  C   UNL     1      -7.371  19.743  66.337  1.00  0.00    -0.284 C  
HETATM    3  C   UNL     1      -5.968  19.122  66.337  1.00  0.00    -0.181 C  
HETATM    4  C   UNL     1      -8.390  18.597  66.261  1.00  0.00    -0.249 C  
ENDROOT
BRANCH   4   5
HETATM    5  C   UNL     1      -9.861  19.002  66.144  1.00  0.00    -0.370 C  
BRANCH   5   6
HETATM    6  C   UNL     1     -10.704  17.944  66.889  1.00  0.00    -0.185 C  
HETATM    7  C   UNL     1      -9.977  16.628  67.247  1.00  0.00    -0.270 C  
HETATM    8  C   UNL     1      -8.712  16.984  68.050  1.00  0.00    -0.218 C  
HETATM    9  C   UNL     1     -11.019  15.532  67.912  1.00  0.00    -0.316 C  
HETATM   10  C   UNL     1     -12.014  15.111  66.830  1.00  0.00     0.130 C  
HETATM   11  C   UNL     1     -11.326  13.982  66.093  1.00  0.00    -0.322 C  
HETATM   12  C   UNL     1     -10.024  13.650  66.879  1.00  0.00    -0.260 C  
HETATM   13  C   UNL     1      -9.630  12.203  66.627  1.00  0.00    -0.226 C  
HETATM   14  C   UNL     1      -9.843  11.591  65.440  1.00  0.00    -0.271 C  
HETATM   15  C   UNL     1      -8.968  11.573  67.810  1.00  0.00    -0.160 C  
HETATM   16  C   UNL     1      -9.357  14.528  69.478  1.00  0.00     0.288 C  
HETATM   17  C   UNL     1      -9.836  11.771  69.076  1.00  0.00     0.079 C  
HETATM   18  C   UNL     1     -10.339  14.153  68.342  1.00  0.00    -0.249 C  
HETATM   19  C   UNL     1     -10.983  12.862  68.949  1.00  0.00    -0.271 C  
BRANCH  14  20
HETATM   20  C   UNL     1      -8.954  10.589  64.916  1.00  0.00    -0.222 C  
HETATM   21  C   UNL     1      -8.025   8.416  64.256  1.00  0.00    -0.149 C  
HETATM   22  C   UNL     1      -8.838   9.281  65.207  1.00  0.00    -0.237 C  
HETATM   23  C   UNL     1      -6.884   7.710  64.979  1.00  0.00    -0.051 C  
HETATM   24  O   UNL     1      -5.892   8.646  65.407  1.00  0.00    -0.047 OA 
HETATM   25  C   UNL     1      -7.411   6.916  66.168  1.00  0.00    -0.080 C  
HETATM   26  H   UNL     1      -5.181   8.206  65.858  1.00  0.00     0.000 HD 
HETATM   27  C   UNL     1      -8.250   7.786  67.116  1.00  0.00    -0.118 C  
HETATM   28  C   UNL     1      -9.352   8.543  66.365  1.00  0.00    -0.273 C  
HETATM   29  O   UNL     1      -8.798   6.946  68.127  1.00  0.00    -0.126 OA 
HETATM   30  C   UNL     1     -10.644   8.480  66.707  1.00  0.00    -0.227 C  
HETATM   31  H   UNL     1      -9.317   7.484  68.714  1.00  0.00     0.000 HD 
ENDBRANCH  14  20
ENDBRANCH   5   6
ENDBRANCH   4   5
TORSDOF 3
ENDMDL
MODEL      112
REMARK 921   NORMALIZED FREE ENERGY PREDICTED BY IDOCK:   -3.07 KCAL/MOL
REMARK 922        TOTAL FREE ENERGY PREDICTED BY IDOCK:   -4.71 KCAL/MOL
REMARK 923 INTER-LIGAND FREE ENERGY PREDICTED BY IDOCK:   -3.76 KCAL/MOL
REMARK 924 INTRA-LIGAND FREE ENERGY PREDICTED BY IDOCK:   -0.95 KCAL/MOL
REMARK 927      BINDING AFFINITY PREDICTED BY RF-SCORE:    0.00 PKD
ROOT
HETATM    1  C   UNL     1     -12.384  13.886  69.694  1.00  0.00    -0.301 C  
HETATM    2  C   UNL     1     -11.804  14.522  68.431  1.00  0.00    -0.351 C  
HETATM    3  C   UNL     1     -11.391  15.971  68.720  1.00  0.00    -0.380 C  
HETATM    4  C   UNL     1     -10.569  13.778  67.904  1.00  0.00    -0.257 C  
ENDROOT
BRANCH   4   5
HETATM    5  C   UNL     1     -10.787  12.333  67.452  1.00  0.00    -0.277 C  
BRANCH   5   6
HETATM    6  C   UNL     1      -9.474  11.834  66.811  1.00  0.00    -0.202 C  
HETATM    7  C   UNL     1      -9.214  10.313  66.896  1.00  0.00    -0.171 C  
HETATM    8  C   UNL     1     -10.428   9.585  66.291  1.00  0.00    -0.137 C  
HETATM    9  C   UNL     1      -7.721   9.928  66.303  1.00  0.00    -0.105 C  
HETATM   10  C   UNL     1      -6.672  10.525  67.242  1.00  0.00    -0.077 C  
HETATM   11  C   UNL     1      -6.489   9.486  68.327  1.00  0.00    -0.053 C  
HETATM   12  C   UNL     1      -7.300   8.228  67.895  1.00  0.00    -0.096 C  
HETATM   13  C   UNL     1      -6.692   6.987  68.530  1.00  0.00    -0.064 C  
HETATM   14  C   UNL     1      -6.130   7.004  69.760  1.00  0.00    -0.027 C  
HETATM   15  C   UNL     1      -6.822   5.776  67.663  1.00  0.00    -0.060 C  
HETATM   16  C   UNL     1      -8.396   7.727  65.343  1.00  0.00    -0.141 C  
HETATM   17  C   UNL     1      -6.284   6.076  66.243  1.00  0.00    -0.037 C  
HETATM   18  C   UNL     1      -7.385   8.367  66.326  1.00  0.00    -0.086 C  
HETATM   19  C   UNL     1      -6.078   7.615  65.906  1.00  0.00    -0.038 C  
BRANCH  14  20
HETATM   20  C   UNL     1      -6.185   5.876  70.651  1.00  0.00    -0.031 C  
HETATM   21  C   UNL     1      -7.047   4.090  72.094  1.00  0.00    -0.051 C  
HETATM   22  C   UNL     1      -7.127   5.501  71.534  1.00  0.00    -0.072 C  
HETATM   23  C   UNL     1      -6.968   4.097  73.617  1.00  0.00    -0.060 C  
HETATM   24  O   UNL     1      -5.722   4.636  74.063  1.00  0.00    -0.016 OA 
HETATM   25  C   UNL     1      -8.128   4.885  74.212  1.00  0.00    -0.100 C  
HETATM   26  H   UNL     1      -5.672   4.641  75.011  1.00  0.00     0.000 HD 
HETATM   27  C   UNL     1      -8.222   6.303  73.628  1.00  0.00    -0.113 C  
HETATM   28  C   UNL     1      -8.233   6.285  72.094  1.00  0.00    -0.109 C  
HETATM   29  O   UNL     1      -9.395   6.924  74.146  1.00  0.00    -0.198 OA 
HETATM   30  C   UNL     1      -9.185   6.876  71.365  1.00  0.00    -0.156 C  
HETATM   31  H   UNL     1      -9.452   7.801  73.784  1.00  0.00     0.000 HD 
ENDBRANCH  14  20
ENDBRANCH   5   6
ENDBRANCH   4   5
TORSDOF 3
ENDMDL
MODEL      113
REMARK 921   NORMALIZED FREE ENERGY PREDICTED BY IDOCK:   -3.01 KCAL/MOL
REMARK 922        TOTAL FREE ENERGY PREDICTED BY IDOCK:   -4.64 KCAL/MOL
REMARK 923 INTER-LIGAND FREE ENERGY PREDICTED BY IDOCK:   -4.66 KCAL/MOL
REMARK 924 INTRA-LIGAND FREE ENERGY PREDICTED BY IDOCK:    0.02 KCAL/MOL
REMARK 927      BINDING AFFINITY PREDICTED BY RF-SCORE:    0.00 PKD
ROOT
HETATM    1  C   UNL     1      -9.102   4.051  72.080  1.00  0.00    -0.158 C  
HETATM    2  C   UNL     1      -8.762   4.742  73.400  1.00  0.00    -0.100 C  
HETATM    3  C   UNL     1      -8.828   3.730  74.551  1.00  0.00    -0.096 C  
HETATM    4  C   UNL     1      -7.357   5.362  73.402  1.00  0.00    -0.095 C  
ENDROOT
BRANCH   4   5
HETATM    5  C   UNL     1      -7.107   6.482  72.391  1.00  0.00    -0.077 C  
BRANCH   5   6
HETATM    6  C   UNL     1      -8.158   6.352  71.268  1.00  0.00    -0.117 C  
HETATM    7  C   UNL     1      -7.975   7.294  70.056  1.00  0.00    -0.117 C  
HETATM    8  C   UNL     1      -6.555   7.087  69.501  1.00  0.00    -0.045 C  
HETATM    9  C   UNL     1      -9.235   7.155  68.997  1.00  0.00    -0.135 C  
HETATM   10  C   UNL     1     -10.491   7.694  69.685  1.00  0.00    -0.235 C  
HETATM   11  C   UNL     1     -10.461   9.185  69.428  1.00  0.00    -0.226 C  
HETATM   12  C   UNL     1      -9.288   9.454  68.440  1.00  0.00    -0.137 C  
HETATM   13  C   UNL     1      -9.566  10.725  67.652  1.00  0.00    -0.174 C  
HETATM   14  C   UNL     1     -10.216  11.783  68.190  1.00  0.00    -0.210 C  
HETATM   15  C   UNL     1      -9.017  10.673  66.263  1.00  0.00    -0.180 C  
HETATM   16  C   UNL     1      -7.874   7.526  66.941  1.00  0.00    -0.111 C  
HETATM   17  C   UNL     1      -9.491   9.382  65.551  1.00  0.00    -0.328 C  
HETATM   18  C   UNL     1      -9.108   8.074  67.698  1.00  0.00    -0.144 C  
HETATM   19  C   UNL     1     -10.101   8.266  66.503  1.00  0.00    -0.303 C  
BRANCH  14  20
HETATM   20  C   UNL     1      -9.917  13.142  67.824  1.00  0.00    -0.227 C  
HETATM   21  C   UNL     1      -8.682  15.161  67.181  1.00  0.00    -0.238 C  
HETATM   22  C   UNL     1      -8.786  13.857  67.955  1.00  0.00    -0.184 C  
HETATM   23  C   UNL     1      -8.416  16.342  68.108  1.00  0.00    -0.188 C  
HETATM   24  O   UNL     1      -9.550  16.609  68.936  1.00  0.00    -0.240 OA 
HETATM   25  C   UNL     1      -7.183  16.085  68.966  1.00  0.00    -0.182 C  
HETATM   26  H   UNL     1      -9.384  17.345  69.514  1.00  0.00     0.000 HD 
HETATM   27  C   UNL     1      -7.280  14.756  69.730  1.00  0.00    -0.098 C  
HETATM   28  C   UNL     1      -7.614  13.587  68.795  1.00  0.00    -0.066 C  
HETATM   29  O   UNL     1      -6.046  14.538  70.407  1.00  0.00    -0.156 OA 
HETATM   30  C   UNL     1      -6.875  12.474  68.725  1.00  0.00    -0.096 C  
HETATM   31  H   UNL     1      -6.105  13.716  70.880  1.00  0.00     0.000 HD 
ENDBRANCH  14  20
ENDBRANCH   5   6
ENDBRANCH   4   5
TORSDOF 3
ENDMDL
MODEL      114
REMARK 921   NORMALIZED FREE ENERGY PREDICTED BY IDOCK:   -2.75 KCAL/MOL
REMARK 922        TOTAL FREE ENERGY PREDICTED BY IDOCK:   -4.33 KCAL/MOL
REMARK 923 INTER-LIGAND FREE ENERGY PREDICTED BY IDOCK:   -4.95 KCAL/MOL
REMARK 924 INTRA-LIGAND FREE ENERGY PREDICTED BY IDOCK:    0.62 KCAL/MOL
REMARK 927      BINDING AFFINITY PREDICTED BY RF-SCORE:    0.00 PKD
ROOT
HETATM    1  C   UNL     1      -6.605  21.094  67.209  1.00  0.00    -0.429 C  
HETATM    2  C   UNL     1      -7.073  20.331  65.971  1.00  0.00    -0.293 C  
HETATM    3  C   UNL     1      -5.880  20.059  65.045  1.00  0.00    -0.250 C  
HETATM    4  C   UNL     1      -7.719  18.981  66.312  1.00  0.00    -0.295 C  
ENDROOT
BRANCH   4   5
HETATM    5  C   UNL     1      -8.999  19.031  67.148  1.00  0.00    -0.310 C  
BRANCH   5   6
HETATM    6  C   UNL     1      -8.922  17.906  68.202  1.00  0.00    -0.268 C  
HETATM    7  C   UNL     1      -8.073  16.673  67.815  1.00  0.00    -0.185 C  
HETATM    8  C   UNL     1      -6.664  17.163  67.434  1.00  0.00    -0.173 C  
HETATM    9  C   UNL     1      -8.184  15.489  68.960  1.00  0.00    -0.227 C  
HETATM   10  C   UNL     1      -9.618  14.956  68.950  1.00  0.00    -0.215 C  
HETATM   11  C   UNL     1      -9.625  13.891  67.874  1.00  0.00    -0.227 C  
HETATM   12  C   UNL     1      -8.151  13.701  67.411  1.00  0.00    -0.184 C  
HETATM   13  C   UNL     1      -7.968  12.297  66.857  1.00  0.00    -0.068 C  
HETATM   14  C   UNL     1      -8.947  11.650  66.183  1.00  0.00    -0.180 C  
HETATM   15  C   UNL     1      -6.600  11.751  67.112  1.00  0.00    -0.143 C  
HETATM   16  C   UNL     1      -5.840  14.676  68.706  1.00  0.00    -0.085 C  
HETATM   17  C   UNL     1      -6.246  11.879  68.614  1.00  0.00    -0.055 C  
HETATM   18  C   UNL     1      -7.309  14.189  68.652  1.00  0.00    -0.126 C  
HETATM   19  C   UNL     1      -7.185  12.849  69.452  1.00  0.00     0.270 C  
BRANCH  14  20
HETATM   20  C   UNL     1      -8.672  10.734  65.108  1.00  0.00    -0.174 C  
HETATM   21  C   UNL     1      -8.767   8.770  63.642  1.00  0.00     0.023 C  
HETATM   22  C   UNL     1      -8.854   9.405  65.021  1.00  0.00    -0.234 C  
HETATM   23  C   UNL     1      -7.707   7.676  63.596  1.00  0.00    -0.123 C  
HETATM   24  O   UNL     1      -6.395   8.228  63.722  1.00  0.00    -0.070 OA 
HETATM   25  C   UNL     1      -7.953   6.642  64.688  1.00  0.00    -0.113 C  
HETATM   26  H   UNL     1      -5.734   7.546  63.693  1.00  0.00     0.000 HD 
HETATM   27  C   UNL     1      -8.063   7.287  66.079  1.00  0.00    -0.121 C  
HETATM   28  C   UNL     1      -9.084   8.431  66.094  1.00  0.00    -0.238 C  
HETATM   29  O   UNL     1      -8.409   6.273  67.016  1.00  0.00    -0.109 OA 
HETATM   30  C   UNL     1     -10.101   8.489  66.960  1.00  0.00    -0.347 C  
HETATM   31  H   UNL     1      -8.477   6.672  67.876  1.00  0.00     0.000 HD 
ENDBRANCH  14  20
ENDBRANCH   5   6
ENDBRANCH   4   5
TORSDOF 3
ENDMDL
MODEL      115
REMARK 921   NORMALIZED FREE ENERGY PREDICTED BY IDOCK:   -2.72 KCAL/MOL
REMARK 922        TOTAL FREE ENERGY PREDICTED BY IDOCK:   -4.30 KCAL/MOL
REMARK 923 INTER-LIGAND FREE ENERGY PREDICTED BY IDOCK:   -3.45 KCAL/MOL
REMARK 924 INTRA-LIGAND FREE ENERGY PREDICTED BY IDOCK:   -0.84 KCAL/MOL
REMARK 927      BINDING AFFINITY PREDICTED BY RF-SCORE:    0.00 PKD
ROOT
HETATM    1  C   UNL     1      -9.269   5.788  62.932  1.00  0.00     0.694 C  
HETATM    2  C   UNL     1      -7.821   5.881  63.412  1.00  0.00    -0.100 C  
HETATM    3  C   UNL     1      -7.118   7.056  62.720  1.00  0.00    -0.060 C  
HETATM    4  C   UNL     1      -7.709   6.093  64.928  1.00  0.00    -0.101 C  
ENDROOT
BRANCH   4   5
HETATM    5  C   UNL     1      -8.259   4.974  65.814  1.00  0.00    -0.115 C  
BRANCH   5   6
HETATM    6  C   UNL     1      -8.294   5.495  67.267  1.00  0.00    -0.104 C  
HETATM    7  C   UNL     1      -9.168   6.745  67.517  1.00  0.00    -0.122 C  
HETATM    8  C   UNL     1     -10.590   6.445  67.009  1.00  0.00    -0.396 C  
HETATM    9  C   UNL     1      -9.012   7.282  69.071  1.00  0.00    -0.134 C  
HETATM   10  C   UNL     1      -7.583   7.800  69.250  1.00  0.00    -0.098 C  
HETATM   11  C   UNL     1      -7.633   9.237  68.777  1.00  0.00    -0.079 C  
HETATM   12  C   UNL     1      -9.128   9.578  68.508  1.00  0.00    -0.131 C  
HETATM   13  C   UNL     1      -9.345  11.075  68.662  1.00  0.00    -0.196 C  
HETATM   14  C   UNL     1      -8.402  11.982  68.319  1.00  0.00    -0.163 C  
HETATM   15  C   UNL     1     -10.704  11.408  69.190  1.00  0.00    -0.229 C  
HETATM   16  C   UNL     1     -11.370   8.059  69.304  1.00  0.00     0.412 C  
HETATM   17  C   UNL     1     -10.986  10.601  70.481  1.00  0.00    -0.059 C  
HETATM   18  C   UNL     1      -9.908   8.555  69.422  1.00  0.00    -0.185 C  
HETATM   19  C   UNL     1     -10.004   9.381  70.748  1.00  0.00    -0.358 C  
BRANCH  14  20
HETATM   20  C   UNL     1      -8.733  13.279  67.791  1.00  0.00    -0.194 C  
HETATM   21  C   UNL     1      -8.516  15.524  66.825  1.00  0.00    -0.314 C  
HETATM   22  C   UNL     1      -8.010  14.412  67.731  1.00  0.00    -0.166 C  
HETATM   23  C   UNL     1      -8.731  16.820  67.598  1.00  0.00    -0.204 C  
HETATM   24  O   UNL     1      -9.824  16.697  68.511  1.00  0.00    -0.232 OA 
HETATM   25  C   UNL     1      -7.462  17.219  68.342  1.00  0.00    -0.234 C  
HETATM   26  H   UNL     1      -9.958  17.505  68.993  1.00  0.00     0.000 HD 
HETATM   27  C   UNL     1      -6.940  16.087  69.240  1.00  0.00    -0.205 C  
HETATM   28  C   UNL     1      -6.793  14.771  68.465  1.00  0.00    -0.107 C  
HETATM   29  O   UNL     1      -5.697  16.498  69.801  1.00  0.00    -0.167 OA 
HETATM   30  C   UNL     1      -5.654  14.071  68.427  1.00  0.00    -0.105 C  
HETATM   31  H   UNL     1      -5.374  15.797  70.356  1.00  0.00     0.000 HD 
ENDBRANCH  14  20
ENDBRANCH   5   6
ENDBRANCH   4   5
TORSDOF 3
ENDMDL
MODEL      116
REMARK 921   NORMALIZED FREE ENERGY PREDICTED BY IDOCK:   -2.67 KCAL/MOL
REMARK 922        TOTAL FREE ENERGY PREDICTED BY IDOCK:   -4.24 KCAL/MOL
REMARK 923 INTER-LIGAND FREE ENERGY PREDICTED BY IDOCK:   -3.95 KCAL/MOL
REMARK 924 INTRA-LIGAND FREE ENERGY PREDICTED BY IDOCK:   -0.29 KCAL/MOL
REMARK 927      BINDING AFFINITY PREDICTED BY RF-SCORE:    0.00 PKD
ROOT
HETATM    1  C   UNL     1      -5.540  13.401  69.517  1.00  0.00    -0.093 C  
HETATM    2  C   UNL     1      -6.667  14.429  69.422  1.00  0.00    -0.140 C  
HETATM    3  C   UNL     1      -6.160  15.802  69.882  1.00  0.00    -0.166 C  
HETATM    4  C   UNL     1      -7.211  14.584  67.996  1.00  0.00    -0.148 C  
ENDROOT
BRANCH   4   5
HETATM    5  C   UNL     1      -7.867  13.347  67.379  1.00  0.00    -0.154 C  
BRANCH   5   6
HETATM    6  C   UNL     1      -6.783  12.257  67.240  1.00  0.00    -0.143 C  
HETATM    7  C   UNL     1      -7.286  10.795  67.266  1.00  0.00    -0.096 C  
HETATM    8  C   UNL     1      -8.361  10.640  66.175  1.00  0.00    -0.158 C  
HETATM    9  C   UNL     1      -6.024   9.729  67.249  1.00  0.00    -0.051 C  
HETATM   10  C   UNL     1      -5.268   9.873  68.571  1.00  0.00    -0.032 C  
HETATM   11  C   UNL     1      -6.000   8.964  69.534  1.00  0.00    -0.036 C  
HETATM   12  C   UNL     1      -7.052   8.172  68.704  1.00  0.00    -0.072 C  
HETATM   13  C   UNL     1      -7.358   6.852  69.395  1.00  0.00    -0.091 C  
HETATM   14  C   UNL     1      -7.367   6.725  70.742  1.00  0.00    -0.078 C  
HETATM   15  C   UNL     1      -7.674   5.756  68.429  1.00  0.00    -0.096 C  
HETATM   16  C   UNL     1      -7.185   7.990  65.891  1.00  0.00    -0.065 C  
HETATM   17  C   UNL     1      -6.561   5.654  67.357  1.00  0.00    -0.057 C  
HETATM   18  C   UNL     1      -6.459   8.193  67.242  1.00  0.00    -0.057 C  
HETATM   19  C   UNL     1      -5.578   6.900  67.278  1.00  0.00    -0.017 C  
BRANCH  14  20
HETATM   20  C   UNL     1      -8.257   5.827  71.428  1.00  0.00    -0.126 C  
HETATM   21  C   UNL     1     -10.232   4.484  71.990  1.00  0.00    -0.251 C  
HETATM   22  C   UNL     1      -9.599   5.742  71.416  1.00  0.00    -0.188 C  
HETATM   23  C   UNL     1     -11.207   4.813  73.115  1.00  0.00    -0.308 C  
HETATM   24  O   UNL     1     -10.517   5.316  74.261  1.00  0.00    -0.268 OA 
HETATM   25  C   UNL     1     -12.252   5.818  72.644  1.00  0.00     0.034 C  
HETATM   26  H   UNL     1     -11.124   5.521  74.962  1.00  0.00     0.000 HD 
HETATM   27  C   UNL     1     -11.611   7.078  72.043  1.00  0.00    -0.285 C  
HETATM   28  C   UNL     1     -10.583   6.730  70.960  1.00  0.00    -0.252 C  
HETATM   29  O   UNL     1     -12.649   7.904  71.524  1.00  0.00    -0.311 OA 
HETATM   30  C   UNL     1     -10.627   7.236  69.722  1.00  0.00    -0.247 C  
HETATM   31  H   UNL     1     -12.252   8.683  71.152  1.00  0.00     0.000 HD 
ENDBRANCH  14  20
ENDBRANCH   5   6
ENDBRANCH   4   5
TORSDOF 3
ENDMDL
MODEL      117
REMARK 921   NORMALIZED FREE ENERGY PREDICTED BY IDOCK:   -2.38 KCAL/MOL
REMARK 922        TOTAL FREE ENERGY PREDICTED BY IDOCK:   -3.90 KCAL/MOL
REMARK 923 INTER-LIGAND FREE ENERGY PREDICTED BY IDOCK:   -3.99 KCAL/MOL
REMARK 924 INTRA-LIGAND FREE ENERGY PREDICTED BY IDOCK:    0.09 KCAL/MOL
REMARK 927      BINDING AFFINITY PREDICTED BY RF-SCORE:    0.00 PKD
ROOT
HETATM    1  C   UNL     1     -10.869  16.457  65.357  1.00  0.00    -0.249 C  
HETATM    2  C   UNL     1     -10.031  17.615  65.898  1.00  0.00    -0.139 C  
HETATM    3  C   UNL     1     -10.818  18.926  65.783  1.00  0.00    -0.198 C  
HETATM    4  C   UNL     1      -9.641  17.429  67.371  1.00  0.00    -0.257 C  
ENDROOT
BRANCH   4   5
HETATM    5  C   UNL     1      -8.753  16.226  67.694  1.00  0.00    -0.188 C  
BRANCH   5   6
HETATM    6  C   UNL     1      -9.479  14.956  67.200  1.00  0.00    -0.231 C  
HETATM    7  C   UNL     1      -9.824  13.909  68.284  1.00  0.00    -0.231 C  
HETATM    8  C   UNL     1     -10.639  14.611  69.386  1.00  0.00    -0.209 C  
HETATM    9  C   UNL     1     -10.468  12.544  67.613  1.00  0.00    -0.228 C  
HETATM   10  C   UNL     1      -9.374  11.863  66.789  1.00  0.00    -0.204 C  
HETATM   11  C   UNL     1      -8.626  10.999  67.782  1.00  0.00    -0.130 C  
HETATM   12  C   UNL     1      -9.416  11.057  69.123  1.00  0.00    -0.064 C  
HETATM   13  C   UNL     1      -9.147   9.795  69.927  1.00  0.00    -0.257 C  
HETATM   14  C   UNL     1      -7.950   9.164  69.908  1.00  0.00    -0.104 C  
HETATM   15  C   UNL     1     -10.325   9.372  70.745  1.00  0.00    -0.366 C  
HETATM   16  C   UNL     1     -12.030  12.055  69.494  1.00  0.00    -0.346 C  
HETATM   17  C   UNL     1     -11.589   9.285  69.854  1.00  0.00     0.076 C  
HETATM   18  C   UNL     1     -10.883  11.422  68.670  1.00  0.00    -0.249 C  
HETATM   19  C   UNL     1     -11.469   9.990  68.435  1.00  0.00    -0.011 C  
BRANCH  14  20
HETATM   20  C   UNL     1      -7.419   8.478  71.055  1.00  0.00    -0.080 C  
HETATM   21  C   UNL     1      -5.926   7.182  72.507  1.00  0.00    -0.041 C  
HETATM   22  C   UNL     1      -6.528   7.474  71.142  1.00  0.00    -0.039 C  
HETATM   23  C   UNL     1      -6.172   5.738  72.929  1.00  0.00    -0.056 C  
HETATM   24  O   UNL     1      -7.559   5.510  73.191  1.00  0.00    -0.095 OA 
HETATM   25  C   UNL     1      -5.670   4.773  71.862  1.00  0.00    -0.012 C  
HETATM   26  H   UNL     1      -7.712   4.610  73.454  1.00  0.00     0.000 HD 
HETATM   27  C   UNL     1      -6.263   5.083  70.479  1.00  0.00    -0.019 C  
HETATM   28  C   UNL     1      -6.067   6.555  70.096  1.00  0.00    -0.030 C  
HETATM   29  O   UNL     1      -5.654   4.217  69.527  1.00  0.00    -0.015 OA 
HETATM   30  C   UNL     1      -5.485   6.941  68.955  1.00  0.00    -0.017 C  
HETATM   31  H   UNL     1      -6.020   4.409  68.671  1.00  0.00     0.000 HD 
ENDBRANCH  14  20
ENDBRANCH   5   6
ENDBRANCH   4   5
TORSDOF 3
ENDMDL
MODEL      118
REMARK 921   NORMALIZED FREE ENERGY PREDICTED BY IDOCK:   -2.26 KCAL/MOL
REMARK 922        TOTAL FREE ENERGY PREDICTED BY IDOCK:   -3.76 KCAL/MOL
REMARK 923 INTER-LIGAND FREE ENERGY PREDICTED BY IDOCK:   -2.95 KCAL/MOL
REMARK 924 INTRA-LIGAND FREE ENERGY PREDICTED BY IDOCK:   -0.81 KCAL/MOL
REMARK 927      BINDING AFFINITY PREDICTED BY RF-SCORE:    0.00 PKD
ROOT
HETATM    1  C   UNL     1      -7.400  15.281  69.940  1.00  0.00    -0.068 C  
HETATM    2  C   UNL     1      -6.672  15.429  68.605  1.00  0.00    -0.102 C  
HETATM    3  C   UNL     1      -5.216  14.968  68.751  1.00  0.00    -0.089 C  
HETATM    4  C   UNL     1      -7.315  14.604  67.481  1.00  0.00    -0.220 C  
ENDROOT
BRANCH   4   5
HETATM    5  C   UNL     1      -8.747  14.978  67.097  1.00  0.00    -0.242 C  
BRANCH   5   6
HETATM    6  C   UNL     1      -9.367  13.775  66.352  1.00  0.00    -0.215 C  
HETATM    7  C   UNL     1      -9.596  12.501  67.197  1.00  0.00    -0.208 C  
HETATM    8  C   UNL     1     -10.448  12.884  68.420  1.00  0.00    -0.260 C  
HETATM    9  C   UNL     1     -10.129  11.251  66.258  1.00  0.00    -0.271 C  
HETATM   10  C   UNL     1      -8.995  10.856  65.310  1.00  0.00    -0.202 C  
HETATM   11  C   UNL     1      -8.154   9.879  66.102  1.00  0.00    -0.119 C  
HETATM   12  C   UNL     1      -8.919   9.586  67.426  1.00  0.00    -0.141 C  
HETATM   13  C   UNL     1      -8.523   8.216  67.952  1.00  0.00    -0.132 C  
HETATM   14  C   UNL     1      -7.275   7.715  67.801  1.00  0.00    -0.087 C  
HETATM   15  C   UNL     1      -9.642   7.528  68.666  1.00  0.00    -0.151 C  
HETATM   16  C   UNL     1     -11.603  10.244  67.999  1.00  0.00     0.105 C  
HETATM   17  C   UNL     1     -10.910   7.511  67.778  1.00  0.00    -0.156 C  
HETATM   18  C   UNL     1     -10.421   9.902  67.060  1.00  0.00    -0.296 C  
HETATM   19  C   UNL     1     -10.882   8.501  66.535  1.00  0.00     0.524 C  
BRANCH  14  20
HETATM   20  C   UNL     1      -6.662   6.858  68.780  1.00  0.00    -0.056 C  
HETATM   21  C   UNL     1      -5.864   4.853  69.946  1.00  0.00    -0.017 C  
HETATM   22  C   UNL     1      -6.894   5.570  69.088  1.00  0.00    -0.058 C  
HETATM   23  C   UNL     1      -6.492   4.285  71.215  1.00  0.00    -0.019 C  
HETATM   24  O   UNL     1      -6.898   5.332  72.098  1.00  0.00    -0.064 OA 
HETATM   25  C   UNL     1      -7.678   3.391  70.874  1.00  0.00    -0.043 C  
HETATM   26  H   UNL     1      -7.289   4.979  72.889  1.00  0.00     0.000 HD 
HETATM   27  C   UNL     1      -8.707   4.110  69.988  1.00  0.00    -0.070 C  
HETATM   28  C   UNL     1      -8.051   4.734  68.750  1.00  0.00    -0.083 C  
HETATM   29  O   UNL     1      -9.714   3.172  69.621  1.00  0.00    -0.108 OA 
HETATM   30  C   UNL     1      -8.465   4.486  67.502  1.00  0.00    -0.103 C  
HETATM   31  H   UNL     1     -10.350   3.617  69.073  1.00  0.00     0.000 HD 
ENDBRANCH  14  20
ENDBRANCH   5   6
ENDBRANCH   4   5
TORSDOF 3
ENDMDL
MODEL      119
REMARK 921   NORMALIZED FREE ENERGY PREDICTED BY IDOCK:   -2.14 KCAL/MOL
REMARK 922        TOTAL FREE ENERGY PREDICTED BY IDOCK:   -3.62 KCAL/MOL
REMARK 923 INTER-LIGAND FREE ENERGY PREDICTED BY IDOCK:   -2.99 KCAL/MOL
REMARK 924 INTRA-LIGAND FREE ENERGY PREDICTED BY IDOCK:   -0.62 KCAL/MOL
REMARK 927      BINDING AFFINITY PREDICTED BY RF-SCORE:    0.00 PKD
ROOT
HETATM    1  C   UNL     1      -8.878  14.245  66.945  1.00  0.00    -0.234 C  
HETATM    2  C   UNL     1      -7.718  15.240  66.945  1.00  0.00    -0.108 C  
HETATM    3  C   UNL     1      -8.262  16.674  66.906  1.00  0.00    -0.247 C  
HETATM    4  C   UNL     1      -6.824  15.111  68.187  1.00  0.00    -0.135 C  
ENDROOT
BRANCH   4   5
HETATM    5  C   UNL     1      -6.092  13.780  68.363  1.00  0.00    -0.101 C  
BRANCH   5   6
HETATM    6  C   UNL     1      -7.023  12.825  69.139  1.00  0.00    -0.015 C  
HETATM    7  C   UNL     1      -6.577  11.346  69.203  1.00  0.00    -0.095 C  
HETATM    8  C   UNL     1      -5.149  11.302  69.775  1.00  0.00    -0.046 C  
HETATM    9  C   UNL     1      -7.722  10.408  69.936  1.00  0.00    -0.083 C  
HETATM   10  C   UNL     1      -8.954  10.374  69.031  1.00  0.00    -0.184 C  
HETATM   11  C   UNL     1      -8.684   9.249  68.054  1.00  0.00    -0.125 C  
HETATM   12  C   UNL     1      -7.384   8.535  68.530  1.00  0.00    -0.092 C  
HETATM   13  C   UNL     1      -7.390   7.093  68.050  1.00  0.00    -0.097 C  
HETATM   14  C   UNL     1      -7.936   6.725  66.867  1.00  0.00    -0.109 C  
HETATM   15  C   UNL     1      -6.707   6.166  69.003  1.00  0.00    -0.060 C  
HETATM   16  C   UNL     1      -6.107   8.853  71.027  1.00  0.00    -0.049 C  
HETATM   17  C   UNL     1      -7.282   6.350  70.430  1.00  0.00    -0.083 C  
HETATM   18  C   UNL     1      -7.325   8.868  70.071  1.00  0.00    -0.056 C  
HETATM   19  C   UNL     1      -8.144   7.667  70.649  1.00  0.00    -0.108 C  
BRANCH  14  20
HETATM   20  C   UNL     1      -7.408   5.648  66.074  1.00  0.00    -0.077 C  
HETATM   21  C   UNL     1      -7.272   3.672  64.625  1.00  0.00    -0.066 C  
HETATM   22  C   UNL     1      -7.942   4.460  65.741  1.00  0.00    -0.095 C  
HETATM   23  C   UNL     1      -6.850   2.285  65.096  1.00  0.00    -0.043 C  
HETATM   24  O   UNL     1      -5.786   2.367  66.046  1.00  0.00    -0.016 OA 
HETATM   25  C   UNL     1      -8.036   1.537  65.694  1.00  0.00    -0.073 C  
HETATM   26  H   UNL     1      -5.523   1.503  66.339  1.00  0.00     0.000 HD 
HETATM   27  C   UNL     1      -8.725   2.343  66.806  1.00  0.00    -0.124 C  
HETATM   28  C   UNL     1      -9.084   3.760  66.340  1.00  0.00    -0.157 C  
HETATM   29  O   UNL     1      -9.884   1.628  67.223  1.00  0.00    -0.346 OA 
HETATM   30  C   UNL     1     -10.319   4.265  66.424  1.00  0.00     0.030 C  
HETATM   31  H   UNL     1     -10.311   2.127  67.911  1.00  0.00     0.000 HD 
ENDBRANCH  14  20
ENDBRANCH   5   6
ENDBRANCH   4   5
TORSDOF 3
ENDMDL
MODEL      120
REMARK 921   NORMALIZED FREE ENERGY PREDICTED BY IDOCK:   -2.09 KCAL/MOL
REMARK 922        TOTAL FREE ENERGY PREDICTED BY IDOCK:   -3.56 KCAL/MOL
REMARK 923 INTER-LIGAND FREE ENERGY PREDICTED BY IDOCK:   -2.61 KCAL/MOL
REMARK 924 INTRA-LIGAND FREE ENERGY PREDICTED BY IDOCK:   -0.94 KCAL/MOL
REMARK 927      BINDING AFFINITY PREDICTED BY RF-SCORE:    0.00 PKD
ROOT
HETATM    1  C   UNL     1     -12.105  12.941  63.536  1.00  0.00    -0.633 C  
HETATM    2  C   UNL     1     -11.132  13.645  64.482  1.00  0.00    -0.396 C  
HETATM    3  C   UNL     1     -11.305  15.165  64.371  1.00  0.00    -0.211 C  
HETATM    4  C   UNL     1     -11.345  13.256  65.952  1.00  0.00    -0.333 C  
ENDROOT
BRANCH   4   5
HETATM    5  C   UNL     1     -11.114  11.786  66.307  1.00  0.00    -0.364 C  
BRANCH   5   6
HETATM    6  C   UNL     1      -9.647  11.442  65.971  1.00  0.00    -0.247 C  
HETATM    7  C   UNL     1      -9.331   9.942  65.770  1.00  0.00    -0.259 C  
HETATM    8  C   UNL     1     -10.282   9.394  64.690  1.00  0.00     1.447 C  
HETATM    9  C   UNL     1      -7.712   9.696  65.557  1.00  0.00    -0.112 C  
HETATM   10  C   UNL     1      -7.006  10.039  66.869  1.00  0.00    -0.089 C  
HETATM   11  C   UNL     1      -7.073   8.768  67.687  1.00  0.00    -0.079 C  
HETATM   12  C   UNL     1      -7.654   7.659  66.761  1.00  0.00    -0.098 C  
HETATM   13  C   UNL     1      -7.176   6.296  67.235  1.00  0.00    -0.078 C  
HETATM   14  C   UNL     1      -6.983   6.011  68.544  1.00  0.00    -0.076 C  
HETATM   15  C   UNL     1      -6.985   5.330  66.111  1.00  0.00    -0.063 C  
HETATM   16  C   UNL     1      -7.958   7.798  63.958  1.00  0.00    -0.104 C  
HETATM   17  C   UNL     1      -6.089   5.957  65.015  1.00  0.00    -0.026 C  
HETATM   18  C   UNL     1      -7.304   8.172  65.310  1.00  0.00    -0.073 C  
HETATM   19  C   UNL     1      -5.889   7.530  65.119  1.00  0.00    -0.038 C  
BRANCH  14  20
HETATM   20  C   UNL     1      -7.219   4.702  69.093  1.00  0.00    -0.052 C  
HETATM   21  C   UNL     1      -8.253   2.840  70.310  1.00  0.00    -0.065 C  
HETATM   22  C   UNL     1      -7.922   4.318  70.173  1.00  0.00    -0.058 C  
HETATM   23  C   UNL     1      -7.727   2.269  71.622  1.00  0.00    -0.041 C  
HETATM   24  O   UNL     1      -6.299   2.228  71.627  1.00  0.00    -0.014 OA 
HETATM   25  C   UNL     1      -8.237   3.083  72.805  1.00  0.00    -0.075 C  
HETATM   26  H   UNL     1      -5.971   1.872  72.445  1.00  0.00     0.000 HD 
HETATM   27  C   UNL     1      -7.922   4.579  72.655  1.00  0.00    -0.088 C  
HETATM   28  C   UNL     1      -8.396   5.125  71.302  1.00  0.00    -0.118 C  
HETATM   29  O   UNL     1      -8.533   5.277  73.736  1.00  0.00    -0.111 OA 
HETATM   30  C   UNL     1      -9.201   6.187  71.185  1.00  0.00    -0.161 C  
HETATM   31  H   UNL     1      -8.339   6.202  73.642  1.00  0.00     0.000 HD 
ENDBRANCH  14  20
ENDBRANCH   5   6
ENDBRANCH   4   5
TORSDOF 3
ENDMDL
MODEL      121
REMARK 921   NORMALIZED FREE ENERGY PREDICTED BY IDOCK:   -1.30 KCAL/MOL
REMARK 922        TOTAL FREE ENERGY PREDICTED BY IDOCK:   -2.63 KCAL/MOL
REMARK 923 INTER-LIGAND FREE ENERGY PREDICTED BY IDOCK:   -3.44 KCAL/MOL
REMARK 924 INTRA-LIGAND FREE ENERGY PREDICTED BY IDOCK:    0.81 KCAL/MOL
REMARK 927      BINDING AFFINITY PREDICTED BY RF-SCORE:    0.00 PKD
ROOT
HETATM    1  C   UNL     1     -13.271  14.583  64.919  1.00  0.00     0.658 C  
HETATM    2  C   UNL     1     -13.022  13.080  65.038  1.00  0.00    -0.199 C  
HETATM    3  C   UNL     1     -13.117  12.424  63.654  1.00  0.00    -0.046 C  
HETATM    4  C   UNL     1     -11.640  12.750  65.619  1.00  0.00    -0.410 C  
ENDROOT
BRANCH   4   5
HETATM    5  C   UNL     1     -11.372  13.223  67.049  1.00  0.00    -0.346 C  
BRANCH   5   6
HETATM    6  C   UNL     1      -9.897  12.912  67.383  1.00  0.00    -0.207 C  
HETATM    7  C   UNL     1      -9.292  11.673  66.685  1.00  0.00    -0.203 C  
HETATM    8  C   UNL     1      -9.486  11.837  65.167  1.00  0.00    -0.109 C  
HETATM    9  C   UNL     1      -7.763  11.369  67.230  1.00  0.00    -0.145 C  
HETATM   10  C   UNL     1      -7.860  10.945  68.697  1.00  0.00    -0.126 C  
HETATM   11  C   UNL     1      -8.120   9.454  68.650  1.00  0.00    -0.104 C  
HETATM   12  C   UNL     1      -7.985   9.014  67.162  1.00  0.00    -0.102 C  
HETATM   13  C   UNL     1      -7.595   7.546  67.098  1.00  0.00    -0.107 C  
HETATM   14  C   UNL     1      -8.031   6.641  68.005  1.00  0.00    -0.110 C  
HETATM   15  C   UNL     1      -6.725   7.232  65.924  1.00  0.00    -0.053 C  
HETATM   16  C   UNL     1      -6.885  10.531  65.052  1.00  0.00     0.004 C  
HETATM   17  C   UNL     1      -5.516   8.200  65.882  1.00  0.00    -0.028 C  
HETATM   18  C   UNL     1      -7.051  10.121  66.535  1.00  0.00    -0.103 C  
HETATM   19  C   UNL     1      -5.646   9.487  66.805  1.00  0.00    -0.046 C  
BRANCH  14  20
HETATM   20  C   UNL     1      -8.296   5.269  67.661  1.00  0.00    -0.106 C  
HETATM   21  C   UNL     1      -9.404   3.088  67.478  1.00  0.00    -0.229 C  
HETATM   22  C   UNL     1      -9.075   4.350  68.259  1.00  0.00    -0.165 C  
HETATM   23  C   UNL     1      -8.973   1.835  68.233  1.00  0.00    -0.133 C  
HETATM   24  O   UNL     1      -7.548   1.745  68.305  1.00  0.00    -0.046 OA 
HETATM   25  C   UNL     1      -9.575   1.817  69.633  1.00  0.00    -0.058 C  
HETATM   26  H   UNL     1      -7.279   0.965  68.776  1.00  0.00     0.000 HD 
HETATM   27  C   UNL     1      -9.261   3.103  70.413  1.00  0.00    -0.145 C  
HETATM   28  C   UNL     1      -9.638   4.357  69.614  1.00  0.00    -0.275 C  
HETATM   29  O   UNL     1      -9.956   3.054  71.655  1.00  0.00    -0.163 OA 
HETATM   30  C   UNL     1     -10.439   5.314  70.094  1.00  0.00    -0.338 C  
HETATM   31  H   UNL     1      -9.762   3.849  72.137  1.00  0.00     0.000 HD 
ENDBRANCH  14  20
ENDBRANCH   5   6
ENDBRANCH   4   5
TORSDOF 3
ENDMDL
MODEL      122
REMARK 921   NORMALIZED FREE ENERGY PREDICTED BY IDOCK:   -1.28 KCAL/MOL
REMARK 922        TOTAL FREE ENERGY PREDICTED BY IDOCK:   -2.61 KCAL/MOL
REMARK 923 INTER-LIGAND FREE ENERGY PREDICTED BY IDOCK:   -2.35 KCAL/MOL
REMARK 924 INTRA-LIGAND FREE ENERGY PREDICTED BY IDOCK:   -0.26 KCAL/MOL
REMARK 927      BINDING AFFINITY PREDICTED BY RF-SCORE:    0.00 PKD
ROOT
HETATM    1  C   UNL     1     -11.506  11.006  67.626  1.00  0.00    -0.303 C  
HETATM    2  C   UNL     1     -10.487  11.061  66.488  1.00  0.00    -0.309 C  
HETATM    3  C   UNL     1     -11.032  10.313  65.265  1.00  0.00     0.675 C  
HETATM    4  C   UNL     1     -10.159  12.496  66.053  1.00  0.00    -0.268 C  
ENDROOT
BRANCH   4   5
HETATM    5  C   UNL     1      -9.501  13.392  67.103  1.00  0.00    -0.244 C  
BRANCH   5   6
HETATM    6  C   UNL     1      -9.282  12.548  68.377  1.00  0.00    -0.139 C  
HETATM    7  C   UNL     1      -8.082  11.574  68.346  1.00  0.00    -0.149 C  
HETATM    8  C   UNL     1      -6.818  12.383  68.002  1.00  0.00    -0.089 C  
HETATM    9  C   UNL     1      -8.040  10.634  69.704  1.00  0.00     0.015 C  
HETATM   10  C   UNL     1      -9.257   9.708  69.674  1.00  0.00    -0.225 C  
HETATM   11  C   UNL     1      -8.812   8.514  68.856  1.00  0.00    -0.139 C  
HETATM   12  C   UNL     1      -7.289   8.689  68.585  1.00  0.00    -0.081 C  
HETATM   13  C   UNL     1      -6.650   7.327  68.365  1.00  0.00    -0.049 C  
HETATM   14  C   UNL     1      -7.304   6.310  67.758  1.00  0.00    -0.084 C  
HETATM   15  C   UNL     1      -5.241   7.266  68.859  1.00  0.00    -0.014 C  
HETATM   16  C   UNL     1      -5.554  10.520  69.851  1.00  0.00    -0.048 C  
HETATM   17  C   UNL     1      -5.168   7.759  70.325  1.00  0.00    -0.023 C  
HETATM   18  C   UNL     1      -6.809   9.620  69.766  1.00  0.00    -0.070 C  
HETATM   19  C   UNL     1      -6.450   8.542  70.843  1.00  0.00    -0.042 C  
BRANCH  14  20
HETATM   20  C   UNL     1      -6.631   5.340  66.936  1.00  0.00    -0.053 C  
HETATM   21  C   UNL     1      -5.545   4.269  65.015  1.00  0.00    -0.014 C  
HETATM   22  C   UNL     1      -6.604   5.190  65.600  1.00  0.00    -0.044 C  
HETATM   23  C   UNL     1      -6.171   3.157  64.179  1.00  0.00    -0.022 C  
HETATM   24  O   UNL     1      -6.897   2.244  65.003  1.00  0.00    -0.040 OA 
HETATM   25  C   UNL     1      -7.081   3.741  63.105  1.00  0.00    -0.048 C  
HETATM   26  H   UNL     1      -7.287   1.551  64.482  1.00  0.00     0.000 HD 
HETATM   27  C   UNL     1      -8.136   4.688  63.695  1.00  0.00    -0.101 C  
HETATM   28  C   UNL     1      -7.500   5.760  64.588  1.00  0.00    -0.077 C  
HETATM   29  O   UNL     1      -8.862   5.276  62.619  1.00  0.00    -0.249 OA 
HETATM   30  C   UNL     1      -7.703   7.070  64.413  1.00  0.00    -0.113 C  
HETATM   31  H   UNL     1      -9.514   5.862  62.985  1.00  0.00     0.000 HD 
ENDBRANCH  14  20
ENDBRANCH   5   6
ENDBRANCH   4   5
TORSDOF 3
ENDMDL
MODEL      123
REMARK 921   NORMALIZED FREE ENERGY PREDICTED BY IDOCK:   -1.19 KCAL/MOL
REMARK 922        TOTAL FREE ENERGY PREDICTED BY IDOCK:   -2.51 KCAL/MOL
REMARK 923 INTER-LIGAND FREE ENERGY PREDICTED BY IDOCK:   -1.77 KCAL/MOL
REMARK 924 INTRA-LIGAND FREE ENERGY PREDICTED BY IDOCK:   -0.74 KCAL/MOL
REMARK 927      BINDING AFFINITY PREDICTED BY RF-SCORE:    0.00 PKD
ROOT
HETATM    1  C   UNL     1     -10.429   2.979  63.453  1.00  0.00    -0.215 C  
HETATM    2  C   UNL     1     -10.683   4.485  63.514  1.00  0.00     0.466 C  
HETATM    3  C   UNL     1     -11.613   4.903  62.369  1.00  0.00     1.523 C  
HETATM    4  C   UNL     1     -11.335   4.925  64.832  1.00  0.00     0.870 C  
ENDROOT
BRANCH   4   5
HETATM    5  C   UNL     1     -10.518   4.696  66.106  1.00  0.00    -0.281 C  
BRANCH   5   6
HETATM    6  C   UNL     1      -9.103   5.266  65.870  1.00  0.00    -0.159 C  
HETATM    7  C   UNL     1      -8.637   6.354  66.864  1.00  0.00    -0.110 C  
HETATM    8  C   UNL     1      -8.768   5.787  68.290  1.00  0.00    -0.111 C  
HETATM    9  C   UNL     1      -7.172   6.977  66.423  1.00  0.00    -0.075 C  
HETATM   10  C   UNL     1      -7.361   7.744  65.113  1.00  0.00    -0.071 C  
HETATM   11  C   UNL     1      -7.803   9.128  65.537  1.00  0.00    -0.095 C  
HETATM   12  C   UNL     1      -7.683   9.190  67.089  1.00  0.00    -0.098 C  
HETATM   13  C   UNL     1      -7.476  10.631  67.527  1.00  0.00    -0.093 C  
HETATM   14  C   UNL     1      -8.045  11.674  66.879  1.00  0.00    -0.164 C  
HETATM   15  C   UNL     1      -6.620  10.745  68.747  1.00  0.00    -0.054 C  
HETATM   16  C   UNL     1      -6.347   7.339  68.748  1.00  0.00    -0.035 C  
HETATM   17  C   UNL     1      -5.301   9.959  68.547  1.00  0.00    -0.035 C  
HETATM   18  C   UNL     1      -6.602   8.088  67.418  1.00  0.00    -0.058 C  
HETATM   19  C   UNL     1      -5.294   8.942  67.326  1.00  0.00    -0.034 C  
BRANCH  14  20
HETATM   20  C   UNL     1      -8.469  12.869  67.559  1.00  0.00    -0.186 C  
HETATM   21  C   UNL     1      -9.843  14.759  68.306  1.00  0.00    -0.222 C  
HETATM   22  C   UNL     1      -9.396  13.785  67.227  1.00  0.00    -0.239 C  
HETATM   23  C   UNL     1      -9.626  16.206  67.876  1.00  0.00    -0.223 C  
HETATM   24  O   UNL     1      -8.232  16.513  67.795  1.00  0.00    -0.162 OA 
HETATM   25  C   UNL     1     -10.306  16.478  66.540  1.00  0.00    -0.307 C  
HETATM   26  H   UNL     1      -8.097  17.414  67.528  1.00  0.00     0.000 HD 
HETATM   27  C   UNL     1      -9.871  15.479  65.457  1.00  0.00    -0.313 C  
HETATM   28  C   UNL     1     -10.031  14.028  65.928  1.00  0.00    -0.325 C  
HETATM   29  O   UNL     1     -10.638  15.729  64.284  1.00  0.00    -0.640 OA 
HETATM   30  C   UNL     1     -10.726  13.112  65.244  1.00  0.00    -0.318 C  
HETATM   31  H   UNL     1     -10.369  15.111  63.614  1.00  0.00     0.000 HD 
ENDBRANCH  14  20
ENDBRANCH   5   6
ENDBRANCH   4   5
TORSDOF 3
ENDMDL
MODEL      124
REMARK 921   NORMALIZED FREE ENERGY PREDICTED BY IDOCK:   -1.12 KCAL/MOL
REMARK 922        TOTAL FREE ENERGY PREDICTED BY IDOCK:   -2.43 KCAL/MOL
REMARK 923 INTER-LIGAND FREE ENERGY PREDICTED BY IDOCK:   -1.61 KCAL/MOL
REMARK 924 INTRA-LIGAND FREE ENERGY PREDICTED BY IDOCK:   -0.81 KCAL/MOL
REMARK 927      BINDING AFFINITY PREDICTED BY RF-SCORE:    0.00 PKD
ROOT
HETATM    1  C   UNL     1     -10.791  19.740  65.634  1.00  0.00    -0.337 C  
HETATM    2  C   UNL     1      -9.512  19.683  66.467  1.00  0.00    -0.472 C  
HETATM    3  C   UNL     1      -9.243  21.054  67.102  1.00  0.00    -0.119 C  
HETATM    4  C   UNL     1      -9.584  18.648  67.599  1.00  0.00    -0.325 C  
ENDROOT
BRANCH   4   5
HETATM    5  C   UNL     1      -9.743  17.187  67.175  1.00  0.00    -0.261 C  
BRANCH   5   6
HETATM    6  C   UNL     1      -9.122  16.304  68.279  1.00  0.00    -0.197 C  
HETATM    7  C   UNL     1      -8.286  15.098  67.790  1.00  0.00    -0.159 C  
HETATM    8  C   UNL     1      -7.199  15.625  66.836  1.00  0.00    -0.068 C  
HETATM    9  C   UNL     1      -7.797  14.159  69.058  1.00  0.00    -0.010 C  
HETATM   10  C   UNL     1      -9.039  13.510  69.671  1.00  0.00     1.580 C  
HETATM   11  C   UNL     1      -9.263  12.257  68.852  1.00  0.00     0.248 C  
HETATM   12  C   UNL     1      -8.040  12.110  67.900  1.00  0.00    -0.153 C  
HETATM   13  C   UNL     1      -7.851  10.645  67.536  1.00  0.00    -0.106 C  
HETATM   14  C   UNL     1      -8.893   9.795  67.389  1.00  0.00    -0.137 C  
HETATM   15  C   UNL     1      -6.414  10.284  67.335  1.00  0.00    -0.067 C  
HETATM   16  C   UNL     1      -5.601  13.521  68.061  1.00  0.00    -0.121 C  
HETATM   17  C   UNL     1      -5.574  10.737  68.554  1.00  0.00    -0.040 C  
HETATM   18  C   UNL     1      -6.898  12.906  68.642  1.00  0.00    -0.099 C  
HETATM   19  C   UNL     1      -6.291  11.767  69.527  1.00  0.00    -0.123 C  
BRANCH  14  20
HETATM   20  C   UNL     1      -8.879   8.712  66.442  1.00  0.00    -0.167 C  
HETATM   21  C   UNL     1      -9.178   6.494  65.437  1.00  0.00     0.324 C  
HETATM   22  C   UNL     1      -8.863   7.381  66.632  1.00  0.00    -0.157 C  
HETATM   23  C   UNL     1      -8.044   5.516  65.153  1.00  0.00    -0.124 C  
HETATM   24  O   UNL     1      -6.882   6.202  64.681  1.00  0.00    -0.045 OA 
HETATM   25  C   UNL     1      -7.710   4.704  66.398  1.00  0.00    -0.091 C  
HETATM   26  H   UNL     1      -6.175   5.592  64.504  1.00  0.00     0.000 HD 
HETATM   27  C   UNL     1      -7.414   5.600  67.610  1.00  0.00    -0.077 C  
HETATM   28  C   UNL     1      -8.532   6.624  67.844  1.00  0.00    -0.119 C  
HETATM   29  O   UNL     1      -7.231   4.766  68.750  1.00  0.00    -0.056 OA 
HETATM   30  C   UNL     1      -9.164   6.760  69.015  1.00  0.00    -0.136 C  
HETATM   31  H   UNL     1      -7.048   5.321  69.499  1.00  0.00     0.000 HD 
ENDBRANCH  14  20
ENDBRANCH   5   6
ENDBRANCH   4   5
TORSDOF 3
ENDMDL
MODEL      125
REMARK 921   NORMALIZED FREE ENERGY PREDICTED BY IDOCK:   -1.12 KCAL/MOL
REMARK 922        TOTAL FREE ENERGY PREDICTED BY IDOCK:   -2.42 KCAL/MOL
REMARK 923 INTER-LIGAND FREE ENERGY PREDICTED BY IDOCK:   -2.48 KCAL/MOL
REMARK 924 INTRA-LIGAND FREE ENERGY PREDICTED BY IDOCK:    0.06 KCAL/MOL
REMARK 927      BINDING AFFINITY PREDICTED BY RF-SCORE:    0.00 PKD
ROOT
HETATM    1  C   UNL     1     -10.191  12.830  68.434  1.00  0.00    -0.237 C  
HETATM    2  C   UNL     1     -11.000  11.626  67.953  1.00  0.00    -0.277 C  
HETATM    3  C   UNL     1     -11.864  11.087  69.101  1.00  0.00    -0.407 C  
HETATM    4  C   UNL     1     -11.934  11.966  66.783  1.00  0.00     0.012 C  
ENDROOT
BRANCH   4   5
HETATM    5  C   UNL     1     -11.263  12.425  65.488  1.00  0.00    -0.364 C  
BRANCH   5   6
HETATM    6  C   UNL     1      -9.780  12.001  65.546  1.00  0.00    -0.221 C  
HETATM    7  C   UNL     1      -9.514  10.483  65.666  1.00  0.00    -0.259 C  
HETATM    8  C   UNL     1     -10.239   9.778  64.505  1.00  0.00     0.695 C  
HETATM    9  C   UNL     1      -7.903  10.173  65.860  1.00  0.00    -0.132 C  
HETATM   10  C   UNL     1      -7.478  10.721  67.222  1.00  0.00    -0.101 C  
HETATM   11  C   UNL     1      -7.791   9.609  68.200  1.00  0.00    -0.086 C  
HETATM   12  C   UNL     1      -8.220   8.371  67.360  1.00  0.00    -0.120 C  
HETATM   13  C   UNL     1      -7.933   7.099  68.143  1.00  0.00    -0.119 C  
HETATM   14  C   UNL     1      -8.043   7.037  69.490  1.00  0.00    -0.130 C  
HETATM   15  C   UNL     1      -7.560   5.952  67.260  1.00  0.00    -0.096 C  
HETATM   16  C   UNL     1      -7.906   8.035  64.575  1.00  0.00    -0.138 C  
HETATM   17  C   UNL     1      -6.415   6.366  66.303  1.00  0.00    -0.043 C  
HETATM   18  C   UNL     1      -7.538   8.622  65.959  1.00  0.00    -0.093 C  
HETATM   19  C   UNL     1      -6.154   7.929  66.194  1.00  0.00    -0.041 C  
BRANCH  14  20
HETATM   20  C   UNL     1      -8.465   5.846  70.178  1.00  0.00    -0.126 C  
HETATM   21  C   UNL     1      -8.408   3.709  71.380  1.00  0.00    -0.086 C  
HETATM   22  C   UNL     1      -7.854   4.658  70.330  1.00  0.00    -0.054 C  
HETATM   23  C   UNL     1      -8.795   2.366  70.771  1.00  0.00    -0.072 C  
HETATM   24  O   UNL     1      -9.924   2.501  69.906  1.00  0.00     0.173 OA 
HETATM   25  C   UNL     1      -7.618   1.761  70.015  1.00  0.00    -0.042 C  
HETATM   26  H   UNL     1     -10.164   1.664  69.526  1.00  0.00     0.000 HD 
HETATM   27  C   UNL     1      -7.044   2.729  68.969  1.00  0.00    -0.044 C  
HETATM   28  C   UNL     1      -6.723   4.098  69.582  1.00  0.00    -0.037 C  
HETATM   29  O   UNL     1      -5.884   2.134  68.397  1.00  0.00    -0.022 OA 
HETATM   30  C   UNL     1      -5.522   4.678  69.483  1.00  0.00    -0.008 C  
HETATM   31  H   UNL     1      -5.529   2.734  67.751  1.00  0.00     0.000 HD 
ENDBRANCH  14  20
ENDBRANCH   5   6
ENDBRANCH   4   5
TORSDOF 3
ENDMDL
MODEL      126
REMARK 921   NORMALIZED FREE ENERGY PREDICTED BY IDOCK:   -1.02 KCAL/MOL
REMARK 922        TOTAL FREE ENERGY PREDICTED BY IDOCK:   -2.30 KCAL/MOL
REMARK 923 INTER-LIGAND FREE ENERGY PREDICTED BY IDOCK:   -2.52 KCAL/MOL
REMARK 924 INTRA-LIGAND FREE ENERGY PREDICTED BY IDOCK:    0.21 KCAL/MOL
REMARK 927      BINDING AFFINITY PREDICTED BY RF-SCORE:    0.00 PKD
ROOT
HETATM    1  C   UNL     1     -13.339  13.606  65.384  1.00  0.00     0.303 C  
HETATM    2  C   UNL     1     -11.878  13.456  64.961  1.00  0.00    -0.381 C  
HETATM    3  C   UNL     1     -11.746  12.326  63.932  1.00  0.00    -0.536 C  
HETATM    4  C   UNL     1     -11.307  14.733  64.331  1.00  0.00    -0.224 C  
ENDROOT
BRANCH   4   5
HETATM    5  C   UNL     1     -11.244  15.968  65.232  1.00  0.00    -0.115 C  
BRANCH   5   6
HETATM    6  C   UNL     1     -10.801  15.507  66.637  1.00  0.00    -0.285 C  
HETATM    7  C   UNL     1      -9.497  14.680  66.699  1.00  0.00    -0.297 C  
HETATM    8  C   UNL     1      -8.383  15.493  66.014  1.00  0.00     0.477 C  
HETATM    9  C   UNL     1      -9.209  14.133  68.230  1.00  0.00    -0.198 C  
HETATM   10  C   UNL     1     -10.297  13.116  68.580  1.00  0.00    -0.245 C  
HETATM   11  C   UNL     1      -9.784  11.801  68.032  1.00  0.00    -0.185 C  
HETATM   12  C   UNL     1      -8.327  12.048  67.541  1.00  0.00    -0.166 C  
HETATM   13  C   UNL     1      -7.546  10.745  67.586  1.00  0.00    -0.096 C  
HETATM   14  C   UNL     1      -8.120   9.546  67.333  1.00  0.00    -0.110 C  
HETATM   15  C   UNL     1      -6.099  10.952  67.902  1.00  0.00    -0.050 C  
HETATM   16  C   UNL     1      -6.725  14.305  68.093  1.00  0.00    -0.129 C  
HETATM   17  C   UNL     1      -5.951  11.812  69.181  1.00  0.00    -0.070 C  
HETATM   18  C   UNL     1      -7.860  13.294  68.388  1.00  0.00    -0.137 C  
HETATM   19  C   UNL     1      -7.267  12.573  69.644  1.00  0.00     0.502 C  
BRANCH  14  20
HETATM   20  C   UNL     1      -7.411   8.467  66.698  1.00  0.00    -0.081 C  
HETATM   21  C   UNL     1      -5.702   7.213  65.464  1.00  0.00    -0.032 C  
HETATM   22  C   UNL     1      -6.515   8.477  65.695  1.00  0.00    -0.056 C  
HETATM   23  C   UNL     1      -5.875   6.689  64.042  1.00  0.00    -0.031 C  
HETATM   24  O   UNL     1      -7.201   6.199  63.834  1.00  0.00    -0.053 OA 
HETATM   25  C   UNL     1      -5.547   7.777  63.026  1.00  0.00    -0.054 C  
HETATM   26  H   UNL     1      -7.308   5.873  62.948  1.00  0.00     0.000 HD 
HETATM   27  C   UNL     1      -6.353   9.061  63.274  1.00  0.00    -0.090 C  
HETATM   28  C   UNL     1      -6.224   9.539  64.726  1.00  0.00    -0.081 C  
HETATM   29  O   UNL     1      -5.902  10.056  62.361  1.00  0.00    -0.094 OA 
HETATM   30  C   UNL     1      -5.833  10.774  65.055  1.00  0.00    -0.002 C  
HETATM   31  H   UNL     1      -6.400  10.850  62.515  1.00  0.00     0.000 HD 
ENDBRANCH  14  20
ENDBRANCH   5   6
ENDBRANCH   4   5
TORSDOF 3
ENDMDL
MODEL      127
REMARK 921   NORMALIZED FREE ENERGY PREDICTED BY IDOCK:   -0.92 KCAL/MOL
REMARK 922        TOTAL FREE ENERGY PREDICTED BY IDOCK:   -2.19 KCAL/MOL
REMARK 923 INTER-LIGAND FREE ENERGY PREDICTED BY IDOCK:   -2.48 KCAL/MOL
REMARK 924 INTRA-LIGAND FREE ENERGY PREDICTED BY IDOCK:    0.29 KCAL/MOL
REMARK 927      BINDING AFFINITY PREDICTED BY RF-SCORE:    0.00 PKD
ROOT
HETATM    1  C   UNL     1      -7.752  12.028  66.098  1.00  0.00     0.581 C  
HETATM    2  C   UNL     1      -6.941  12.076  67.392  1.00  0.00    -0.139 C  
HETATM    3  C   UNL     1      -5.960  10.898  67.437  1.00  0.00    -0.047 C  
HETATM    4  C   UNL     1      -6.127  13.370  67.537  1.00  0.00    -0.074 C  
ENDROOT
BRANCH   4   5
HETATM    5  C   UNL     1      -6.927  14.671  67.623  1.00  0.00    -0.205 C  
BRANCH   5   6
HETATM    6  C   UNL     1      -8.419  14.324  67.426  1.00  0.00    -0.216 C  
HETATM    7  C   UNL     1      -9.172  13.834  68.684  1.00  0.00    -0.069 C  
HETATM    8  C   UNL     1      -8.998  14.892  69.788  1.00  0.00     0.215 C  
HETATM    9  C   UNL     1     -10.712  13.366  68.313  1.00  0.00    -0.273 C  
HETATM   10  C   UNL     1     -10.626  12.116  67.434  1.00  0.00    -0.253 C  
HETATM   11  C   UNL     1     -10.530  10.964  68.412  1.00  0.00    -0.206 C  
HETATM   12  C   UNL     1     -10.749  11.555  69.836  1.00  0.00     0.314 C  
HETATM   13  C   UNL     1     -11.297  10.477  70.757  1.00  0.00    -0.295 C  
HETATM   14  C   UNL     1     -10.941   9.177  70.642  1.00  0.00    -0.319 C  
HETATM   15  C   UNL     1     -12.224  11.023  71.794  1.00  0.00     0.134 C  
HETATM   16  C   UNL     1     -11.728  14.128  70.459  1.00  0.00    -0.284 C  
HETATM   17  C   UNL     1     -13.321  11.889  71.127  1.00  0.00     0.243 C  
HETATM   18  C   UNL     1     -11.571  12.874  69.565  1.00  0.00    -0.348 C  
HETATM   19  C   UNL     1     -13.030  12.311  69.622  1.00  0.00     1.119 C  
BRANCH  14  20
HETATM   20  C   UNL     1     -10.834   8.301  71.779  1.00  0.00    -0.332 C  
HETATM   21  C   UNL     1      -9.984   6.621  73.352  1.00  0.00    -0.231 C  
HETATM   22  C   UNL     1     -10.166   7.145  71.936  1.00  0.00    -0.208 C  
HETATM   23  C   UNL     1     -10.557   5.217  73.506  1.00  0.00    -0.258 C  
HETATM   24  O   UNL     1     -11.982   5.230  73.405  1.00  0.00    -0.417 OA 
HETATM   25  C   UNL     1      -9.961   4.276  72.466  1.00  0.00    -0.218 C  
HETATM   26  H   UNL     1     -12.339   4.355  73.501  1.00  0.00     0.000 HD 
HETATM   27  C   UNL     1     -10.126   4.817  71.038  1.00  0.00    -0.199 C  
HETATM   28  C   UNL     1      -9.607   6.255  70.912  1.00  0.00    -0.192 C  
HETATM   29  O   UNL     1      -9.442   3.942  70.146  1.00  0.00    -0.158 OA 
HETATM   30  C   UNL     1      -8.702   6.627  70.001  1.00  0.00    -0.141 C  
HETATM   31  H   UNL     1      -9.544   4.276  69.263  1.00  0.00     0.000 HD 
ENDBRANCH  14  20
ENDBRANCH   5   6
ENDBRANCH   4   5
TORSDOF 3
ENDMDL
MODEL      128
REMARK 921   NORMALIZED FREE ENERGY PREDICTED BY IDOCK:   -0.67 KCAL/MOL
REMARK 922        TOTAL FREE ENERGY PREDICTED BY IDOCK:   -1.89 KCAL/MOL
REMARK 923 INTER-LIGAND FREE ENERGY PREDICTED BY IDOCK:   -4.64 KCAL/MOL
REMARK 924 INTRA-LIGAND FREE ENERGY PREDICTED BY IDOCK:    2.76 KCAL/MOL
REMARK 927      BINDING AFFINITY PREDICTED BY RF-SCORE:    0.00 PKD
ROOT
HETATM    1  C   UNL     1      -7.131  15.234  69.079  1.00  0.00    -0.141 C  
HETATM    2  C   UNL     1      -5.838  15.253  68.265  1.00  0.00    -0.121 C  
HETATM    3  C   UNL     1      -5.322  13.820  68.074  1.00  0.00    -0.109 C  
HETATM    4  C   UNL     1      -6.019  15.875  66.874  1.00  0.00     0.402 C  
ENDROOT
BRANCH   4   5
HETATM    5  C   UNL     1      -6.431  17.348  66.835  1.00  0.00    -0.219 C  
BRANCH   5   6
HETATM    6  C   UNL     1      -7.973  17.409  66.858  1.00  0.00    -0.257 C  
HETATM    7  C   UNL     1      -8.661  16.719  68.058  1.00  0.00    -0.210 C  
HETATM    8  C   UNL     1      -8.071  17.308  69.352  1.00  0.00     0.318 C  
HETATM    9  C   UNL     1     -10.304  16.733  67.893  1.00  0.00    -0.319 C  
HETATM   10  C   UNL     1     -10.667  15.839  66.707  1.00  0.00    -0.293 C  
HETATM   11  C   UNL     1     -10.756  14.444  67.288  1.00  0.00    -0.285 C  
HETATM   12  C   UNL     1     -10.624  14.585  68.833  1.00  0.00    -0.249 C  
HETATM   13  C   UNL     1     -11.316  13.414  69.513  1.00  0.00    -0.248 C  
HETATM   14  C   UNL     1     -11.335  12.173  68.975  1.00  0.00    -0.329 C  
HETATM   15  C   UNL     1     -11.922  13.788  70.827  1.00  0.00    -0.318 C  
HETATM   16  C   UNL     1     -10.795  16.974  70.326  1.00  0.00     0.382 C  
HETATM   17  C   UNL     1     -12.826  15.035  70.661  1.00  0.00    -0.413 C  
HETATM   18  C   UNL     1     -11.094  16.066  69.109  1.00  0.00    -0.317 C  
HETATM   19  C   UNL     1     -12.631  15.839  69.305  1.00  0.00     0.343 C  
BRANCH  14  20
HETATM   20  C   UNL     1     -11.319  10.981  69.780  1.00  0.00    -0.366 C  
HETATM   21  C   UNL     1     -10.537   9.152  71.216  1.00  0.00    -0.399 C  
HETATM   22  C   UNL     1     -10.314  10.140  70.082  1.00  0.00    -0.280 C  
HETATM   23  C   UNL     1     -10.341   7.714  70.751  1.00  0.00    -0.203 C  
HETATM   24  O   UNL     1     -11.374   7.322  69.845  1.00  0.00    -0.423 OA 
HETATM   25  C   UNL     1      -8.973   7.541  70.101  1.00  0.00    -0.147 C  
HETATM   26  H   UNL     1     -11.251   6.426  69.555  1.00  0.00     0.000 HD 
HETATM   27  C   UNL     1      -8.740   8.554  68.970  1.00  0.00    -0.134 C  
HETATM   28  C   UNL     1      -9.007   9.992  69.433  1.00  0.00    -0.205 C  
HETATM   29  O   UNL     1      -7.404   8.402  68.501  1.00  0.00    -0.089 OA 
HETATM   30  C   UNL     1      -8.112  10.978  69.304  1.00  0.00    -0.012 C  
HETATM   31  H   UNL     1      -7.260   9.029  67.802  1.00  0.00     0.000 HD 
ENDBRANCH  14  20
ENDBRANCH   5   6
ENDBRANCH   4   5
TORSDOF 3
ENDMDL
MODEL      129
REMARK 921   NORMALIZED FREE ENERGY PREDICTED BY IDOCK:   -0.61 KCAL/MOL
REMARK 922        TOTAL FREE ENERGY PREDICTED BY IDOCK:   -1.82 KCAL/MOL
REMARK 923 INTER-LIGAND FREE ENERGY PREDICTED BY IDOCK:   -0.79 KCAL/MOL
REMARK 924 INTRA-LIGAND FREE ENERGY PREDICTED BY IDOCK:   -1.03 KCAL/MOL
REMARK 927      BINDING AFFINITY PREDICTED BY RF-SCORE:    0.00 PKD
ROOT
HETATM    1  C   UNL     1     -10.796   4.234  64.561  1.00  0.00    -0.075 C  
HETATM    2  C   UNL     1     -10.190   4.521  63.188  1.00  0.00     0.238 C  
HETATM    3  C   UNL     1     -10.918   5.703  62.534  1.00  0.00     3.222 C  
HETATM    4  C   UNL     1      -8.697   4.872  63.259  1.00  0.00    -0.114 C  
ENDROOT
BRANCH   4   5
HETATM    5  C   UNL     1      -7.766   3.779  63.787  1.00  0.00    -0.082 C  
BRANCH   5   6
HETATM    6  C   UNL     1      -6.720   4.450  64.704  1.00  0.00    -0.045 C  
HETATM    7  C   UNL     1      -7.285   5.281  65.879  1.00  0.00    -0.073 C  
HETATM    8  C   UNL     1      -8.228   4.378  66.694  1.00  0.00    -0.102 C  
HETATM    9  C   UNL     1      -6.077   6.056  66.696  1.00  0.00    -0.025 C  
HETATM   10  C   UNL     1      -5.478   7.110  65.764  1.00  0.00    -0.028 C  
HETATM   11  C   UNL     1      -6.357   8.329  65.945  1.00  0.00    -0.052 C  
HETATM   12  C   UNL     1      -7.336   8.015  67.115  1.00  0.00    -0.091 C  
HETATM   13  C   UNL     1      -7.778   9.313  67.772  1.00  0.00    -0.088 C  
HETATM   14  C   UNL     1      -7.952  10.457  67.070  1.00  0.00    -0.116 C  
HETATM   15  C   UNL     1      -8.023   9.162  69.239  1.00  0.00    -0.097 C  
HETATM   16  C   UNL     1      -7.141   5.874  68.944  1.00  0.00    -0.073 C  
HETATM   17  C   UNL     1      -6.795   8.506  69.919  1.00  0.00    -0.042 C  
HETATM   18  C   UNL     1      -6.572   6.914  67.948  1.00  0.00    -0.059 C  
HETATM   19  C   UNL     1      -5.758   7.820  68.930  1.00  0.00    -0.030 C  
BRANCH  14  20
HETATM   20  C   UNL     1      -8.955  11.430  67.414  1.00  0.00    -0.154 C  
HETATM   21  C   UNL     1     -11.075  12.662  67.487  1.00  0.00    -0.313 C  
HETATM   22  C   UNL     1     -10.025  11.867  66.727  1.00  0.00    -0.215 C  
HETATM   23  C   UNL     1     -11.297  14.035  66.863  1.00  0.00    -0.329 C  
HETATM   24  O   UNL     1     -10.150  14.869  67.038  1.00  0.00    -0.240 OA 
HETATM   25  C   UNL     1     -11.636  13.904  65.383  1.00  0.00    -0.331 C  
HETATM   26  H   UNL     1     -10.288  15.724  66.649  1.00  0.00     0.000 HD 
HETATM   27  C   UNL     1     -10.586  13.083  64.621  1.00  0.00    -0.378 C  
HETATM   28  C   UNL     1     -10.323  11.732  65.297  1.00  0.00    -0.317 C  
HETATM   29  O   UNL     1     -11.038  12.911  63.281  1.00  0.00    -0.601 OA 
HETATM   30  C   UNL     1     -10.416  10.563  64.653  1.00  0.00    -0.181 C  
HETATM   31  H   UNL     1     -10.388  12.402  62.810  1.00  0.00     0.000 HD 
ENDBRANCH  14  20
ENDBRANCH   5   6
ENDBRANCH   4   5
TORSDOF 3
ENDMDL
MODEL      130
REMARK 921   NORMALIZED FREE ENERGY PREDICTED BY IDOCK:   -0.46 KCAL/MOL
REMARK 922        TOTAL FREE ENERGY PREDICTED BY IDOCK:   -1.65 KCAL/MOL
REMARK 923 INTER-LIGAND FREE ENERGY PREDICTED BY IDOCK:   -1.41 KCAL/MOL
REMARK 924 INTRA-LIGAND FREE ENERGY PREDICTED BY IDOCK:   -0.24 KCAL/MOL
REMARK 927      BINDING AFFINITY PREDICTED BY RF-SCORE:    0.00 PKD
ROOT
HETATM    1  C   UNL     1     -11.014   8.940  66.533  1.00  0.00     0.658 C  
HETATM    2  C   UNL     1     -11.261  10.368  66.046  1.00  0.00     0.544 C  
HETATM    3  C   UNL     1     -11.499  11.293  67.247  1.00  0.00    -0.265 C  
HETATM    4  C   UNL     1     -10.083  10.936  65.244  1.00  0.00    -0.340 C  
ENDROOT
BRANCH   4   5
HETATM    5  C   UNL     1      -9.741  10.218  63.937  1.00  0.00    -0.325 C  
BRANCH   5   6
HETATM    6  C   UNL     1      -8.343   9.583  64.097  1.00  0.00    -0.174 C  
HETATM    7  C   UNL     1      -8.233   8.438  65.130  1.00  0.00    -0.158 C  
HETATM    8  C   UNL     1      -9.281   7.369  64.773  1.00  0.00     1.137 C  
HETATM    9  C   UNL     1      -6.667   7.942  65.307  1.00  0.00    -0.051 C  
HETATM   10  C   UNL     1      -5.880   9.085  65.950  1.00  0.00    -0.051 C  
HETATM   11  C   UNL     1      -6.086   8.905  67.438  1.00  0.00    -0.051 C  
HETATM   12  C   UNL     1      -6.836   7.555  67.635  1.00  0.00    -0.071 C  
HETATM   13  C   UNL     1      -6.525   6.995  69.014  1.00  0.00    -0.036 C  
HETATM   14  C   UNL     1      -6.329   7.789  70.091  1.00  0.00    -0.033 C  
HETATM   15  C   UNL     1      -6.499   5.500  69.036  1.00  0.00    -0.042 C  
HETATM   16  C   UNL     1      -7.211   5.539  65.694  1.00  0.00    -0.068 C  
HETATM   17  C   UNL     1      -5.565   4.967  67.922  1.00  0.00    -0.016 C  
HETATM   18  C   UNL     1      -6.470   6.738  66.336  1.00  0.00    -0.047 C  
HETATM   19  C   UNL     1      -5.158   6.028  66.811  1.00  0.00    -0.005 C  
BRANCH  14  20
HETATM   20  C   UNL     1      -6.716   7.399  71.421  1.00  0.00    -0.050 C  
HETATM   21  C   UNL     1      -7.910   6.332  73.279  1.00  0.00    -0.099 C  
HETATM   22  C   UNL     1      -7.898   6.976  71.902  1.00  0.00    -0.094 C  
HETATM   23  C   UNL     1      -8.855   7.059  74.229  1.00  0.00    -0.196 C  
HETATM   24  O   UNL     1      -8.361   8.363  74.544  1.00  0.00    -0.373 OA 
HETATM   25  C   UNL     1     -10.252   7.154  73.628  1.00  0.00    -0.402 C  
HETATM   26  H   UNL     1      -8.950   8.816  75.136  1.00  0.00     0.000 HD 
HETATM   27  C   UNL     1     -10.236   7.785  72.227  1.00  0.00    -0.228 C  
HETATM   28  C   UNL     1      -9.232   7.086  71.302  1.00  0.00    -0.152 C  
HETATM   29  O   UNL     1     -11.556   7.727  71.695  1.00  0.00    -0.253 OA 
HETATM   30  C   UNL     1      -9.566   6.587  70.107  1.00  0.00    -0.171 C  
HETATM   31  H   UNL     1     -11.546   8.117  70.828  1.00  0.00     0.000 HD 
ENDBRANCH  14  20
ENDBRANCH   5   6
ENDBRANCH   4   5
TORSDOF 3
ENDMDL
MODEL      131
REMARK 921   NORMALIZED FREE ENERGY PREDICTED BY IDOCK:   -0.06 KCAL/MOL
REMARK 922        TOTAL FREE ENERGY PREDICTED BY IDOCK:   -1.17 KCAL/MOL
REMARK 923 INTER-LIGAND FREE ENERGY PREDICTED BY IDOCK:   -2.08 KCAL/MOL
REMARK 924 INTRA-LIGAND FREE ENERGY PREDICTED BY IDOCK:    0.91 KCAL/MOL
REMARK 927      BINDING AFFINITY PREDICTED BY RF-SCORE:    0.00 PKD
ROOT
HETATM    1  C   UNL     1     -11.357   5.566  74.221  1.00  0.00     1.500 C  
HETATM    2  C   UNL     1     -10.937   4.226  73.617  1.00  0.00    -0.364 C  
HETATM    3  C   UNL     1     -12.182   3.411  73.242  1.00  0.00     0.581 C  
HETATM    4  C   UNL     1     -10.082   4.385  72.352  1.00  0.00    -0.243 C  
ENDROOT
BRANCH   4   5
HETATM    5  C   UNL     1      -8.732   5.083  72.527  1.00  0.00    -0.120 C  
BRANCH   5   6
HETATM    6  C   UNL     1      -8.990   6.604  72.595  1.00  0.00    -0.136 C  
HETATM    7  C   UNL     1      -9.723   7.221  71.381  1.00  0.00    -0.170 C  
HETATM    8  C   UNL     1     -11.041   6.452  71.176  1.00  0.00    -0.344 C  
HETATM    9  C   UNL     1      -9.813   8.865  71.512  1.00  0.00    -0.384 C  
HETATM   10  C   UNL     1      -8.394   9.425  71.398  1.00  0.00     0.319 C  
HETATM   11  C   UNL     1      -8.156   9.574  69.911  1.00  0.00    -0.163 C  
HETATM   12  C   UNL     1      -9.508   9.271  69.200  1.00  0.00    -0.157 C  
HETATM   13  C   UNL     1      -9.552   9.988  67.860  1.00  0.00    -0.163 C  
HETATM   14  C   UNL     1      -8.447  10.171  67.100  1.00  0.00    -0.125 C  
HETATM   15  C   UNL     1     -10.932  10.421  67.484  1.00  0.00    -0.358 C  
HETATM   16  C   UNL     1     -12.045   9.079  70.422  1.00  0.00     0.139 C  
HETATM   17  C   UNL     1     -11.573  11.225  68.642  1.00  0.00    -0.384 C  
HETATM   18  C   UNL     1     -10.585   9.580  70.311  1.00  0.00    -0.317 C  
HETATM   19  C   UNL     1     -10.835  11.102  70.043  1.00  0.00     0.030 C  
BRANCH  14  20
HETATM   20  C   UNL     1      -8.490  10.175  65.662  1.00  0.00    -0.159 C  
HETATM   21  C   UNL     1      -8.931   9.502  63.345  1.00  0.00    -0.205 C  
HETATM   22  C   UNL     1      -8.583   9.160  64.785  1.00  0.00    -0.209 C  
HETATM   23  C   UNL     1      -7.867   8.994  62.377  1.00  0.00    -0.123 C  
HETATM   24  O   UNL     1      -6.643   9.713  62.537  1.00  0.00    -0.097 OA 
HETATM   25  C   UNL     1      -7.634   7.501  62.571  1.00  0.00    -0.110 C  
HETATM   26  H   UNL     1      -5.981   9.396  61.934  1.00  0.00     0.000 HD 
HETATM   27  C   UNL     1      -7.304   7.154  64.031  1.00  0.00    -0.081 C  
HETATM   28  C   UNL     1      -8.346   7.728  64.999  1.00  0.00    -0.094 C  
HETATM   29  O   UNL     1      -7.219   5.737  64.146  1.00  0.00    -0.051 OA 
HETATM   30  C   UNL     1      -8.999   6.981  65.896  1.00  0.00    -0.092 C  
HETATM   31  H   UNL     1      -7.016   5.522  65.049  1.00  0.00     0.000 HD 
ENDBRANCH  14  20
ENDBRANCH   5   6
ENDBRANCH   4   5
TORSDOF 3
ENDMDL
MODEL      132
REMARK 921   NORMALIZED FREE ENERGY PREDICTED BY IDOCK:    0.07 KCAL/MOL
REMARK 922        TOTAL FREE ENERGY PREDICTED BY IDOCK:   -1.02 KCAL/MOL
REMARK 923 INTER-LIGAND FREE ENERGY PREDICTED BY IDOCK:   -0.10 KCAL/MOL
REMARK 924 INTRA-LIGAND FREE ENERGY PREDICTED BY IDOCK:   -0.92 KCAL/MOL
REMARK 927      BINDING AFFINITY PREDICTED BY RF-SCORE:    0.00 PKD
ROOT
HETATM    1  C   UNL     1     -11.311  16.988  67.500  1.00  0.00     0.312 C  
HETATM    2  C   UNL     1     -10.357  16.265  68.450  1.00  0.00    -0.271 C  
HETATM    3  C   UNL     1      -8.980  16.114  67.790  1.00  0.00    -0.192 C  
HETATM    4  C   UNL     1     -10.162  17.010  69.777  1.00  0.00     0.100 C  
ENDROOT
BRANCH   4   5
HETATM    5  C   UNL     1     -11.405  17.177  70.653  1.00  0.00     1.116 C  
BRANCH   5   6
HETATM    6  C   UNL     1     -12.402  16.059  70.280  1.00  0.00    -0.053 C  
HETATM    7  C   UNL     1     -12.129  14.672  70.906  1.00  0.00    -0.393 C  
HETATM    8  C   UNL     1     -12.049  14.845  72.434  1.00  0.00    -0.394 C  
HETATM    9  C   UNL     1     -13.177  13.538  70.321  1.00  0.00     0.511 C  
HETATM   10  C   UNL     1     -12.868  13.330  68.838  1.00  0.00     1.274 C  
HETATM   11  C   UNL     1     -11.763  12.295  68.816  1.00  0.00    -0.390 C  
HETATM   12  C   UNL     1     -11.583  11.789  70.277  1.00  0.00    -0.210 C  
HETATM   13  C   UNL     1     -11.011  10.381  70.263  1.00  0.00    -0.353 C  
HETATM   14  C   UNL     1     -10.134   9.965  69.321  1.00  0.00    -0.214 C  
HETATM   15  C   UNL     1     -11.499   9.549  71.405  1.00  0.00    -0.462 C  
HETATM   16  C   UNL     1     -13.340  12.234  72.441  1.00  0.00    -0.194 C  
HETATM   17  C   UNL     1     -13.046   9.593  71.474  1.00  0.00    -0.488 C  
HETATM   18  C   UNL     1     -12.984  12.080  70.942  1.00  0.00    -0.087 C  
HETATM   19  C   UNL     1     -13.731  10.743  70.618  1.00  0.00     0.947 C  
BRANCH  14  20
HETATM   20  C   UNL     1      -9.091   9.014  69.601  1.00  0.00    -0.155 C  
HETATM   21  C   UNL     1      -6.898   8.054  70.133  1.00  0.00    -0.041 C  
HETATM   22  C   UNL     1      -7.758   9.102  69.447  1.00  0.00    -0.080 C  
HETATM   23  C   UNL     1      -6.014   7.315  69.134  1.00  0.00    -0.026 C  
HETATM   24  O   UNL     1      -6.797   6.495  68.265  1.00  0.00    -0.065 OA 
HETATM   25  C   UNL     1      -5.180   8.300  68.323  1.00  0.00    -0.033 C  
HETATM   26  H   UNL     1      -6.246   6.034  67.643  1.00  0.00     0.000 HD 
HETATM   27  C   UNL     1      -6.049   9.372  67.648  1.00  0.00    -0.053 C  
HETATM   28  C   UNL     1      -6.982  10.061  68.653  1.00  0.00    -0.069 C  
HETATM   29  O   UNL     1      -5.188  10.313  67.015  1.00  0.00    -0.040 OA 
HETATM   30  C   UNL     1      -7.028  11.388  68.815  1.00  0.00    -0.097 C  
HETATM   31  H   UNL     1      -5.725  10.976  66.598  1.00  0.00     0.000 HD 
ENDBRANCH  14  20
ENDBRANCH   5   6
ENDBRANCH   4   5
TORSDOF 3
ENDMDL
MODEL      133
REMARK 921   NORMALIZED FREE ENERGY PREDICTED BY IDOCK:    0.31 KCAL/MOL
REMARK 922        TOTAL FREE ENERGY PREDICTED BY IDOCK:   -0.73 KCAL/MOL
REMARK 923 INTER-LIGAND FREE ENERGY PREDICTED BY IDOCK:   -1.25 KCAL/MOL
REMARK 924 INTRA-LIGAND FREE ENERGY PREDICTED BY IDOCK:    0.52 KCAL/MOL
REMARK 927      BINDING AFFINITY PREDICTED BY RF-SCORE:    0.00 PKD
ROOT
HETATM    1  C   UNL     1      -6.239   5.039  64.681  1.00  0.00    -0.030 C  
HETATM    2  C   UNL     1      -7.231   3.876  64.671  1.00  0.00    -0.066 C  
HETATM    3  C   UNL     1      -6.616   2.662  65.380  1.00  0.00    -0.035 C  
HETATM    4  C   UNL     1      -8.550   4.214  65.380  1.00  0.00    -0.118 C  
ENDROOT
BRANCH   4   5
HETATM    5  C   UNL     1      -9.384   5.338  64.764  1.00  0.00     0.202 C  
BRANCH   5   6
HETATM    6  C   UNL     1      -8.604   6.659  64.941  1.00  0.00     0.125 C  
HETATM    7  C   UNL     1      -8.641   7.283  66.355  1.00  0.00    -0.141 C  
HETATM    8  C   UNL     1      -8.155   6.222  67.359  1.00  0.00    -0.109 C  
HETATM    9  C   UNL     1      -7.891   8.754  66.377  1.00  0.00    -0.099 C  
HETATM   10  C   UNL     1      -8.724   9.721  65.534  1.00  0.00    -0.171 C  
HETATM   11  C   UNL     1      -9.769  10.260  66.488  1.00  0.00    -0.243 C  
HETATM   12  C   UNL     1      -9.406   9.734  67.907  1.00  0.00    -0.139 C  
HETATM   13  C   UNL     1      -9.957  10.684  68.959  1.00  0.00    -0.226 C  
HETATM   14  C   UNL     1     -11.122  11.351  68.794  1.00  0.00    -0.290 C  
HETATM   15  C   UNL     1      -9.092  10.759  70.176  1.00  0.00     1.104 C  
HETATM   16  C   UNL     1      -6.974   8.531  68.685  1.00  0.00    -0.064 C  
HETATM   17  C   UNL     1      -7.627  11.059  69.772  1.00  0.00     0.194 C  
HETATM   18  C   UNL     1      -7.856   9.455  67.811  1.00  0.00    -0.095 C  
HETATM   19  C   UNL     1      -7.293  10.853  68.232  1.00  0.00    -0.087 C  
BRANCH  14  20
HETATM   20  C   UNL     1     -11.998  11.661  69.892  1.00  0.00    -0.414 C  
HETATM   21  C   UNL     1     -13.735  12.732  71.254  1.00  0.00     0.624 C  
HETATM   22  C   UNL     1     -12.623  12.806  70.220  1.00  0.00    -0.061 C  
HETATM   23  C   UNL     1     -13.458  13.650  72.439  1.00  0.00    -0.584 C  
HETATM   24  O   UNL     1     -12.347  13.180  73.204  1.00  0.00     0.926 OA 
HETATM   25  C   UNL     1     -13.209  15.077  71.966  1.00  0.00    -0.457 C  
HETATM   26  H   UNL     1     -12.174  13.752  73.942  1.00  0.00     0.000 HD 
HETATM   27  C   UNL     1     -12.101  15.148  70.905  1.00  0.00    -0.334 C  
HETATM   28  C   UNL     1     -12.357  14.170  69.751  1.00  0.00    -0.350 C  
HETATM   29  O   UNL     1     -12.016  16.490  70.435  1.00  0.00    -0.294 OA 
HETATM   30  C   UNL     1     -12.389  14.547  68.468  1.00  0.00    -0.020 C  
HETATM   31  H   UNL     1     -11.331  16.533  69.778  1.00  0.00     0.000 HD 
ENDBRANCH  14  20
ENDBRANCH   5   6
ENDBRANCH   4   5
TORSDOF 3
ENDMDL
MODEL      134
REMARK 921   NORMALIZED FREE ENERGY PREDICTED BY IDOCK:    0.40 KCAL/MOL
REMARK 922        TOTAL FREE ENERGY PREDICTED BY IDOCK:   -0.63 KCAL/MOL
REMARK 923 INTER-LIGAND FREE ENERGY PREDICTED BY IDOCK:   -0.56 KCAL/MOL
REMARK 924 INTRA-LIGAND FREE ENERGY PREDICTED BY IDOCK:   -0.07 KCAL/MOL
REMARK 927      BINDING AFFINITY PREDICTED BY RF-SCORE:    0.00 PKD
ROOT
HETATM    1  C   UNL     1      -5.755  13.955  69.398  1.00  0.00    -0.089 C  
HETATM    2  C   UNL     1      -6.827  15.041  69.322  1.00  0.00    -0.149 C  
HETATM    3  C   UNL     1      -6.409  16.246  70.174  1.00  0.00     0.044 C  
HETATM    4  C   UNL     1      -7.067  15.540  67.890  1.00  0.00    -0.155 C  
ENDROOT
BRANCH   4   5
HETATM    5  C   UNL     1      -7.597  14.510  66.891  1.00  0.00     0.325 C  
BRANCH   5   6
HETATM    6  C   UNL     1      -6.598  13.334  66.847  1.00  0.00     0.945 C  
HETATM    7  C   UNL     1      -7.206  11.922  67.005  1.00  0.00    -0.118 C  
HETATM    8  C   UNL     1      -8.300  11.750  65.935  1.00  0.00     0.282 C  
HETATM    9  C   UNL     1      -6.026  10.769  67.081  1.00  0.00    -0.062 C  
HETATM   10  C   UNL     1      -5.250  10.974  68.383  1.00  0.00    -0.039 C  
HETATM   11  C   UNL     1      -6.039  10.211  69.426  1.00  0.00    -0.041 C  
HETATM   12  C   UNL     1      -7.153   9.427  68.672  1.00  0.00    -0.070 C  
HETATM   13  C   UNL     1      -7.550   8.201  69.479  1.00  0.00    -0.100 C  
HETATM   14  C   UNL     1      -7.556   8.195  70.832  1.00  0.00    -0.076 C  
HETATM   15  C   UNL     1      -7.953   7.049  68.615  1.00  0.00    -0.120 C  
HETATM   16  C   UNL     1      -7.324   9.006  65.886  1.00  0.00    -0.093 C  
HETATM   17  C   UNL     1      -6.860   6.770  67.554  1.00  0.00    -0.077 C  
HETATM   18  C   UNL     1      -6.573   9.274  67.213  1.00  0.00    -0.064 C  
HETATM   19  C   UNL     1      -5.789   7.928  67.363  1.00  0.00    -0.038 C  
BRANCH  14  20
HETATM   20  C   UNL     1      -8.503   7.430  71.597  1.00  0.00    -0.120 C  
HETATM   21  C   UNL     1      -9.455   5.793  73.157  1.00  0.00    -0.147 C  
HETATM   22  C   UNL     1      -8.410   6.199  72.130  1.00  0.00    -0.110 C  
HETATM   23  C   UNL     1     -10.191   4.526  72.735  1.00  0.00    -0.179 C  
HETATM   24  O   UNL     1     -11.014   4.768  71.592  1.00  0.00     0.054 OA 
HETATM   25  C   UNL     1      -9.203   3.402  72.448  1.00  0.00    -0.149 C  
HETATM   26  H   UNL     1     -11.472   3.978  71.330  1.00  0.00     0.000 HD 
HETATM   27  C   UNL     1      -8.134   3.820  71.427  1.00  0.00    -0.068 C  
HETATM   28  C   UNL     1      -7.449   5.132  71.829  1.00  0.00    -0.090 C  
HETATM   29  O   UNL     1      -7.190   2.760  71.307  1.00  0.00    -0.032 OA 
HETATM   30  C   UNL     1      -6.122   5.257  71.944  1.00  0.00    -0.026 C  
HETATM   31  H   UNL     1      -6.529   3.019  70.676  1.00  0.00     0.000 HD 
ENDBRANCH  14  20
ENDBRANCH   5   6
ENDBRANCH   4   5
TORSDOF 3
ENDMDL
MODEL      135
REMARK 921   NORMALIZED FREE ENERGY PREDICTED BY IDOCK:    0.88 KCAL/MOL
REMARK 922        TOTAL FREE ENERGY PREDICTED BY IDOCK:   -0.06 KCAL/MOL
REMARK 923 INTER-LIGAND FREE ENERGY PREDICTED BY IDOCK:   -0.08 KCAL/MOL
REMARK 924 INTRA-LIGAND FREE ENERGY PREDICTED BY IDOCK:    0.02 KCAL/MOL
REMARK 927      BINDING AFFINITY PREDICTED BY RF-SCORE:    0.00 PKD
ROOT
HETATM    1  C   UNL     1     -10.646  13.943  68.750  1.00  0.00    -0.258 C  
HETATM    2  C   UNL     1     -11.803  13.043  69.183  1.00  0.00    -0.360 C  
HETATM    3  C   UNL     1     -12.415  13.572  70.486  1.00  0.00    -0.373 C  
HETATM    4  C   UNL     1     -12.923  12.968  68.136  1.00  0.00     2.400 C  
ENDROOT
BRANCH   4   5
HETATM    5  C   UNL     1     -12.549  12.364  66.781  1.00  0.00     1.179 C  
BRANCH   5   6
HETATM    6  C   UNL     1     -11.014  12.436  66.637  1.00  0.00    -0.309 C  
HETATM    7  C   UNL     1     -10.325  11.168  66.082  1.00  0.00    -0.302 C  
HETATM    8  C   UNL     1     -10.985  10.816  64.736  1.00  0.00     0.103 C  
HETATM    9  C   UNL     1      -8.681  11.323  66.108  1.00  0.00    -0.179 C  
HETATM   10  C   UNL     1      -8.234  11.364  67.570  1.00  0.00    -0.130 C  
HETATM   11  C   UNL     1      -8.086   9.912  67.969  1.00  0.00    -0.108 C  
HETATM   12  C   UNL     1      -8.272   9.063  66.678  1.00  0.00    -0.118 C  
HETATM   13  C   UNL     1      -7.537   7.740  66.827  1.00  0.00    -0.098 C  
HETATM   14  C   UNL     1      -7.433   7.099  68.014  1.00  0.00    -0.099 C  
HETATM   15  C   UNL     1      -6.991   7.235  65.530  1.00  0.00    -0.060 C  
HETATM   16  C   UNL     1      -8.276  10.018  64.022  1.00  0.00    -0.156 C  
HETATM   17  C   UNL     1      -6.153   8.339  64.839  1.00  0.00    -0.048 C  
HETATM   18  C   UNL     1      -7.892  10.066  65.520  1.00  0.00    -0.134 C  
HETATM   19  C   UNL     1      -6.352   9.805  65.418  1.00  0.00    -0.082 C  
BRANCH  14  20
HETATM   20  C   UNL     1      -7.408   5.664  68.119  1.00  0.00    -0.073 C  
HETATM   21  C   UNL     1      -8.092   3.350  68.558  1.00  0.00    -0.073 C  
HETATM   22  C   UNL     1      -8.108   4.830  68.906  1.00  0.00    -0.082 C  
HETATM   23  C   UNL     1      -7.585   2.507  69.723  1.00  0.00    -0.043 C  
HETATM   24  O   UNL     1      -6.196   2.744  69.962  1.00  0.00    -0.023 OA 
HETATM   25  C   UNL     1      -8.394   2.791  70.983  1.00  0.00    -0.083 C  
HETATM   26  H   UNL     1      -5.881   2.219  70.688  1.00  0.00     0.000 HD 
HETATM   27  C   UNL     1      -8.429   4.289  71.322  1.00  0.00    -0.097 C  
HETATM   28  C   UNL     1      -8.876   5.131  70.120  1.00  0.00    -0.139 C  
HETATM   29  O   UNL     1      -9.298   4.476  72.435  1.00  0.00    -0.123 OA 
HETATM   30  C   UNL     1      -9.892   5.998  70.175  1.00  0.00    -0.217 C  
HETATM   31  H   UNL     1      -9.319   5.403  72.644  1.00  0.00     0.000 HD 
ENDBRANCH  14  20
ENDBRANCH   5   6
ENDBRANCH   4   5
TORSDOF 3
ENDMDL
MODEL      136
REMARK 921   NORMALIZED FREE ENERGY PREDICTED BY IDOCK:    0.96 KCAL/MOL
REMARK 922        TOTAL FREE ENERGY PREDICTED BY IDOCK:    0.02 KCAL/MOL
REMARK 923 INTER-LIGAND FREE ENERGY PREDICTED BY IDOCK:   -1.04 KCAL/MOL
REMARK 924 INTRA-LIGAND FREE ENERGY PREDICTED BY IDOCK:    1.06 KCAL/MOL
REMARK 927      BINDING AFFINITY PREDICTED BY RF-SCORE:    0.00 PKD
ROOT
HETATM    1  C   UNL     1      -9.050  14.373  67.180  1.00  0.00    -0.238 C  
HETATM    2  C   UNL     1      -7.738  15.149  67.070  1.00  0.00    -0.158 C  
HETATM    3  C   UNL     1      -8.027  16.617  66.731  1.00  0.00    -0.284 C  
HETATM    4  C   UNL     1      -6.920  15.121  68.369  1.00  0.00    -0.108 C  
ENDROOT
BRANCH   4   5
HETATM    5  C   UNL     1      -6.432  13.748  68.836  1.00  0.00    -0.100 C  
BRANCH   5   6
HETATM    6  C   UNL     1      -7.618  13.028  69.512  1.00  0.00     0.692 C  
HETATM    7  C   UNL     1      -7.610  11.484  69.426  1.00  0.00     0.156 C  
HETATM    8  C   UNL     1      -6.270  10.980  69.992  1.00  0.00    -0.139 C  
HETATM    9  C   UNL     1      -8.994  10.844  70.061  1.00  0.00     1.081 C  
HETATM   10  C   UNL     1     -10.159  11.249  69.156  1.00  0.00    -0.093 C  
HETATM   11  C   UNL     1     -10.190  10.194  68.072  1.00  0.00    -0.205 C  
HETATM   12  C   UNL     1      -9.160   9.097  68.473  1.00  0.00    -0.132 C  
HETATM   13  C   UNL     1      -9.560   7.769  67.850  1.00  0.00    -0.167 C  
HETATM   14  C   UNL     1     -10.153   7.688  66.637  1.00  0.00    -0.278 C  
HETATM   15  C   UNL     1      -9.195   6.599  68.706  1.00  0.00    -0.129 C  
HETATM   16  C   UNL     1      -7.918   8.796  70.990  1.00  0.00    -0.170 C  
HETATM   17  C   UNL     1      -9.734   6.801  70.144  1.00  0.00    -0.175 C  
HETATM   18  C   UNL     1      -9.053   9.249  70.040  1.00  0.00    -0.229 C  
HETATM   19  C   UNL     1     -10.195   8.280  70.494  1.00  0.00    -0.213 C  
BRANCH  14  20
HETATM   20  C   UNL     1      -9.928   6.586  65.739  1.00  0.00     0.608 C  
HETATM   21  C   UNL     1      -8.990   4.552  64.740  1.00  0.00    -0.152 C  
HETATM   22  C   UNL     1      -8.825   5.851  65.512  1.00  0.00    -0.100 C  
HETATM   23  C   UNL     1      -8.115   4.528  63.492  1.00  0.00    -0.093 C  
HETATM   24  O   UNL     1      -8.574   5.476  62.526  1.00  0.00    -0.169 OA 
HETATM   25  C   UNL     1      -6.659   4.800  63.851  1.00  0.00    -0.042 C  
HETATM   26  H   UNL     1      -8.028   5.461  61.748  1.00  0.00     0.000 HD 
HETATM   27  C   UNL     1      -6.496   6.102  64.650  1.00  0.00    -0.034 C  
HETATM   28  C   UNL     1      -7.432   6.142  65.865  1.00  0.00    -0.082 C  
HETATM   29  O   UNL     1      -5.133   6.218  65.044  1.00  0.00    -0.013 OA 
HETATM   30  C   UNL     1      -6.999   6.362  67.112  1.00  0.00    -0.071 C  
HETATM   31  H   UNL     1      -5.032   7.023  65.539  1.00  0.00     0.000 HD 
ENDBRANCH  14  20
ENDBRANCH   5   6
ENDBRANCH   4   5
TORSDOF 3
ENDMDL
MODEL      137
REMARK 921   NORMALIZED FREE ENERGY PREDICTED BY IDOCK:    1.18 KCAL/MOL
REMARK 922        TOTAL FREE ENERGY PREDICTED BY IDOCK:    0.29 KCAL/MOL
REMARK 923 INTER-LIGAND FREE ENERGY PREDICTED BY IDOCK:   -0.91 KCAL/MOL
REMARK 924 INTRA-LIGAND FREE ENERGY PREDICTED BY IDOCK:    1.19 KCAL/MOL
REMARK 927      BINDING AFFINITY PREDICTED BY RF-SCORE:    0.00 PKD
ROOT
HETATM    1  C   UNL     1      -7.493   9.347  73.500  1.00  0.00     1.483 C  
HETATM    2  C   UNL     1      -6.045   9.291  73.016  1.00  0.00     0.214 C  
HETATM    3  C   UNL     1      -5.377   8.005  73.518  1.00  0.00    -0.046 C  
HETATM    4  C   UNL     1      -5.928   9.313  71.486  1.00  0.00    -0.070 C  
ENDROOT
BRANCH   4   5
HETATM    5  C   UNL     1      -6.442  10.571  70.782  1.00  0.00     0.094 C  
BRANCH   5   6
HETATM    6  C   UNL     1      -7.752  10.203  70.053  1.00  0.00    -0.150 C  
HETATM    7  C   UNL     1      -7.859   8.747  69.544  1.00  0.00    -0.091 C  
HETATM    8  C   UNL     1      -7.614   7.805  70.737  1.00  0.00    -0.078 C  
HETATM    9  C   UNL     1      -9.239   8.522  68.665  1.00  0.00    -0.142 C  
HETATM   10  C   UNL     1      -9.119   9.344  67.381  1.00  0.00    -0.141 C  
HETATM   11  C   UNL     1      -8.379   8.445  66.415  1.00  0.00    -0.116 C  
HETATM   12  C   UNL     1      -8.247   7.052  67.099  1.00  0.00    -0.118 C  
HETATM   13  C   UNL     1      -8.124   5.972  66.036  1.00  0.00    -0.113 C  
HETATM   14  C   UNL     1      -7.485   6.180  64.862  1.00  0.00    -0.083 C  
HETATM   15  C   UNL     1      -8.749   4.679  66.454  1.00  0.00    -0.112 C  
HETATM   16  C   UNL     1      -9.621   6.171  69.401  1.00  0.00    -0.159 C  
HETATM   17  C   UNL     1     -10.202   4.920  66.932  1.00  0.00    -0.254 C  
HETATM   18  C   UNL     1      -9.443   7.033  68.128  1.00  0.00    -0.123 C  
HETATM   19  C   UNL     1     -10.576   6.436  67.229  1.00  0.00    -0.382 C  
BRANCH  14  20
HETATM   20  C   UNL     1      -6.755   5.142  64.184  1.00  0.00    -0.046 C  
HETATM   21  C   UNL     1      -6.099   3.466  62.517  1.00  0.00    -0.014 C  
HETATM   22  C   UNL     1      -7.165   4.216  63.299  1.00  0.00    -0.049 C  
HETATM   23  C   UNL     1      -6.216   1.959  62.716  1.00  0.00    -0.009 C  
HETATM   24  O   UNL     1      -5.878   1.591  64.055  1.00  0.00    -0.008 OA 
HETATM   25  C   UNL     1      -7.621   1.479  62.375  1.00  0.00    -0.037 C  
HETATM   26  H   UNL     1      -5.951   0.652  64.180  1.00  0.00     0.000 HD 
HETATM   27  C   UNL     1      -8.699   2.253  63.149  1.00  0.00    -0.085 C  
HETATM   28  C   UNL     1      -8.529   3.770  62.994  1.00  0.00    -0.086 C  
HETATM   29  O   UNL     1      -9.977   1.827  62.684  1.00  0.00    -0.091 OA 
HETATM   30  C   UNL     1      -9.510   4.575  62.571  1.00  0.00    -0.094 C  
HETATM   31  H   UNL     1     -10.643   2.306  63.163  1.00  0.00     0.000 HD 
ENDBRANCH  14  20
ENDBRANCH   5   6
ENDBRANCH   4   5
TORSDOF 3
ENDMDL
MODEL      138
REMARK 921   NORMALIZED FREE ENERGY PREDICTED BY IDOCK:    2.02 KCAL/MOL
REMARK 922        TOTAL FREE ENERGY PREDICTED BY IDOCK:    1.27 KCAL/MOL
REMARK 923 INTER-LIGAND FREE ENERGY PREDICTED BY IDOCK:    1.86 KCAL/MOL
REMARK 924 INTRA-LIGAND FREE ENERGY PREDICTED BY IDOCK:   -0.59 KCAL/MOL
REMARK 927      BINDING AFFINITY PREDICTED BY RF-SCORE:    0.00 PKD
ROOT
HETATM    1  C   UNL     1      -9.944  17.580  65.491  1.00  0.00     0.245 C  
HETATM    2  C   UNL     1      -8.823  16.987  66.344  1.00  0.00    -0.313 C  
HETATM    3  C   UNL     1      -7.677  16.513  65.441  1.00  0.00     2.521 C  
HETATM    4  C   UNL     1      -8.243  17.993  67.348  1.00  0.00    -0.226 C  
ENDROOT
BRANCH   4   5
HETATM    5  C   UNL     1      -9.203  18.517  68.418  1.00  0.00    -0.347 C  
BRANCH   5   6
HETATM    6  C   UNL     1     -10.458  17.618  68.410  1.00  0.00    -0.360 C  
HETATM    7  C   UNL     1     -10.340  16.284  69.182  1.00  0.00    -0.272 C  
HETATM    8  C   UNL     1      -9.905  16.603  70.624  1.00  0.00     2.058 C  
HETATM    9  C   UNL     1     -11.692  15.356  68.981  1.00  0.00    -0.380 C  
HETATM   10  C   UNL     1     -11.751  14.920  67.517  1.00  0.00    -0.328 C  
HETATM   11  C   UNL     1     -10.904  13.667  67.454  1.00  0.00    -0.282 C  
HETATM   12  C   UNL     1     -10.523  13.300  68.918  1.00  0.00    -0.123 C  
HETATM   13  C   UNL     1     -10.258  11.806  69.016  1.00  0.00    -0.044 C  
HETATM   14  C   UNL     1      -9.700  11.101  68.006  1.00  0.00    -0.183 C  
HETATM   15  C   UNL     1     -10.648  11.239  70.344  1.00  0.00     1.130 C  
HETATM   16  C   UNL     1     -11.658  14.368  71.271  1.00  0.00    -0.061 C  
HETATM   17  C   UNL     1     -12.105  11.638  70.686  1.00  0.00    -0.432 C  
HETATM   18  C   UNL     1     -11.665  13.971  69.775  1.00  0.00    -0.375 C  
HETATM   19  C   UNL     1     -12.714  12.809  69.803  1.00  0.00     0.444 C  
BRANCH  14  20
HETATM   20  C   UNL     1      -8.832   9.976  68.234  1.00  0.00    -0.116 C  
HETATM   21  C   UNL     1      -7.563   7.906  67.884  1.00  0.00    -0.109 C  
HETATM   22  C   UNL     1      -8.799   8.762  67.657  1.00  0.00    -0.138 C  
HETATM   23  C   UNL     1      -7.922   6.559  68.502  1.00  0.00    -0.110 C  
HETATM   24  O   UNL     1      -8.391   6.719  69.842  1.00  0.00    -0.131 OA 
HETATM   25  C   UNL     1      -8.969   5.843  67.657  1.00  0.00    -0.107 C  
HETATM   26  H   UNL     1      -8.615   5.880  70.227  1.00  0.00     0.000 HD 
HETATM   27  C   UNL     1     -10.207   6.717  67.409  1.00  0.00    -0.197 C  
HETATM   28  C   UNL     1      -9.827   8.094  66.851  1.00  0.00    -0.316 C  
HETATM   29  O   UNL     1     -11.075   6.021  66.519  1.00  0.00    -0.702 OA 
HETATM   30  C   UNL     1     -10.342   8.591  65.721  1.00  0.00     1.118 C  
HETATM   31  H   UNL     1     -11.841   6.562  66.366  1.00  0.00     0.000 HD 
ENDBRANCH  14  20
ENDBRANCH   5   6
ENDBRANCH   4   5
TORSDOF 3
ENDMDL
MODEL      139
REMARK 921   NORMALIZED FREE ENERGY PREDICTED BY IDOCK:    2.73 KCAL/MOL
REMARK 922        TOTAL FREE ENERGY PREDICTED BY IDOCK:    2.11 KCAL/MOL
REMARK 923 INTER-LIGAND FREE ENERGY PREDICTED BY IDOCK:   -0.51 KCAL/MOL
REMARK 924 INTRA-LIGAND FREE ENERGY PREDICTED BY IDOCK:    2.62 KCAL/MOL
REMARK 927      BINDING AFFINITY PREDICTED BY RF-SCORE:    0.00 PKD
ROOT
HETATM    1  C   UNL     1     -10.671  12.762  70.034  1.00  0.00     1.079 C  
HETATM    2  C   UNL     1      -9.486  12.485  69.110  1.00  0.00     0.584 C  
HETATM    3  C   UNL     1      -8.263  13.283  69.579  1.00  0.00     1.156 C  
HETATM    4  C   UNL     1      -9.093  11.002  69.074  1.00  0.00    -0.076 C  
ENDROOT
BRANCH   4   5
HETATM    5  C   UNL     1     -10.144  10.032  68.530  1.00  0.00    -0.187 C  
BRANCH   5   6
HETATM    6  C   UNL     1     -11.218  10.861  67.794  1.00  0.00    -0.384 C  
HETATM    7  C   UNL     1     -10.716  12.135  67.076  1.00  0.00    -0.272 C  
HETATM    8  C   UNL     1      -9.585  11.728  66.114  1.00  0.00    -0.250 C  
HETATM    9  C   UNL     1     -11.974  13.002  66.449  1.00  0.00    -0.466 C  
HETATM   10  C   UNL     1     -12.798  13.548  67.617  1.00  0.00     1.373 C  
HETATM   11  C   UNL     1     -12.117  14.845  67.996  1.00  0.00    -0.105 C  
HETATM   12  C   UNL     1     -11.022  15.116  66.923  1.00  0.00    -0.323 C  
HETATM   13  C   UNL     1     -10.751  16.610  66.837  1.00  0.00    -0.153 C  
HETATM   14  C   UNL     1     -10.812  17.421  67.919  1.00  0.00    -0.270 C  
HETATM   15  C   UNL     1     -10.384  17.050  65.456  1.00  0.00    -0.161 C  
HETATM   16  C   UNL     1     -10.741  13.809  64.437  1.00  0.00    -0.333 C  
HETATM   17  C   UNL     1     -11.440  16.549  64.440  1.00  0.00     0.130 C  
HETATM   18  C   UNL     1     -11.538  14.321  65.662  1.00  0.00    -0.346 C  
HETATM   19  C   UNL     1     -12.419  15.420  64.979  1.00  0.00     0.435 C  
BRANCH  14  20
HETATM   20  C   UNL     1      -9.959  18.568  68.075  1.00  0.00    -0.385 C  
HETATM   21  C   UNL     1      -8.085  20.129  67.809  1.00  0.00    -0.297 C  
HETATM   22  C   UNL     1      -8.638  18.714  67.866  1.00  0.00    -0.305 C  
HETATM   23  C   UNL     1      -6.986  20.341  68.844  1.00  0.00    -0.124 C  
HETATM   24  O   UNL     1      -7.518  20.313  70.170  1.00  0.00     0.247 OA 
HETATM   25  C   UNL     1      -5.892  19.291  68.690  1.00  0.00    -0.233 C  
HETATM   26  H   UNL     1      -6.833  20.446  70.815  1.00  0.00     0.000 HD 
HETATM   27  C   UNL     1      -6.455  17.862  68.726  1.00  0.00    -0.230 C  
HETATM   28  C   UNL     1      -7.606  17.681  67.727  1.00  0.00    -0.209 C  
HETATM   29  O   UNL     1      -5.391  16.955  68.458  1.00  0.00    -0.123 OA 
HETATM   30  C   UNL     1      -7.622  16.717  66.800  1.00  0.00    -0.283 C  
HETATM   31  H   UNL     1      -5.740  16.071  68.479  1.00  0.00     0.000 HD 
ENDBRANCH  14  20
ENDBRANCH   5   6
ENDBRANCH   4   5
TORSDOF 3
ENDMDL
MODEL      140
REMARK 921   NORMALIZED FREE ENERGY PREDICTED BY IDOCK:    4.63 KCAL/MOL
REMARK 922        TOTAL FREE ENERGY PREDICTED BY IDOCK:    4.34 KCAL/MOL
REMARK 923 INTER-LIGAND FREE ENERGY PREDICTED BY IDOCK:    4.90 KCAL/MOL
REMARK 924 INTRA-LIGAND FREE ENERGY PREDICTED BY IDOCK:   -0.56 KCAL/MOL
REMARK 927      BINDING AFFINITY PREDICTED BY RF-SCORE:    0.00 PKD
ROOT
HETATM    1  C   UNL     1     -13.238  12.753  68.397  1.00  0.00     3.879 C  
HETATM    2  C   UNL     1     -12.104  12.794  67.375  1.00  0.00    -0.222 C  
HETATM    3  C   UNL     1     -11.900  11.400  66.767  1.00  0.00     0.337 C  
HETATM    4  C   UNL     1     -12.375  13.772  66.224  1.00  0.00    -0.479 C  
ENDROOT
BRANCH   4   5
HETATM    5  C   UNL     1     -12.506  15.249  66.602  1.00  0.00     1.030 C  
BRANCH   5   6
HETATM    6  C   UNL     1     -11.344  15.598  67.556  1.00  0.00    -0.198 C  
HETATM    7  C   UNL     1     -10.014  14.849  67.307  1.00  0.00    -0.230 C  
HETATM    8  C   UNL     1      -9.605  15.077  65.841  1.00  0.00    -0.356 C  
HETATM    9  C   UNL     1      -8.901  15.206  68.474  1.00  0.00    -0.185 C  
HETATM   10  C   UNL     1      -9.400  14.622  69.797  1.00  0.00     0.412 C  
HETATM   11  C   UNL     1      -8.913  13.189  69.794  1.00  0.00     2.324 C  
HETATM   12  C   UNL     1      -7.984  13.026  68.555  1.00  0.00    -0.090 C  
HETATM   13  C   UNL     1      -6.987  11.906  68.809  1.00  0.00    -0.104 C  
HETATM   14  C   UNL     1      -7.301  10.807  69.533  1.00  0.00    -0.125 C  
HETATM   15  C   UNL     1      -5.667  12.150  68.150  1.00  0.00    -0.053 C  
HETATM   16  C   UNL     1      -6.918  15.100  66.965  1.00  0.00     0.223 C  
HETATM   17  C   UNL     1      -5.135  13.555  68.525  1.00  0.00    -0.081 C  
HETATM   18  C   UNL     1      -7.485  14.496  68.273  1.00  0.00    -0.120 C  
HETATM   19  C   UNL     1      -6.205  14.535  69.173  1.00  0.00    -0.096 C  
BRANCH  14  20
HETATM   20  C   UNL     1      -6.747   9.510  69.249  1.00  0.00    -0.049 C  
HETATM   21  C   UNL     1      -6.529   7.186  68.494  1.00  0.00    -0.040 C  
HETATM   22  C   UNL     1      -7.343   8.313  69.111  1.00  0.00    -0.081 C  
HETATM   23  C   UNL     1      -6.448   5.981  69.424  1.00  0.00    -0.042 C  
HETATM   24  O   UNL     1      -5.664   6.278  70.581  1.00  0.00    -0.018 OA 
HETATM   25  C   UNL     1      -7.843   5.523  69.833  1.00  0.00    -0.082 C  
HETATM   26  H   UNL     1      -5.613   5.527  71.160  1.00  0.00     0.000 HD 
HETATM   27  C   UNL     1      -8.672   6.668  70.436  1.00  0.00    -0.151 C  
HETATM   28  C   UNL     1      -8.689   7.898  69.521  1.00  0.00    -0.134 C  
HETATM   29  O   UNL     1      -9.990   6.186  70.678  1.00  0.00    -0.182 OA 
HETATM   30  C   UNL     1      -9.818   8.482  69.104  1.00  0.00    -0.186 C  
HETATM   31  H   UNL     1     -10.503   6.894  71.051  1.00  0.00     0.000 HD 
ENDBRANCH  14  20
ENDBRANCH   5   6
ENDBRANCH   4   5
TORSDOF 3
ENDMDL
MODEL      141
REMARK 921   NORMALIZED FREE ENERGY PREDICTED BY IDOCK:    5.57 KCAL/MOL
REMARK 922        TOTAL FREE ENERGY PREDICTED BY IDOCK:    5.45 KCAL/MOL
REMARK 923 INTER-LIGAND FREE ENERGY PREDICTED BY IDOCK:    5.54 KCAL/MOL
REMARK 924 INTRA-LIGAND FREE ENERGY PREDICTED BY IDOCK:   -0.10 KCAL/MOL
REMARK 927      BINDING AFFINITY PREDICTED BY RF-SCORE:    0.00 PKD
ROOT
HETATM    1  C   UNL     1     -12.535  11.419  68.798  1.00  0.00     0.396 C  
HETATM    2  C   UNL     1     -11.817  11.553  67.455  1.00  0.00    -0.157 C  
HETATM    3  C   UNL     1     -12.321  10.477  66.485  1.00  0.00     4.724 C  
HETATM    4  C   UNL     1     -12.040  12.921  66.795  1.00  0.00    -0.335 C  
ENDROOT
BRANCH   4   5
HETATM    5  C   UNL     1     -11.509  14.138  67.555  1.00  0.00    -0.365 C  
BRANCH   5   6
HETATM    6  C   UNL     1     -10.588  13.627  68.684  1.00  0.00    -0.260 C  
HETATM    7  C   UNL     1      -9.349  12.820  68.234  1.00  0.00    -0.194 C  
HETATM    8  C   UNL     1      -8.558  13.677  67.229  1.00  0.00    -0.220 C  
HETATM    9  C   UNL     1      -8.527  12.215  69.532  1.00  0.00     1.311 C  
HETATM   10  C   UNL     1      -9.415  11.167  70.206  1.00  0.00     2.110 C  
HETATM   11  C   UNL     1      -9.135   9.884  69.454  1.00  0.00    -0.216 C  
HETATM   12  C   UNL     1      -7.955  10.174  68.480  1.00  0.00    -0.104 C  
HETATM   13  C   UNL     1      -7.210   8.882  68.183  1.00  0.00    -0.079 C  
HETATM   14  C   UNL     1      -7.837   7.686  68.102  1.00  0.00    -0.121 C  
HETATM   15  C   UNL     1      -5.747   9.099  67.964  1.00  0.00    -0.038 C  
HETATM   16  C   UNL     1      -6.261  12.431  68.515  1.00  0.00    -0.062 C  
HETATM   17  C   UNL     1      -5.146   9.909  69.139  1.00  0.00    -0.036 C  
HETATM   18  C   UNL     1      -7.212  11.392  69.155  1.00  0.00    -0.102 C  
HETATM   19  C   UNL     1      -6.205  10.629  70.079  1.00  0.00    -0.111 C  
BRANCH  14  20
HETATM   20  C   UNL     1      -7.405   6.645  67.208  1.00  0.00    -0.090 C  
HETATM   21  C   UNL     1      -7.443   4.812  65.579  1.00  0.00    -0.081 C  
HETATM   22  C   UNL     1      -8.043   5.547  66.766  1.00  0.00    -0.105 C  
HETATM   23  C   UNL     1      -7.151   3.353  65.914  1.00  0.00    -0.063 C  
HETATM   24  O   UNL     1      -6.087   3.249  66.863  1.00  0.00    -0.023 OA 
HETATM   25  C   UNL     1      -8.402   2.663  66.444  1.00  0.00    -0.091 C  
HETATM   26  H   UNL     1      -5.905   2.340  67.072  1.00  0.00     0.000 HD 
HETATM   27  C   UNL     1      -9.021   3.419  67.629  1.00  0.00    -0.146 C  
HETATM   28  C   UNL     1      -9.246   4.900  67.301  1.00  0.00    -0.133 C  
HETATM   29  O   UNL     1     -10.241   2.777  67.982  1.00  0.00     0.419 OA 
HETATM   30  C   UNL     1     -10.431   5.506  67.438  1.00  0.00    -0.284 C  
HETATM   31  H   UNL     1     -10.624   3.245  68.716  1.00  0.00     0.000 HD 
ENDBRANCH  14  20
ENDBRANCH   5   6
ENDBRANCH   4   5
TORSDOF 3
ENDMDL
MODEL      142
REMARK 921   NORMALIZED FREE ENERGY PREDICTED BY IDOCK:    6.11 KCAL/MOL
REMARK 922        TOTAL FREE ENERGY PREDICTED BY IDOCK:    6.08 KCAL/MOL
REMARK 923 INTER-LIGAND FREE ENERGY PREDICTED BY IDOCK:   -1.28 KCAL/MOL
REMARK 924 INTRA-LIGAND FREE ENERGY PREDICTED BY IDOCK:    7.36 KCAL/MOL
REMARK 927      BINDING AFFINITY PREDICTED BY RF-SCORE:    0.00 PKD
ROOT
HETATM    1  C   UNL     1     -11.015   7.972  67.094  1.00  0.00     0.054 C  
HETATM    2  C   UNL     1     -11.022   9.496  66.984  1.00  0.00     0.014 C  
HETATM    3  C   UNL     1     -11.046  10.120  68.385  1.00  0.00    -0.273 C  
HETATM    4  C   UNL     1      -9.793  10.046  66.247  1.00  0.00    -0.297 C  
ENDROOT
BRANCH   4   5
HETATM    5  C   UNL     1      -9.634   9.629  64.783  1.00  0.00    -0.197 C  
BRANCH   5   6
HETATM    6  C   UNL     1      -8.354   8.775  64.670  1.00  0.00    -0.175 C  
HETATM    7  C   UNL     1      -8.264   7.558  65.620  1.00  0.00    -0.133 C  
HETATM    8  C   UNL     1      -9.520   6.693  65.407  1.00  0.00     0.621 C  
HETATM    9  C   UNL     1      -6.795   6.813  65.499  1.00  0.00    -0.052 C  
HETATM   10  C   UNL     1      -5.734   7.772  66.042  1.00  0.00    -0.037 C  
HETATM   11  C   UNL     1      -5.718   7.524  67.535  1.00  0.00    -0.035 C  
HETATM   12  C   UNL     1      -6.638   6.297  67.803  1.00  0.00    -0.062 C  
HETATM   13  C   UNL     1      -6.199   5.601  69.082  1.00  0.00    -0.029 C  
HETATM   14  C   UNL     1      -5.699   6.279  70.140  1.00  0.00    -0.014 C  
HETATM   15  C   UNL     1      -6.417   4.122  69.036  1.00  0.00    -0.040 C  
HETATM   16  C   UNL     1      -7.656   4.504  65.876  1.00  0.00    -0.086 C  
HETATM   17  C   UNL     1      -5.782   3.529  67.755  1.00  0.00    -0.022 C  
HETATM   18  C   UNL     1      -6.632   5.524  66.427  1.00  0.00    -0.056 C  
HETATM   19  C   UNL     1      -5.395   4.588  66.636  1.00  0.00    -0.013 C  
BRANCH  14  20
HETATM   20  C   UNL     1      -5.919   5.862  71.500  1.00  0.00    -0.030 C  
HETATM   21  C   UNL     1      -6.045   4.472  73.517  1.00  0.00    -0.028 C  
HETATM   22  C   UNL     1      -6.183   4.648  72.013  1.00  0.00    -0.021 C  
HETATM   23  C   UNL     1      -7.343   3.976  74.143  1.00  0.00    -0.067 C  
HETATM   24  O   UNL     1      -8.358   4.980  74.081  1.00  0.00    -0.103 OA 
HETATM   25  C   UNL     1      -7.818   2.700  73.458  1.00  0.00    -0.055 C  
HETATM   26  H   UNL     1      -9.168   4.671  74.471  1.00  0.00     0.000 HD 
HETATM   27  C   UNL     1      -7.936   2.873  71.936  1.00  0.00    -0.054 C  
HETATM   28  C   UNL     1      -6.645   3.436  71.328  1.00  0.00    -0.026 C  
HETATM   29  O   UNL     1      -8.267   1.610  71.367  1.00  0.00    -0.043 OA 
HETATM   30  C   UNL     1      -5.994   2.843  70.321  1.00  0.00    -0.019 C  
HETATM   31  H   UNL     1      -8.339   1.716  70.426  1.00  0.00     0.000 HD 
ENDBRANCH  14  20
ENDBRANCH   5   6
ENDBRANCH   4   5
TORSDOF 3
ENDMDL
MODEL      143
REMARK 921   NORMALIZED FREE ENERGY PREDICTED BY IDOCK:    6.54 KCAL/MOL
REMARK 922        TOTAL FREE ENERGY PREDICTED BY IDOCK:    6.58 KCAL/MOL
REMARK 923 INTER-LIGAND FREE ENERGY PREDICTED BY IDOCK:    1.13 KCAL/MOL
REMARK 924 INTRA-LIGAND FREE ENERGY PREDICTED BY IDOCK:    5.45 KCAL/MOL
REMARK 927      BINDING AFFINITY PREDICTED BY RF-SCORE:    0.00 PKD
ROOT
HETATM    1  C   UNL     1     -10.965   8.149  67.159  1.00  0.00     0.093 C  
HETATM    2  C   UNL     1      -9.657   7.568  66.622  1.00  0.00    -0.263 C  
HETATM    3  C   UNL     1      -9.868   6.106  66.208  1.00  0.00    -0.081 C  
HETATM    4  C   UNL     1      -9.126   8.329  65.400  1.00  0.00     0.004 C  
ENDROOT
BRANCH   4   5
HETATM    5  C   UNL     1      -8.746   9.794  65.623  1.00  0.00    -0.168 C  
BRANCH   5   6
HETATM    6  C   UNL     1      -9.821  10.430  66.531  1.00  0.00    -0.256 C  
HETATM    7  C   UNL     1      -9.837  11.975  66.582  1.00  0.00    -0.220 C  
HETATM    8  C   UNL     1      -9.960  12.500  65.140  1.00  0.00    -0.212 C  
HETATM    9  C   UNL     1     -10.933  12.524  67.688  1.00  0.00    -0.279 C  
HETATM   10  C   UNL     1     -10.440  12.123  69.080  1.00  0.00    -0.072 C  
HETATM   11  C   UNL     1      -9.497  13.234  69.489  1.00  0.00     1.298 C  
HETATM   12  C   UNL     1      -9.605  14.347  68.405  1.00  0.00    -0.219 C  
HETATM   13  C   UNL     1      -9.236  15.690  69.015  1.00  0.00    -0.243 C  
HETATM   14  C   UNL     1      -8.295  15.814  69.979  1.00  0.00     0.573 C  
HETATM   15  C   UNL     1      -9.997  16.825  68.409  1.00  0.00    -0.268 C  
HETATM   16  C   UNL     1     -11.584  14.560  66.404  1.00  0.00    -0.370 C  
HETATM   17  C   UNL     1     -11.516  16.525  68.437  1.00  0.00    -0.104 C  
HETATM   18  C   UNL     1     -11.036  14.115  67.781  1.00  0.00    -0.274 C  
HETATM   19  C   UNL     1     -11.903  15.011  68.727  1.00  0.00    -0.331 C  
BRANCH  14  20
HETATM   20  C   UNL     1      -7.446  16.970  70.086  1.00  0.00     1.647 C  
HETATM   21  C   UNL     1      -6.693  19.286  70.385  1.00  0.00     0.293 C  
HETATM   22  C   UNL     1      -7.708  18.273  69.879  1.00  0.00     1.135 C  
HETATM   23  C   UNL     1      -6.187  20.181  69.259  1.00  0.00    -0.326 C  
HETATM   24  O   UNL     1      -5.389  19.439  68.334  1.00  0.00    -0.188 OA 
HETATM   25  C   UNL     1      -7.352  20.847  68.538  1.00  0.00     0.470 C  
HETATM   26  H   UNL     1      -5.074  19.997  67.633  1.00  0.00     0.000 HD 
HETATM   27  C   UNL     1      -8.387  19.825  68.046  1.00  0.00    -0.295 C  
HETATM   28  C   UNL     1      -8.838  18.887  69.173  1.00  0.00    -0.060 C  
HETATM   29  O   UNL     1      -9.491  20.535  67.493  1.00  0.00    -0.402 OA 
HETATM   30  C   UNL     1     -10.121  18.706  69.502  1.00  0.00     0.243 C  
HETATM   31  H   UNL     1     -10.131  19.902  67.189  1.00  0.00     0.000 HD 
ENDBRANCH  14  20
ENDBRANCH   5   6
ENDBRANCH   4   5
TORSDOF 3
ENDMDL
MODEL      144
REMARK 921   NORMALIZED FREE ENERGY PREDICTED BY IDOCK:    7.34 KCAL/MOL
REMARK 922        TOTAL FREE ENERGY PREDICTED BY IDOCK:    7.53 KCAL/MOL
REMARK 923 INTER-LIGAND FREE ENERGY PREDICTED BY IDOCK:    4.78 KCAL/MOL
REMARK 924 INTRA-LIGAND FREE ENERGY PREDICTED BY IDOCK:    2.75 KCAL/MOL
REMARK 927      BINDING AFFINITY PREDICTED BY RF-SCORE:    0.00 PKD
ROOT
HETATM    1  C   UNL     1      -7.716  16.327  71.590  1.00  0.00     7.188 C  
HETATM    2  C   UNL     1      -6.820  17.148  70.663  1.00  0.00     2.118 C  
HETATM    3  C   UNL     1      -5.362  16.695  70.813  1.00  0.00    -0.141 C  
HETATM    4  C   UNL     1      -7.205  17.006  69.184  1.00  0.00    -0.209 C  
ENDROOT
BRANCH   4   5
HETATM    5  C   UNL     1      -8.597  17.506  68.793  1.00  0.00    -0.209 C  
BRANCH   5   6
HETATM    6  C   UNL     1      -9.322  16.360  68.055  1.00  0.00    -0.216 C  
HETATM    7  C   UNL     1      -9.772  15.169  68.932  1.00  0.00    -0.224 C  
HETATM    8  C   UNL     1     -10.642  15.719  70.077  1.00  0.00    -0.333 C  
HETATM    9  C   UNL     1     -10.406  13.955  68.009  1.00  0.00    -0.245 C  
HETATM   10  C   UNL     1      -9.277  13.370  67.159  1.00  0.00    -0.240 C  
HETATM   11  C   UNL     1      -8.625  12.331  68.047  1.00  0.00    -0.176 C  
HETATM   12  C   UNL     1      -9.506  12.206  69.325  1.00  0.00     0.705 C  
HETATM   13  C   UNL     1      -9.330  10.823  69.932  1.00  0.00     0.556 C  
HETATM   14  C   UNL     1      -8.153  10.157  69.888  1.00  0.00    -0.139 C  
HETATM   15  C   UNL     1     -10.575  10.322  70.592  1.00  0.00    -0.035 C  
HETATM   16  C   UNL     1     -12.110  13.235  69.682  1.00  0.00    -0.331 C  
HETATM   17  C   UNL     1     -11.774  10.428  69.619  1.00  0.00    -0.283 C  
HETATM   18  C   UNL     1     -10.926  12.696  68.842  1.00  0.00    -0.273 C  
HETATM   19  C   UNL     1     -11.535  11.343  68.343  1.00  0.00    -0.367 C  
BRANCH  14  20
HETATM   20  C   UNL     1      -7.724   9.277  70.942  1.00  0.00    -0.134 C  
HETATM   21  C   UNL     1      -7.566   7.338  72.437  1.00  0.00    -0.090 C  
HETATM   22  C   UNL     1      -8.385   8.309  71.601  1.00  0.00    -0.187 C  
HETATM   23  C   UNL     1      -8.021   7.332  73.892  1.00  0.00    -0.116 C  
HETATM   24  O   UNL     1      -7.708   8.570  74.533  1.00  0.00    -0.297 OA 
HETATM   25  C   UNL     1      -9.516   7.051  73.987  1.00  0.00    -0.288 C  
HETATM   26  H   UNL     1      -7.991   8.566  75.439  1.00  0.00     0.000 HD 
HETATM   27  C   UNL     1     -10.341   8.018  73.124  1.00  0.00    -0.199 C  
HETATM   28  C   UNL     1      -9.830   8.066  71.679  1.00  0.00    -0.223 C  
HETATM   29  O   UNL     1     -11.705   7.613  73.177  1.00  0.00    -0.615 OA 
HETATM   30  C   UNL     1     -10.617   7.849  70.620  1.00  0.00    -0.221 C  
HETATM   31  H   UNL     1     -12.215   8.211  72.643  1.00  0.00     0.000 HD 
ENDBRANCH  14  20
ENDBRANCH   5   6
ENDBRANCH   4   5
TORSDOF 3
ENDMDL
MODEL      145
REMARK 921   NORMALIZED FREE ENERGY PREDICTED BY IDOCK:    8.15 KCAL/MOL
REMARK 922        TOTAL FREE ENERGY PREDICTED BY IDOCK:    8.48 KCAL/MOL
REMARK 923 INTER-LIGAND FREE ENERGY PREDICTED BY IDOCK:    8.02 KCAL/MOL
REMARK 924 INTRA-LIGAND FREE ENERGY PREDICTED BY IDOCK:    0.45 KCAL/MOL
REMARK 927      BINDING AFFINITY PREDICTED BY RF-SCORE:    0.00 PKD
ROOT
HETATM    1  C   UNL     1     -13.708  14.718  64.952  1.00  0.00     2.151 C  
HETATM    2  C   UNL     1     -13.483  13.306  65.490  1.00  0.00     1.158 C  
HETATM    3  C   UNL     1     -13.182  12.348  64.330  1.00  0.00     0.115 C  
HETATM    4  C   UNL     1     -12.312  13.226  66.480  1.00  0.00    -0.311 C  
ENDROOT
BRANCH   4   5
HETATM    5  C   UNL     1     -12.458  14.031  67.772  1.00  0.00     0.179 C  
BRANCH   5   6
HETATM    6  C   UNL     1     -11.048  14.227  68.369  1.00  0.00    -0.274 C  
HETATM    7  C   UNL     1      -9.942  13.299  67.815  1.00  0.00    -0.223 C  
HETATM    8  C   UNL     1      -9.913  13.452  66.284  1.00  0.00    -0.298 C  
HETATM    9  C   UNL     1      -8.521  13.512  68.629  1.00  0.00    -0.017 C  
HETATM   10  C   UNL     1      -8.720  13.017  70.063  1.00  0.00     3.380 C  
HETATM   11  C   UNL     1      -8.442  11.531  70.000  1.00  0.00     2.176 C  
HETATM   12  C   UNL     1      -7.907  11.227  68.570  1.00  0.00    -0.138 C  
HETATM   13  C   UNL     1      -7.032   9.984  68.606  1.00  0.00    -0.069 C  
HETATM   14  C   UNL     1      -7.282   8.946  69.438  1.00  0.00    -0.061 C  
HETATM   15  C   UNL     1      -5.917  10.036  67.611  1.00  0.00    -0.053 C  
HETATM   16  C   UNL     1      -7.045  13.117  66.659  1.00  0.00     1.251 C  
HETATM   17  C   UNL     1      -5.127  11.358  67.766  1.00  0.00    -0.046 C  
HETATM   18  C   UNL     1      -7.315  12.611  68.097  1.00  0.00    -0.112 C  
HETATM   19  C   UNL     1      -5.847  12.484  68.625  1.00  0.00    -0.059 C  
BRANCH  14  20
HETATM   20  C   UNL     1      -6.997   7.582  69.080  1.00  0.00    -0.073 C  
HETATM   21  C   UNL     1      -7.221   5.327  68.142  1.00  0.00    -0.071 C  
HETATM   22  C   UNL     1      -7.823   6.559  68.799  1.00  0.00    -0.110 C  
HETATM   23  C   UNL     1      -7.479   4.071  68.968  1.00  0.00    -0.054 C  
HETATM   24  O   UNL     1      -6.750   4.106  70.196  1.00  0.00    -0.032 OA 
HETATM   25  C   UNL     1      -8.969   3.905  69.241  1.00  0.00    -0.175 C  
HETATM   26  H   UNL     1      -6.911   3.324  70.710  1.00  0.00     0.000 HD 
HETATM   27  C   UNL     1      -9.581   5.159  69.884  1.00  0.00    -0.174 C  
HETATM   28  C   UNL     1      -9.256   6.424  69.080  1.00  0.00    -0.129 C  
HETATM   29  O   UNL     1     -10.987   4.965  69.995  1.00  0.00     0.287 OA 
HETATM   30  C   UNL     1     -10.194   7.271  68.641  1.00  0.00    -0.191 C  
HETATM   31  H   UNL     1     -11.366   5.740  70.392  1.00  0.00     0.000 HD 
ENDBRANCH  14  20
ENDBRANCH   5   6
ENDBRANCH   4   5
TORSDOF 3
ENDMDL
MODEL      146
REMARK 921   NORMALIZED FREE ENERGY PREDICTED BY IDOCK:    8.45 KCAL/MOL
REMARK 922        TOTAL FREE ENERGY PREDICTED BY IDOCK:    8.82 KCAL/MOL
REMARK 923 INTER-LIGAND FREE ENERGY PREDICTED BY IDOCK:    9.92 KCAL/MOL
REMARK 924 INTRA-LIGAND FREE ENERGY PREDICTED BY IDOCK:   -1.10 KCAL/MOL
REMARK 927      BINDING AFFINITY PREDICTED BY RF-SCORE:    0.00 PKD
ROOT
HETATM    1  C   UNL     1     -12.030  16.127  63.601  1.00  0.00     1.533 C  
HETATM    2  C   UNL     1     -11.332  14.932  64.249  1.00  0.00    -0.086 C  
HETATM    3  C   UNL     1     -11.715  13.643  63.511  1.00  0.00    -0.094 C  
HETATM    4  C   UNL     1      -9.802  15.051  64.222  1.00  0.00     2.329 C  
ENDROOT
BRANCH   4   5
HETATM    5  C   UNL     1      -9.197  16.222  64.998  1.00  0.00     1.794 C  
BRANCH   5   6
HETATM    6  C   UNL     1     -10.190  16.617  66.112  1.00  0.00    -0.360 C  
HETATM    7  C   UNL     1      -9.946  15.974  67.497  1.00  0.00    -0.240 C  
HETATM    8  C   UNL     1      -8.499  16.285  67.919  1.00  0.00    -0.166 C  
HETATM    9  C   UNL     1     -11.151  16.364  68.557  1.00  0.00    -0.357 C  
HETATM   10  C   UNL     1     -12.439  15.697  68.073  1.00  0.00     1.028 C  
HETATM   11  C   UNL     1     -12.396  14.303  68.662  1.00  0.00    -0.056 C  
HETATM   12  C   UNL     1     -11.174  14.253  69.626  1.00  0.00    -0.256 C  
HETATM   13  C   UNL     1     -11.412  13.198  70.695  1.00  0.00     0.571 C  
HETATM   14  C   UNL     1     -12.088  12.053  70.446  1.00  0.00    -0.407 C  
HETATM   15  C   UNL     1     -10.793  13.560  72.007  1.00  0.00     5.633 C  
HETATM   16  C   UNL     1      -9.686  16.456  70.573  1.00  0.00     1.611 C  
HETATM   17  C   UNL     1     -11.231  14.984  72.429  1.00  0.00     0.054 C  
HETATM   18  C   UNL     1     -10.957  15.765  70.024  1.00  0.00    -0.344 C  
HETATM   19  C   UNL     1     -11.888  15.861  71.278  1.00  0.00    -0.502 C  
BRANCH  14  20
HETATM   20  C   UNL     1     -11.770  10.810  71.097  1.00  0.00    -0.152 C  
HETATM   21  C   UNL     1     -10.504   8.919  72.014  1.00  0.00    -0.383 C  
HETATM   22  C   UNL     1     -10.714   9.990  70.954  1.00  0.00    -0.203 C  
HETATM   23  C   UNL     1     -10.471   7.524  71.399  1.00  0.00    -0.209 C  
HETATM   24  O   UNL     1     -11.757   7.156  70.894  1.00  0.00    -0.301 OA 
HETATM   25  C   UNL     1      -9.427   7.449  70.292  1.00  0.00    -0.165 C  
HETATM   26  H   UNL     1     -11.736   6.287  70.512  1.00  0.00     0.000 HD 
HETATM   27  C   UNL     1      -9.627   8.545  69.235  1.00  0.00    -0.170 C  
HETATM   28  C   UNL     1      -9.725   9.937  69.872  1.00  0.00    -0.274 C  
HETATM   29  O   UNL     1      -8.546   8.476  68.309  1.00  0.00    -0.136 OA 
HETATM   30  C   UNL     1      -8.948  10.962  69.509  1.00  0.00     0.232 C  
HETATM   31  H   UNL     1      -8.670   9.155  67.655  1.00  0.00     0.000 HD 
ENDBRANCH  14  20
ENDBRANCH   5   6
ENDBRANCH   4   5
TORSDOF 3
ENDMDL
MODEL      147
REMARK 921   NORMALIZED FREE ENERGY PREDICTED BY IDOCK:    8.83 KCAL/MOL
REMARK 922        TOTAL FREE ENERGY PREDICTED BY IDOCK:    9.28 KCAL/MOL
REMARK 923 INTER-LIGAND FREE ENERGY PREDICTED BY IDOCK:    0.19 KCAL/MOL
REMARK 924 INTRA-LIGAND FREE ENERGY PREDICTED BY IDOCK:    9.08 KCAL/MOL
REMARK 927      BINDING AFFINITY PREDICTED BY RF-SCORE:    0.00 PKD
ROOT
HETATM    1  C   UNL     1      -6.955  10.483  67.777  1.00  0.00    -0.078 C  
HETATM    2  C   UNL     1      -6.013   9.862  68.808  1.00  0.00    -0.038 C  
HETATM    3  C   UNL     1      -5.351  10.967  69.640  1.00  0.00    -0.042 C  
HETATM    4  C   UNL     1      -6.733   8.914  69.776  1.00  0.00    -0.045 C  
ENDROOT
BRANCH   4   5
HETATM    5  C   UNL     1      -7.379   7.672  69.159  1.00  0.00    -0.089 C  
BRANCH   5   6
HETATM    6  C   UNL     1      -8.853   8.010  68.847  1.00  0.00    -0.141 C  
HETATM    7  C   UNL     1      -9.114   9.409  68.242  1.00  0.00    -0.128 C  
HETATM    8  C   UNL     1      -8.241   9.555  66.982  1.00  0.00    -0.113 C  
HETATM    9  C   UNL     1     -10.732   9.699  68.086  1.00  0.00    -0.266 C  
HETATM   10  C   UNL     1     -11.332   9.796  69.490  1.00  0.00    -0.127 C  
HETATM   11  C   UNL     1     -11.130  11.241  69.895  1.00  0.00    -0.183 C  
HETATM   12  C   UNL     1     -10.584  11.993  68.646  1.00  0.00    -0.253 C  
HETATM   13  C   UNL     1     -10.951  13.466  68.737  1.00  0.00    -0.290 C  
HETATM   14  C   UNL     1     -11.010  14.126  69.917  1.00  0.00    -0.000 C  
HETATM   15  C   UNL     1     -11.197  14.082  67.397  1.00  0.00    -0.328 C  
HETATM   16  C   UNL     1     -10.543  11.038  65.991  1.00  0.00    -0.275 C  
HETATM   17  C   UNL     1     -12.218  13.233  66.600  1.00  0.00    -0.359 C  
HETATM   18  C   UNL     1     -11.088  11.114  67.437  1.00  0.00    -0.370 C  
HETATM   19  C   UNL     1     -12.482  11.775  67.172  1.00  0.00     1.629 C  
BRANCH  14  20
HETATM   20  C   UNL     1     -10.663  15.517  70.043  1.00  0.00    -0.331 C  
HETATM   21  C   UNL     1     -10.732  17.960  69.840  1.00  0.00     1.119 C  
HETATM   22  C   UNL     1     -10.976  16.572  69.270  1.00  0.00    -0.302 C  
HETATM   23  C   UNL     1      -9.808  18.778  68.943  1.00  0.00    -0.365 C  
HETATM   24  O   UNL     1      -8.482  18.245  68.952  1.00  0.00    -0.257 OA 
HETATM   25  C   UNL     1     -10.349  18.829  67.519  1.00  0.00    -0.471 C  
HETATM   26  H   UNL     1      -7.907  18.754  68.393  1.00  0.00     0.000 HD 
HETATM   27  C   UNL     1     -10.616  17.426  66.953  1.00  0.00    -0.216 C  
HETATM   28  C   UNL     1     -11.491  16.591  67.897  1.00  0.00     0.071 C  
HETATM   29  O   UNL     1     -11.227  17.569  65.674  1.00  0.00     0.233 OA 
HETATM   30  C   UNL     1     -12.626  16.000  67.508  1.00  0.00     2.205 C  
HETATM   31  H   UNL     1     -11.392  16.701  65.324  1.00  0.00     0.000 HD 
ENDBRANCH  14  20
ENDBRANCH   5   6
ENDBRANCH   4   5
TORSDOF 3
ENDMDL
MODEL      148
REMARK 921   NORMALIZED FREE ENERGY PREDICTED BY IDOCK:   11.44 KCAL/MOL
REMARK 922        TOTAL FREE ENERGY PREDICTED BY IDOCK:   12.34 KCAL/MOL
REMARK 923 INTER-LIGAND FREE ENERGY PREDICTED BY IDOCK:   12.71 KCAL/MOL
REMARK 924 INTRA-LIGAND FREE ENERGY PREDICTED BY IDOCK:   -0.37 KCAL/MOL
REMARK 927      BINDING AFFINITY PREDICTED BY RF-SCORE:    0.00 PKD
ROOT
HETATM    1  C   UNL     1     -11.030  10.464  65.841  1.00  0.00     0.215 C  
HETATM    2  C   UNL     1     -10.994   9.962  64.398  1.00  0.00     3.065 C  
HETATM    3  C   UNL     1     -10.749  11.138  63.444  1.00  0.00    -0.286 C  
HETATM    4  C   UNL     1      -9.889   8.925  64.156  1.00  0.00     2.110 C  
ENDROOT
BRANCH   4   5
HETATM    5  C   UNL     1     -10.003   7.614  64.938  1.00  0.00     3.083 C  
BRANCH   5   6
HETATM    6  C   UNL     1      -8.880   7.595  65.997  1.00  0.00    -0.186 C  
HETATM    7  C   UNL     1      -8.999   8.641  67.129  1.00  0.00    -0.148 C  
HETATM    8  C   UNL     1     -10.378   8.474  67.792  1.00  0.00    -0.298 C  
HETATM    9  C   UNL     1      -7.672   8.609  68.112  1.00  0.00    -0.102 C  
HETATM   10  C   UNL     1      -6.471   9.094  67.299  1.00  0.00    -0.060 C  
HETATM   11  C   UNL     1      -6.505  10.602  67.423  1.00  0.00    -0.059 C  
HETATM   12  C   UNL     1      -7.616  10.950  68.457  1.00  0.00    -0.111 C  
HETATM   13  C   UNL     1      -7.307  12.288  69.107  1.00  0.00     0.091 C  
HETATM   14  C   UNL     1      -6.707  13.299  68.436  1.00  0.00    -0.096 C  
HETATM   15  C   UNL     1      -7.765  12.357  70.529  1.00  0.00     4.234 C  
HETATM   16  C   UNL     1      -8.905   9.152  70.211  1.00  0.00    -0.238 C  
HETATM   17  C   UNL     1      -7.228  11.140  71.322  1.00  0.00     3.819 C  
HETATM   18  C   UNL     1      -7.729   9.640  69.330  1.00  0.00    -0.095 C  
HETATM   19  C   UNL     1      -6.665   9.948  70.436  1.00  0.00    -0.136 C  
BRANCH  14  20
HETATM   20  C   UNL     1      -7.001  14.683  68.698  1.00  0.00    -0.111 C  
HETATM   21  C   UNL     1      -8.233  16.756  69.148  1.00  0.00    -0.098 C  
HETATM   22  C   UNL     1      -8.114  15.401  68.467  1.00  0.00    -0.142 C  
HETATM   23  C   UNL     1      -8.438  17.876  68.133  1.00  0.00    -0.267 C  
HETATM   24  O   UNL     1      -7.263  18.072  67.343  1.00  0.00    -0.190 OA 
HETATM   25  C   UNL     1      -9.634  17.577  67.238  1.00  0.00    -0.273 C  
HETATM   26  H   UNL     1      -7.391  18.770  66.711  1.00  0.00     0.000 HD 
HETATM   27  C   UNL     1      -9.523  16.199  66.568  1.00  0.00    -0.264 C  
HETATM   28  C   UNL     1      -9.250  15.091  67.593  1.00  0.00    -0.182 C  
HETATM   29  O   UNL     1     -10.728  15.952  65.850  1.00  0.00    -0.323 OA 
HETATM   30  C   UNL     1     -10.009  13.995  67.702  1.00  0.00    -0.237 C  
HETATM   31  H   UNL     1     -10.660  15.100  65.436  1.00  0.00     0.000 HD 
ENDBRANCH  14  20
ENDBRANCH   5   6
ENDBRANCH   4   5
TORSDOF 3
ENDMDL
MODEL      149
REMARK 921   NORMALIZED FREE ENERGY PREDICTED BY IDOCK:   16.64 KCAL/MOL
REMARK 922        TOTAL FREE ENERGY PREDICTED BY IDOCK:   18.46 KCAL/MOL
REMARK 923 INTER-LIGAND FREE ENERGY PREDICTED BY IDOCK:   19.12 KCAL/MOL
REMARK 924 INTRA-LIGAND FREE ENERGY PREDICTED BY IDOCK:   -0.67 KCAL/MOL
REMARK 927      BINDING AFFINITY PREDICTED BY RF-SCORE:    0.00 PKD
ROOT
HETATM    1  C   UNL     1     -10.361   3.934  64.232  1.00  0.00    -0.245 C  
HETATM    2  C   UNL     1     -11.079   5.164  64.785  1.00  0.00     1.339 C  
HETATM    3  C   UNL     1     -11.715   5.957  63.636  1.00  0.00     8.148 C  
HETATM    4  C   UNL     1     -12.193   4.806  65.779  1.00  0.00     4.432 C  
ENDROOT
BRANCH   4   5
HETATM    5  C   UNL     1     -11.757   4.098  67.063  1.00  0.00     7.429 C  
BRANCH   5   6
HETATM    6  C   UNL     1     -10.225   4.239  67.186  1.00  0.00     0.074 C  
HETATM    7  C   UNL     1      -9.721   5.263  68.228  1.00  0.00    -0.185 C  
HETATM    8  C   UNL     1     -10.348   4.909  69.589  1.00  0.00    -0.177 C  
HETATM    9  C   UNL     1      -8.078   5.421  68.164  1.00  0.00    -0.095 C  
HETATM   10  C   UNL     1      -7.718   6.065  66.824  1.00  0.00    -0.100 C  
HETATM   11  C   UNL     1      -7.833   7.554  67.069  1.00  0.00    -0.116 C  
HETATM   12  C   UNL     1      -8.078   7.748  68.594  1.00  0.00    -0.127 C  
HETATM   13  C   UNL     1      -7.579   9.119  69.020  1.00  0.00    -0.074 C  
HETATM   14  C   UNL     1      -7.652  10.201  68.210  1.00  0.00    -0.087 C  
HETATM   15  C   UNL     1      -7.047   9.130  70.417  1.00  0.00    -0.079 C  
HETATM   16  C   UNL     1      -7.768   5.796  70.610  1.00  0.00    -0.093 C  
HETATM   17  C   UNL     1      -6.000   8.003  70.597  1.00  0.00    -0.033 C  
HETATM   18  C   UNL     1      -7.471   6.439  69.233  1.00  0.00    -0.094 C  
HETATM   19  C   UNL     1      -5.991   6.897  69.457  1.00  0.00    -0.026 C  
BRANCH  14  20
HETATM   20  C   UNL     1      -7.868  11.531  68.714  1.00  0.00    -0.117 C  
HETATM   21  C   UNL     1      -8.980  13.590  69.448  1.00  0.00     0.975 C  
HETATM   22  C   UNL     1      -8.888  12.386  68.524  1.00  0.00    -0.056 C  
HETATM   23  C   UNL     1      -8.981  14.897  68.662  1.00  0.00    -0.184 C  
HETATM   24  O   UNL     1      -7.712  15.126  68.046  1.00  0.00    -0.113 OA 
HETATM   25  C   UNL     1     -10.086  14.893  67.613  1.00  0.00    -0.227 C  
HETATM   26  H   UNL     1      -7.712  15.940  67.557  1.00  0.00     0.000 HD 
HETATM   27  C   UNL     1     -10.005  13.664  66.695  1.00  0.00    -0.283 C  
HETATM   28  C   UNL     1      -9.937  12.360  67.499  1.00  0.00    -0.196 C  
HETATM   29  O   UNL     1     -11.135  13.678  65.828  1.00  0.00    -0.287 OA 
HETATM   30  C   UNL     1     -10.785  11.343  67.312  1.00  0.00    -0.283 C  
HETATM   31  H   UNL     1     -11.085  12.918  65.260  1.00  0.00     0.000 HD 
ENDBRANCH  14  20
ENDBRANCH   5   6
ENDBRANCH   4   5
TORSDOF 3
ENDMDL
MODEL      150
REMARK 921   NORMALIZED FREE ENERGY PREDICTED BY IDOCK:   16.83 KCAL/MOL
REMARK 922        TOTAL FREE ENERGY PREDICTED BY IDOCK:   18.68 KCAL/MOL
REMARK 923 INTER-LIGAND FREE ENERGY PREDICTED BY IDOCK:   11.92 KCAL/MOL
REMARK 924 INTRA-LIGAND FREE ENERGY PREDICTED BY IDOCK:    6.76 KCAL/MOL
REMARK 927      BINDING AFFINITY PREDICTED BY RF-SCORE:    0.00 PKD
ROOT
HETATM    1  C   UNL     1     -13.833  15.182  65.487  1.00  0.00     2.965 C  
HETATM    2  C   UNL     1     -13.961  13.705  65.858  1.00  0.00     3.926 C  
HETATM    3  C   UNL     1     -13.943  12.845  64.587  1.00  0.00     3.074 C  
HETATM    4  C   UNL     1     -12.825  13.220  66.769  1.00  0.00     0.835 C  
ENDROOT
BRANCH   4   5
HETATM    5  C   UNL     1     -12.729  13.879  68.146  1.00  0.00     0.928 C  
BRANCH   5   6
HETATM    6  C   UNL     1     -11.275  13.728  68.643  1.00  0.00    -0.308 C  
HETATM    7  C   UNL     1     -10.345  12.860  67.764  1.00  0.00    -0.223 C  
HETATM    8  C   UNL     1     -10.378  13.425  66.332  1.00  0.00    -0.288 C  
HETATM    9  C   UNL     1      -8.866  12.664  68.472  1.00  0.00    -0.044 C  
HETATM   10  C   UNL     1      -9.057  11.821  69.734  1.00  0.00     1.838 C  
HETATM   11  C   UNL     1      -8.997  10.387  69.253  1.00  0.00    -0.176 C  
HETATM   12  C   UNL     1      -8.589  10.427  67.751  1.00  0.00    -0.122 C  
HETATM   13  C   UNL     1      -7.901   9.124  67.375  1.00  0.00    -0.099 C  
HETATM   14  C   UNL     1      -8.251   7.936  67.920  1.00  0.00    -0.129 C  
HETATM   15  C   UNL     1      -6.845   9.312  66.333  1.00  0.00    -0.083 C  
HETATM   16  C   UNL     1      -7.570  12.650  66.342  1.00  0.00     0.915 C  
HETATM   17  C   UNL     1      -5.866  10.433  66.761  1.00  0.00    -0.058 C  
HETATM   18  C   UNL     1      -7.832  11.804  67.611  1.00  0.00    -0.138 C  
HETATM   19  C   UNL     1      -6.371  11.357  67.951  1.00  0.00    -0.055 C  
BRANCH  14  20
HETATM   20  C   UNL     1      -8.184   6.700  67.187  1.00  0.00    -0.113 C  
HETATM   21  C   UNL     1      -7.541   5.006  65.534  1.00  0.00    -0.086 C  
HETATM   22  C   UNL     1      -7.814   6.451  65.919  1.00  0.00    -0.102 C  
HETATM   23  C   UNL     1      -8.416   4.563  64.367  1.00  0.00    -0.122 C  
HETATM   24  O   UNL     1      -9.789   4.484  64.757  1.00  0.00    -0.302 OA 
HETATM   25  C   UNL     1      -8.256   5.511  63.185  1.00  0.00    -0.097 C  
HETATM   26  H   UNL     1     -10.334   4.208  64.030  1.00  0.00     0.000 HD 
HETATM   27  C   UNL     1      -8.510   6.974  63.580  1.00  0.00     0.355 C  
HETATM   28  C   UNL     1      -7.673   7.386  64.797  1.00  0.00    -0.114 C  
HETATM   29  O   UNL     1      -8.224   7.797  62.454  1.00  0.00    -0.192 OA 
HETATM   30  C   UNL     1      -6.864   8.451  64.799  1.00  0.00    -0.072 C  
HETATM   31  H   UNL     1      -8.381   8.702  62.698  1.00  0.00     0.000 HD 
ENDBRANCH  14  20
ENDBRANCH   5   6
ENDBRANCH   4   5
TORSDOF 3
ENDMDL
MODEL      151
REMARK 921   NORMALIZED FREE ENERGY PREDICTED BY IDOCK:   17.54 KCAL/MOL
REMARK 922        TOTAL FREE ENERGY PREDICTED BY IDOCK:   19.51 KCAL/MOL
REMARK 923 INTER-LIGAND FREE ENERGY PREDICTED BY IDOCK:   17.61 KCAL/MOL
REMARK 924 INTRA-LIGAND FREE ENERGY PREDICTED BY IDOCK:    1.90 KCAL/MOL
REMARK 927      BINDING AFFINITY PREDICTED BY RF-SCORE:    0.00 PKD
ROOT
HETATM    1  C   UNL     1      -7.500  15.944  67.949  1.00  0.00    -0.145 C  
HETATM    2  C   UNL     1      -6.606  15.482  66.798  1.00  0.00     0.711 C  
HETATM    3  C   UNL     1      -7.037  14.086  66.333  1.00  0.00     2.825 C  
HETATM    4  C   UNL     1      -6.667  16.421  65.585  1.00  0.00     2.777 C  
ENDROOT
BRANCH   4   5
HETATM    5  C   UNL     1      -6.174  17.852  65.806  1.00  0.00    -0.252 C  
BRANCH   5   6
HETATM    6  C   UNL     1      -7.357  18.682  66.349  1.00  0.00    -0.272 C  
HETATM    7  C   UNL     1      -7.900  18.262  67.734  1.00  0.00    -0.245 C  
HETATM    8  C   UNL     1      -6.725  18.268  68.730  1.00  0.00    -0.256 C  
HETATM    9  C   UNL     1      -9.245  19.132  68.137  1.00  0.00    -0.377 C  
HETATM   10  C   UNL     1     -10.367  18.738  67.176  1.00  0.00    -0.455 C  
HETATM   11  C   UNL     1     -10.995  17.511  67.801  1.00  0.00    -0.126 C  
HETATM   12  C   UNL     1     -10.344  17.329  69.204  1.00  0.00    -0.290 C  
HETATM   13  C   UNL     1     -11.302  16.583  70.118  1.00  0.00    -0.071 C  
HETATM   14  C   UNL     1     -12.138  15.621  69.662  1.00  0.00    -0.329 C  
HETATM   15  C   UNL     1     -11.184  17.008  71.546  1.00  0.00     0.880 C  
HETATM   16  C   UNL     1      -8.763  19.217  70.582  1.00  0.00     2.801 C  
HETATM   17  C   UNL     1     -11.293  18.549  71.654  1.00  0.00     4.690 C  
HETATM   18  C   UNL     1      -9.851  18.782  69.572  1.00  0.00     0.149 C  
HETATM   19  C   UNL     1     -11.128  19.339  70.285  1.00  0.00     3.421 C  
BRANCH  14  20
HETATM   20  C   UNL     1     -12.508  14.479  70.455  1.00  0.00    -0.408 C  
HETATM   21  C   UNL     1     -12.366  12.408  71.763  1.00  0.00     0.318 C  
HETATM   22  C   UNL     1     -11.906  13.286  70.610  1.00  0.00    -0.128 C  
HETATM   23  C   UNL     1     -12.839  11.044  71.272  1.00  0.00    -0.425 C  
HETATM   24  O   UNL     1     -14.049  11.160  70.522  1.00  0.00     2.056 OA 
HETATM   25  C   UNL     1     -11.759  10.371  70.433  1.00  0.00    -0.419 C  
HETATM   26  H   UNL     1     -14.344  10.310  70.216  1.00  0.00     0.000 HD 
HETATM   27  C   UNL     1     -11.279  11.268  69.282  1.00  0.00    -0.272 C  
HETATM   28  C   UNL     1     -10.871  12.659  69.781  1.00  0.00     0.431 C  
HETATM   29  O   UNL     1     -10.196  10.615  68.628  1.00  0.00    -0.166 OA 
HETATM   30  C   UNL     1      -9.675  13.203  69.527  1.00  0.00     1.189 C  
HETATM   31  H   UNL     1      -9.899  11.170  67.916  1.00  0.00     0.000 HD 
ENDBRANCH  14  20
ENDBRANCH   5   6
ENDBRANCH   4   5
TORSDOF 3
ENDMDL
MODEL      152
REMARK 921   NORMALIZED FREE ENERGY PREDICTED BY IDOCK:   17.85 KCAL/MOL
REMARK 922        TOTAL FREE ENERGY PREDICTED BY IDOCK:   19.88 KCAL/MOL
REMARK 923 INTER-LIGAND FREE ENERGY PREDICTED BY IDOCK:   17.02 KCAL/MOL
REMARK 924 INTRA-LIGAND FREE ENERGY PREDICTED BY IDOCK:    2.86 KCAL/MOL
REMARK 927      BINDING AFFINITY PREDICTED BY RF-SCORE:    0.00 PKD
ROOT
HETATM    1  C   UNL     1     -11.173  18.538  71.018  1.00  0.00     4.231 C  
HETATM    2  C   UNL     1      -9.806  19.117  71.379  1.00  0.00     3.406 C  
HETATM    3  C   UNL     1      -9.229  18.373  72.591  1.00  0.00    11.176 C  
HETATM    4  C   UNL     1      -8.790  19.007  70.234  1.00  0.00     1.887 C  
ENDROOT
BRANCH   4   5
HETATM    5  C   UNL     1      -9.123  19.774  68.953  1.00  0.00    -0.198 C  
BRANCH   5   6
HETATM    6  C   UNL     1      -9.411  18.740  67.843  1.00  0.00    -0.339 C  
HETATM    7  C   UNL     1      -9.639  17.286  68.314  1.00  0.00    -0.288 C  
HETATM    8  C   UNL     1     -10.768  17.293  69.361  1.00  0.00     0.019 C  
HETATM    9  C   UNL     1      -9.797  16.260  67.030  1.00  0.00    -0.247 C  
HETATM   10  C   UNL     1      -8.451  16.197  66.308  1.00  0.00    -0.357 C  
HETATM   11  C   UNL     1      -7.669  15.129  67.042  1.00  0.00    -0.158 C  
HETATM   12  C   UNL     1      -8.646  14.466  68.057  1.00  0.00    -0.166 C  
HETATM   13  C   UNL     1      -8.189  13.045  68.351  1.00  0.00    -0.123 C  
HETATM   14  C   UNL     1      -6.882  12.697  68.387  1.00  0.00    -0.090 C  
HETATM   15  C   UNL     1      -9.331  12.118  68.620  1.00  0.00    -0.031 C  
HETATM   16  C   UNL     1     -11.453  14.748  68.122  1.00  0.00    -0.343 C  
HETATM   17  C   UNL     1     -10.375  12.214  67.480  1.00  0.00    -0.219 C  
HETATM   18  C   UNL     1     -10.068  14.738  67.431  1.00  0.00    -0.231 C  
HETATM   19  C   UNL     1     -10.222  13.473  66.523  1.00  0.00    -0.283 C  
BRANCH  14  20
HETATM   20  C   UNL     1      -6.377  11.683  69.273  1.00  0.00    -0.098 C  
HETATM   21  C   UNL     1      -5.265   9.659  70.101  1.00  0.00    -0.032 C  
HETATM   22  C   UNL     1      -6.085  10.389  69.049  1.00  0.00    -0.040 C  
HETATM   23  C   UNL     1      -5.995   8.425  70.621  1.00  0.00    -0.032 C  
HETATM   24  O   UNL     1      -7.145   8.794  71.384  1.00  0.00    -0.081 OA 
HETATM   25  C   UNL     1      -6.394   7.512  69.469  1.00  0.00    -0.032 C  
HETATM   26  H   UNL     1      -7.600   8.025  71.708  1.00  0.00     0.000 HD 
HETATM   27  C   UNL     1      -7.204   8.256  68.396  1.00  0.00    -0.092 C  
HETATM   28  C   UNL     1      -6.490   9.531  67.931  1.00  0.00    -0.062 C  
HETATM   29  O   UNL     1      -7.432   7.365  67.309  1.00  0.00    -0.098 OA 
HETATM   30  C   UNL     1      -6.222   9.789  66.646  1.00  0.00    -0.064 C  
HETATM   31  H   UNL     1      -7.932   7.826  66.645  1.00  0.00     0.000 HD 
ENDBRANCH  14  20
ENDBRANCH   5   6
ENDBRANCH   4   5
TORSDOF 3
ENDMDL
MODEL      153
REMARK 921   NORMALIZED FREE ENERGY PREDICTED BY IDOCK:   18.93 KCAL/MOL
REMARK 922        TOTAL FREE ENERGY PREDICTED BY IDOCK:   21.14 KCAL/MOL
REMARK 923 INTER-LIGAND FREE ENERGY PREDICTED BY IDOCK:   19.27 KCAL/MOL
REMARK 924 INTRA-LIGAND FREE ENERGY PREDICTED BY IDOCK:    1.87 KCAL/MOL
REMARK 927      BINDING AFFINITY PREDICTED BY RF-SCORE:    0.00 PKD
ROOT
HETATM    1  C   UNL     1     -10.465   7.333  66.549  1.00  0.00    -0.043 C  
HETATM    2  C   UNL     1      -9.878   6.764  67.839  1.00  0.00    -0.146 C  
HETATM    3  C   UNL     1      -8.679   5.863  67.514  1.00  0.00    -0.104 C  
HETATM    4  C   UNL     1      -9.396   7.855  68.806  1.00  0.00    -0.146 C  
ENDROOT
BRANCH   4   5
HETATM    5  C   UNL     1     -10.465   8.807  69.345  1.00  0.00    -0.228 C  
BRANCH   5   6
HETATM    6  C   UNL     1     -11.346   9.251  68.157  1.00  0.00     0.436 C  
HETATM    7  C   UNL     1     -10.774  10.385  67.276  1.00  0.00    -0.331 C  
HETATM    8  C   UNL     1      -9.378   9.954  66.790  1.00  0.00    -0.187 C  
HETATM    9  C   UNL     1     -11.866  10.862  66.133  1.00  0.00     1.463 C  
HETATM   10  C   UNL     1     -13.042  11.524  66.851  1.00  0.00     6.352 C  
HETATM   11  C   UNL     1     -12.623  12.968  67.027  1.00  0.00     0.538 C  
HETATM   12  C   UNL     1     -11.291  13.155  66.243  1.00  0.00    -0.348 C  
HETATM   13  C   UNL     1     -11.144  14.610  65.828  1.00  0.00    -0.331 C  
HETATM   14  C   UNL     1     -11.594  15.631  66.593  1.00  0.00     0.260 C  
HETATM   15  C   UNL     1     -10.430  14.766  64.523  1.00  0.00     0.037 C  
HETATM   16  C   UNL     1     -10.175  11.363  64.369  1.00  0.00    -0.361 C  
HETATM   17  C   UNL     1     -11.090  13.874  63.444  1.00  0.00     1.285 C  
HETATM   18  C   UNL     1     -11.339  12.011  65.157  1.00  0.00    -0.359 C  
HETATM   19  C   UNL     1     -12.077  12.758  63.996  1.00  0.00    -0.533 C  
BRANCH  14  20
HETATM   20  C   UNL     1     -10.932  16.907  66.647  1.00  0.00     0.151 C  
HETATM   21  C   UNL     1      -9.599  18.806  67.444  1.00  0.00    -0.337 C  
HETATM   22  C   UNL     1     -10.569  17.663  67.698  1.00  0.00    -0.364 C  
HETATM   23  C   UNL     1     -10.182  20.143  67.888  1.00  0.00    -0.360 C  
HETATM   24  O   UNL     1     -11.277  20.527  67.055  1.00  0.00     0.823 OA 
HETATM   25  C   UNL     1     -10.624  20.079  69.346  1.00  0.00     0.348 C  
HETATM   26  H   UNL     1     -11.640  21.360  67.332  1.00  0.00     0.000 HD 
HETATM   27  C   UNL     1     -11.586  18.910  69.606  1.00  0.00     5.484 C  
HETATM   28  C   UNL     1     -11.016  17.581  69.093  1.00  0.00     0.433 C  
HETATM   29  O   UNL     1     -11.852  18.852  71.004  1.00  0.00     6.128 OA 
HETATM   30  C   UNL     1     -10.894  16.494  69.863  1.00  0.00    -0.285 C  
HETATM   31  H   UNL     1     -12.447  18.129  71.165  1.00  0.00     0.000 HD 
ENDBRANCH  14  20
ENDBRANCH   5   6
ENDBRANCH   4   5
TORSDOF 3
ENDMDL
MODEL      154
REMARK 921   NORMALIZED FREE ENERGY PREDICTED BY IDOCK:   19.06 KCAL/MOL
REMARK 922        TOTAL FREE ENERGY PREDICTED BY IDOCK:   21.30 KCAL/MOL
REMARK 923 INTER-LIGAND FREE ENERGY PREDICTED BY IDOCK:   18.68 KCAL/MOL
REMARK 924 INTRA-LIGAND FREE ENERGY PREDICTED BY IDOCK:    2.62 KCAL/MOL
REMARK 927      BINDING AFFINITY PREDICTED BY RF-SCORE:    0.00 PKD
ROOT
HETATM    1  C   UNL     1     -10.718   8.810  69.262  1.00  0.00    -0.166 C  
HETATM    2  C   UNL     1      -9.427   8.584  70.049  1.00  0.00    -0.165 C  
HETATM    3  C   UNL     1      -9.638   8.975  71.518  1.00  0.00    -0.340 C  
HETATM    4  C   UNL     1      -8.958   7.123  70.015  1.00  0.00    -0.142 C  
ENDROOT
BRANCH   4   5
HETATM    5  C   UNL     1      -8.587   6.559  68.642  1.00  0.00    -0.124 C  
BRANCH   5   6
HETATM    6  C   UNL     1      -8.691   7.707  67.614  1.00  0.00    -0.122 C  
HETATM    7  C   UNL     1      -8.072   9.057  68.042  1.00  0.00    -0.105 C  
HETATM    8  C   UNL     1      -6.605   8.807  68.436  1.00  0.00    -0.060 C  
HETATM    9  C   UNL     1      -8.371  10.232  66.921  1.00  0.00    -0.123 C  
HETATM   10  C   UNL     1      -9.875  10.511  66.919  1.00  0.00    -0.235 C  
HETATM   11  C   UNL     1     -10.079  11.532  68.017  1.00  0.00    -0.197 C  
HETATM   12  C   UNL     1      -8.666  11.961  68.510  1.00  0.00    -0.108 C  
HETATM   13  C   UNL     1      -8.735  13.362  69.097  1.00  0.00     0.583 C  
HETATM   14  C   UNL     1      -9.819  13.814  69.768  1.00  0.00     1.170 C  
HETATM   15  C   UNL     1      -7.478  14.141  68.877  1.00  0.00    -0.112 C  
HETATM   16  C   UNL     1      -6.206  11.430  67.233  1.00  0.00    -0.093 C  
HETATM   17  C   UNL     1      -7.089  14.112  67.378  1.00  0.00    -0.101 C  
HETATM   18  C   UNL     1      -7.737  11.655  67.272  1.00  0.00    -0.154 C  
HETATM   19  C   UNL     1      -7.835  13.015  66.504  1.00  0.00     0.738 C  
BRANCH  14  20
HETATM   20  C   UNL     1      -9.720  14.737  70.867  1.00  0.00     1.817 C  
HETATM   21  C   UNL     1     -10.193  15.922  72.962  1.00  0.00     5.446 C  
HETATM   22  C   UNL     1     -10.661  15.212  71.702  1.00  0.00     0.653 C  
HETATM   23  C   UNL     1     -10.750  17.339  73.045  1.00  0.00     4.034 C  
HETATM   24  O   UNL     1     -10.177  18.174  72.037  1.00  0.00     3.786 OA 
HETATM   25  C   UNL     1     -12.269  17.327  72.924  1.00  0.00     1.307 C  
HETATM   26  H   UNL     1     -10.524  19.057  72.089  1.00  0.00     0.000 HD 
HETATM   27  C   UNL     1     -12.741  16.591  71.661  1.00  0.00     1.177 C  
HETATM   28  C   UNL     1     -12.120  15.192  71.556  1.00  0.00    -0.407 C  
HETATM   29  O   UNL     1     -14.163  16.524  71.688  1.00  0.00     1.161 OA 
HETATM   30  C   UNL     1     -12.849  14.080  71.405  1.00  0.00    -0.434 C  
HETATM   31  H   UNL     1     -14.455  16.068  70.907  1.00  0.00     0.000 HD 
ENDBRANCH  14  20
ENDBRANCH   5   6
ENDBRANCH   4   5
TORSDOF 3
ENDMDL
MODEL      155
REMARK 921   NORMALIZED FREE ENERGY PREDICTED BY IDOCK:   19.99 KCAL/MOL
REMARK 922        TOTAL FREE ENERGY PREDICTED BY IDOCK:   22.39 KCAL/MOL
REMARK 923 INTER-LIGAND FREE ENERGY PREDICTED BY IDOCK:   21.02 KCAL/MOL
REMARK 924 INTRA-LIGAND FREE ENERGY PREDICTED BY IDOCK:    1.37 KCAL/MOL
REMARK 927      BINDING AFFINITY PREDICTED BY RF-SCORE:    0.00 PKD
ROOT
HETATM    1  C   UNL     1     -12.314  11.387  69.583  1.00  0.00    -0.236 C  
HETATM    2  C   UNL     1     -11.669  11.656  68.224  1.00  0.00    -0.374 C  
HETATM    3  C   UNL     1     -12.357  10.811  67.144  1.00  0.00     3.079 C  
HETATM    4  C   UNL     1     -11.767  13.128  67.800  1.00  0.00    -0.401 C  
ENDROOT
BRANCH   4   5
HETATM    5  C   UNL     1     -11.048  14.143  68.691  1.00  0.00    -0.283 C  
BRANCH   5   6
HETATM    6  C   UNL     1     -10.389  13.369  69.853  1.00  0.00     1.191 C  
HETATM    7  C   UNL     1      -9.379  12.271  69.450  1.00  0.00     1.091 C  
HETATM    8  C   UNL     1      -8.311  12.913  68.545  1.00  0.00    -0.054 C  
HETATM    9  C   UNL     1      -8.854  11.428  70.769  1.00  0.00     5.784 C  
HETATM   10  C   UNL     1     -10.039  10.639  71.327  1.00  0.00     3.196 C  
HETATM   11  C   UNL     1     -10.053   9.351  70.533  1.00  0.00    -0.335 C  
HETATM   12  C   UNL     1      -8.765   9.341  69.658  1.00  0.00    -0.155 C  
HETATM   13  C   UNL     1      -8.370   7.906  69.348  1.00  0.00    -0.132 C  
HETATM   14  C   UNL     1      -9.285   6.926  69.165  1.00  0.00    -0.141 C  
HETATM   15  C   UNL     1      -6.889   7.726  69.241  1.00  0.00    -0.048 C  
HETATM   16  C   UNL     1      -6.538  11.056  69.922  1.00  0.00    -0.142 C  
HETATM   17  C   UNL     1      -6.190   8.309  70.494  1.00  0.00    -0.035 C  
HETATM   18  C   UNL     1      -7.780  10.293  70.443  1.00  0.00     0.301 C  
HETATM   19  C   UNL     1      -7.090   9.259  71.394  1.00  0.00     0.031 C  
BRANCH  14  20
HETATM   20  C   UNL     1      -9.076   5.834  68.251  1.00  0.00    -0.117 C  
HETATM   21  C   UNL     1      -8.945   4.524  66.182  1.00  0.00    -0.120 C  
HETATM   22  C   UNL     1      -9.605   5.592  67.039  1.00  0.00    -0.143 C  
HETATM   23  C   UNL     1      -9.936   3.434  65.787  1.00  0.00     0.207 C  
HETATM   24  O   UNL     1     -10.330   2.663  66.923  1.00  0.00     0.985 OA 
HETATM   25  C   UNL     1     -11.158   4.040  65.108  1.00  0.00     0.412 C  
HETATM   26  H   UNL     1     -10.947   1.984  66.677  1.00  0.00     0.000 HD 
HETATM   27  C   UNL     1     -11.810   5.135  65.965  1.00  0.00     2.378 C  
HETATM   28  C   UNL     1     -10.789   6.189  66.412  1.00  0.00    -0.016 C  
HETATM   29  O   UNL     1     -12.864   5.725  65.210  1.00  0.00     3.123 OA 
HETATM   30  C   UNL     1     -10.950   7.498  66.194  1.00  0.00     1.974 C  
HETATM   31  H   UNL     1     -13.268   6.403  65.740  1.00  0.00     0.000 HD 
ENDBRANCH  14  20
ENDBRANCH   5   6
ENDBRANCH   4   5
TORSDOF 3
ENDMDL
MODEL      156
REMARK 921   NORMALIZED FREE ENERGY PREDICTED BY IDOCK:   20.04 KCAL/MOL
REMARK 922        TOTAL FREE ENERGY PREDICTED BY IDOCK:   22.45 KCAL/MOL
REMARK 923 INTER-LIGAND FREE ENERGY PREDICTED BY IDOCK:   22.97 KCAL/MOL
REMARK 924 INTRA-LIGAND FREE ENERGY PREDICTED BY IDOCK:   -0.52 KCAL/MOL
REMARK 927      BINDING AFFINITY PREDICTED BY RF-SCORE:    0.00 PKD
ROOT
HETATM    1  C   UNL     1     -12.086  18.814  70.162  1.00  0.00    11.078 C  
HETATM    2  C   UNL     1     -10.723  19.010  69.498  1.00  0.00     1.197 C  
HETATM    3  C   UNL     1     -10.535  20.486  69.122  1.00  0.00     0.294 C  
HETATM    4  C   UNL     1      -9.554  18.605  70.406  1.00  0.00     2.060 C  
ENDROOT
BRANCH   4   5
HETATM    5  C   UNL     1      -9.491  17.132  70.816  1.00  0.00     3.999 C  
BRANCH   5   6
HETATM    6  C   UNL     1     -10.321  16.320  69.799  1.00  0.00    -0.219 C  
HETATM    7  C   UNL     1     -11.051  15.078  70.358  1.00  0.00    -0.263 C  
HETATM    8  C   UNL     1     -11.926  15.529  71.542  1.00  0.00    -0.463 C  
HETATM    9  C   UNL     1     -11.784  14.222  69.151  1.00  0.00    -0.360 C  
HETATM   10  C   UNL     1     -10.690  13.628  68.262  1.00  0.00    -0.266 C  
HETATM   11  C   UNL     1     -10.315  12.324  68.934  1.00  0.00    -0.085 C  
HETATM   12  C   UNL     1     -11.328  12.101  70.095  1.00  0.00     0.100 C  
HETATM   13  C   UNL     1     -11.449  10.614  70.388  1.00  0.00    -0.422 C  
HETATM   14  C   UNL     1     -10.403   9.765  70.269  1.00  0.00    -0.348 C  
HETATM   15  C   UNL     1     -12.819  10.227  70.843  1.00  0.00    -0.463 C  
HETATM   16  C   UNL     1     -13.744  13.499  70.513  1.00  0.00     1.072 C  
HETATM   17  C   UNL     1     -13.881  10.755  69.847  1.00  0.00     2.490 C  
HETATM   18  C   UNL     1     -12.589  12.937  69.649  1.00  0.00     0.279 C  
HETATM   19  C   UNL     1     -13.364  11.856  68.824  1.00  0.00     4.364 C  
BRANCH  14  20
HETATM   20  C   UNL     1     -10.235   8.620  71.124  1.00  0.00    -0.294 C  
HETATM   21  C   UNL     1      -9.301   7.066  72.776  1.00  0.00    -0.158 C  
HETATM   22  C   UNL     1      -9.125   8.077  71.654  1.00  0.00    -0.194 C  
HETATM   23  C   UNL     1      -8.649   5.730  72.433  1.00  0.00    -0.121 C  
HETATM   24  O   UNL     1      -9.347   5.078  71.370  1.00  0.00    -0.142 OA 
HETATM   25  C   UNL     1      -7.184   5.927  72.063  1.00  0.00    -0.092 C  
HETATM   26  H   UNL     1      -8.941   4.246  71.156  1.00  0.00     0.000 HD 
HETATM   27  C   UNL     1      -7.006   6.965  70.944  1.00  0.00    -0.066 C  
HETATM   28  C   UNL     1      -7.723   8.281  71.273  1.00  0.00    -0.106 C  
HETATM   29  O   UNL     1      -5.611   7.173  70.745  1.00  0.00    -0.026 OA 
HETATM   30  C   UNL     1      -7.109   9.469  71.263  1.00  0.00     0.126 C  
HETATM   31  H   UNL     1      -5.501   7.816  70.054  1.00  0.00     0.000 HD 
ENDBRANCH  14  20
ENDBRANCH   5   6
ENDBRANCH   4   5
TORSDOF 3
ENDMDL
MODEL      157
REMARK 921   NORMALIZED FREE ENERGY PREDICTED BY IDOCK:   20.53 KCAL/MOL
REMARK 922        TOTAL FREE ENERGY PREDICTED BY IDOCK:   23.02 KCAL/MOL
REMARK 923 INTER-LIGAND FREE ENERGY PREDICTED BY IDOCK:   20.96 KCAL/MOL
REMARK 924 INTRA-LIGAND FREE ENERGY PREDICTED BY IDOCK:    2.06 KCAL/MOL
REMARK 927      BINDING AFFINITY PREDICTED BY RF-SCORE:    0.00 PKD
ROOT
HETATM    1  C   UNL     1     -10.743  17.394  72.971  1.00  0.00     3.916 C  
HETATM    2  C   UNL     1     -11.239  18.704  72.358  1.00  0.00     3.914 C  
HETATM    3  C   UNL     1     -11.217  19.815  73.416  1.00  0.00     7.123 C  
HETATM    4  C   UNL     1     -10.381  19.168  71.173  1.00  0.00     2.536 C  
ENDROOT
BRANCH   4   5
HETATM    5  C   UNL     1     -10.351  18.247  69.952  1.00  0.00     0.942 C  
BRANCH   5   6
HETATM    6  C   UNL     1      -8.873  17.996  69.584  1.00  0.00     0.955 C  
HETATM    7  C   UNL     1      -8.585  16.712  68.772  1.00  0.00    -0.261 C  
HETATM    8  C   UNL     1      -9.466  16.737  67.510  1.00  0.00    -0.237 C  
HETATM    9  C   UNL     1      -6.962  16.488  68.565  1.00  0.00    -0.154 C  
HETATM   10  C   UNL     1      -6.348  16.193  69.934  1.00  0.00    -0.138 C  
HETATM   11  C   UNL     1      -6.513  14.700  70.117  1.00  0.00    -0.166 C  
HETATM   12  C   UNL     1      -7.052  14.132  68.771  1.00  0.00    -0.107 C  
HETATM   13  C   UNL     1      -6.650  12.672  68.635  1.00  0.00    -0.083 C  
HETATM   14  C   UNL     1      -6.565  11.842  69.700  1.00  0.00    -0.062 C  
HETATM   15  C   UNL     1      -6.402  12.273  67.216  1.00  0.00    -0.150 C  
HETATM   16  C   UNL     1      -7.140  15.479  66.291  1.00  0.00     1.832 C  
HETATM   17  C   UNL     1      -5.408  13.258  66.551  1.00  0.00     2.372 C  
HETATM   18  C   UNL     1      -6.579  15.197  67.707  1.00  0.00    -0.186 C  
HETATM   19  C   UNL     1      -5.173  14.619  67.337  1.00  0.00     0.381 C  
BRANCH  14  20
HETATM   20  C   UNL     1      -6.878  10.441  69.615  1.00  0.00    -0.108 C  
HETATM   21  C   UNL     1      -7.548   8.255  68.725  1.00  0.00    -0.101 C  
HETATM   22  C   UNL     1      -7.673   9.770  68.763  1.00  0.00    -0.081 C  
HETATM   23  C   UNL     1      -8.882   7.576  69.017  1.00  0.00    -0.132 C  
HETATM   24  O   UNL     1      -9.274   7.781  70.376  1.00  0.00    -0.155 OA 
HETATM   25  C   UNL     1      -9.962   8.086  68.071  1.00  0.00    -0.216 C  
HETATM   26  H   UNL     1     -10.105   7.359  70.558  1.00  0.00     0.000 HD 
HETATM   27  C   UNL     1     -10.073   9.618  68.094  1.00  0.00    -0.175 C  
HETATM   28  C   UNL     1      -8.712  10.288  67.866  1.00  0.00    -0.122 C  
HETATM   29  O   UNL     1     -11.015  10.014  67.102  1.00  0.00    -0.226 OA 
HETATM   30  C   UNL     1      -8.498  11.200  66.911  1.00  0.00    -0.147 C  
HETATM   31  H   UNL     1     -11.083  10.961  67.115  1.00  0.00     0.000 HD 
ENDBRANCH  14  20
ENDBRANCH   5   6
ENDBRANCH   4   5
TORSDOF 3
ENDMDL
MODEL      158
REMARK 921   NORMALIZED FREE ENERGY PREDICTED BY IDOCK:   20.99 KCAL/MOL
REMARK 922        TOTAL FREE ENERGY PREDICTED BY IDOCK:   23.57 KCAL/MOL
REMARK 923 INTER-LIGAND FREE ENERGY PREDICTED BY IDOCK:   14.99 KCAL/MOL
REMARK 924 INTRA-LIGAND FREE ENERGY PREDICTED BY IDOCK:    8.58 KCAL/MOL
REMARK 927      BINDING AFFINITY PREDICTED BY RF-SCORE:    0.00 PKD
ROOT
HETATM    1  C   UNL     1     -10.358  17.832  67.905  1.00  0.00    -0.388 C  
HETATM    2  C   UNL     1     -11.201  18.308  69.087  1.00  0.00     1.897 C  
HETATM    3  C   UNL     1     -12.336  17.311  69.353  1.00  0.00     4.184 C  
HETATM    4  C   UNL     1     -10.387  18.448  70.381  1.00  0.00     1.718 C  
ENDROOT
BRANCH   4   5
HETATM    5  C   UNL     1      -9.260  19.482  70.368  1.00  0.00     1.428 C  
BRANCH   5   6
HETATM    6  C   UNL     1      -7.953  18.753  69.987  1.00  0.00     1.280 C  
HETATM    7  C   UNL     1      -8.120  17.405  69.248  1.00  0.00     0.154 C  
HETATM    8  C   UNL     1      -8.993  17.647  68.004  1.00  0.00    -0.264 C  
HETATM    9  C   UNL     1      -6.661  16.664  69.023  1.00  0.00    -0.202 C  
HETATM   10  C   UNL     1      -6.122  16.258  70.396  1.00  0.00     0.098 C  
HETATM   11  C   UNL     1      -6.746  14.907  70.671  1.00  0.00     0.251 C  
HETATM   12  C   UNL     1      -7.488  14.474  69.372  1.00  0.00    -0.068 C  
HETATM   13  C   UNL     1      -7.577  12.957  69.316  1.00  0.00     0.383 C  
HETATM   14  C   UNL     1      -7.721  12.199  70.427  1.00  0.00     3.491 C  
HETATM   15  C   UNL     1      -7.522  12.429  67.919  1.00  0.00    -0.120 C  
HETATM   16  C   UNL     1      -7.235  15.650  66.818  1.00  0.00     0.094 C  
HETATM   17  C   UNL     1      -6.292  13.009  67.177  1.00  0.00     0.228 C  
HETATM   18  C   UNL     1      -6.741  15.277  68.237  1.00  0.00    -0.124 C  
HETATM   19  C   UNL     1      -5.607  14.261  67.876  1.00  0.00    -0.101 C  
BRANCH  14  20
HETATM   20  C   UNL     1      -8.467  10.969  70.432  1.00  0.00     2.453 C  
HETATM   21  C   UNL     1      -9.042   8.594  70.210  1.00  0.00    -0.172 C  
HETATM   22  C   UNL     1      -8.277   9.825  69.750  1.00  0.00    -0.182 C  
HETATM   23  C   UNL     1      -9.895   8.014  69.087  1.00  0.00    -0.178 C  
HETATM   24  O   UNL     1     -10.972   8.893  68.756  1.00  0.00    -0.431 OA 
HETATM   25  C   UNL     1      -9.043   7.733  67.856  1.00  0.00    -0.132 C  
HETATM   26  H   UNL     1     -11.503   8.532  68.056  1.00  0.00     0.000 HD 
HETATM   27  C   UNL     1      -8.253   8.972  67.405  1.00  0.00    -0.108 C  
HETATM   28  C   UNL     1      -7.453   9.584  68.561  1.00  0.00    -0.080 C  
HETATM   29  O   UNL     1      -7.400   8.592  66.330  1.00  0.00    -0.078 OA 
HETATM   30  C   UNL     1      -6.137   9.814  68.495  1.00  0.00    -0.042 C  
HETATM   31  H   UNL     1      -6.911   9.358  66.052  1.00  0.00     0.000 HD 
ENDBRANCH  14  20
ENDBRANCH   5   6
ENDBRANCH   4   5
TORSDOF 3
ENDMDL
MODEL      159
REMARK 921   NORMALIZED FREE ENERGY PREDICTED BY IDOCK:   23.00 KCAL/MOL
REMARK 922        TOTAL FREE ENERGY PREDICTED BY IDOCK:   25.92 KCAL/MOL
REMARK 923 INTER-LIGAND FREE ENERGY PREDICTED BY IDOCK:   23.32 KCAL/MOL
REMARK 924 INTRA-LIGAND FREE ENERGY PREDICTED BY IDOCK:    2.60 KCAL/MOL
REMARK 927      BINDING AFFINITY PREDICTED BY RF-SCORE:    0.00 PKD
ROOT
HETATM    1  C   UNL     1     -10.647  12.045  64.573  1.00  0.00    -0.356 C  
HETATM    2  C   UNL     1      -9.691  12.865  63.708  1.00  0.00     0.743 C  
HETATM    3  C   UNL     1     -10.409  14.112  63.176  1.00  0.00     5.345 C  
HETATM    4  C   UNL     1      -8.446  13.332  64.476  1.00  0.00     5.119 C  
ENDROOT
BRANCH   4   5
HETATM    5  C   UNL     1      -7.522  12.234  65.005  1.00  0.00     4.072 C  
BRANCH   5   6
HETATM    6  C   UNL     1      -7.461  11.113  63.946  1.00  0.00     0.980 C  
HETATM    7  C   UNL     1      -8.230   9.816  64.286  1.00  0.00    -0.160 C  
HETATM    8  C   UNL     1      -9.690  10.195  64.599  1.00  0.00    -0.377 C  
HETATM    9  C   UNL     1      -7.972   8.652  63.144  1.00  0.00    -0.162 C  
HETATM   10  C   UNL     1      -6.504   8.230  63.223  1.00  0.00    -0.081 C  
HETATM   11  C   UNL     1      -6.468   7.162  64.295  1.00  0.00    -0.040 C  
HETATM   12  C   UNL     1      -7.944   6.856  64.685  1.00  0.00    -0.112 C  
HETATM   13  C   UNL     1      -8.045   5.438  65.225  1.00  0.00    -0.123 C  
HETATM   14  C   UNL     1      -7.053   4.864  65.944  1.00  0.00    -0.068 C  
HETATM   15  C   UNL     1      -9.353   4.791  64.901  1.00  0.00    -0.090 C  
HETATM   16  C   UNL     1     -10.256   7.660  63.281  1.00  0.00     7.897 C  
HETATM   17  C   UNL     1      -9.641   4.902  63.384  1.00  0.00     0.344 C  
HETATM   18  C   UNL     1      -8.759   7.287  63.405  1.00  0.00     0.706 C  
HETATM   19  C   UNL     1      -8.741   5.947  62.596  1.00  0.00     0.158 C  
BRANCH  14  20
HETATM   20  C   UNL     1      -7.309   3.923  67.001  1.00  0.00    -0.072 C  
HETATM   21  C   UNL     1      -8.011   2.969  69.149  1.00  0.00    -0.058 C  
HETATM   22  C   UNL     1      -7.417   4.103  68.329  1.00  0.00    -0.063 C  
HETATM   23  C   UNL     1      -7.054   2.509  70.243  1.00  0.00    -0.033 C  
HETATM   24  O   UNL     1      -5.907   1.865  69.683  1.00  0.00    -0.021 OA 
HETATM   25  C   UNL     1      -6.628   3.684  71.114  1.00  0.00    -0.030 C  
HETATM   26  H   UNL     1      -5.311   1.578  70.365  1.00  0.00     0.000 HD 
HETATM   27  C   UNL     1      -6.048   4.839  70.282  1.00  0.00    -0.021 C  
HETATM   28  C   UNL     1      -6.992   5.247  69.144  1.00  0.00    -0.056 C  
HETATM   29  O   UNL     1      -5.789   5.933  71.156  1.00  0.00    -0.023 OA 
HETATM   30  C   UNL     1      -7.417   6.502  68.963  1.00  0.00    -0.095 C  
HETATM   31  H   UNL     1      -5.431   6.647  70.641  1.00  0.00     0.000 HD 
ENDBRANCH  14  20
ENDBRANCH   5   6
ENDBRANCH   4   5
TORSDOF 3
ENDMDL
MODEL      160
REMARK 921   NORMALIZED FREE ENERGY PREDICTED BY IDOCK:   24.57 KCAL/MOL
REMARK 922        TOTAL FREE ENERGY PREDICTED BY IDOCK:   27.77 KCAL/MOL
REMARK 923 INTER-LIGAND FREE ENERGY PREDICTED BY IDOCK:   25.38 KCAL/MOL
REMARK 924 INTRA-LIGAND FREE ENERGY PREDICTED BY IDOCK:    2.39 KCAL/MOL
REMARK 927      BINDING AFFINITY PREDICTED BY RF-SCORE:    0.00 PKD
ROOT
HETATM    1  C   UNL     1     -10.806  18.659  65.979  1.00  0.00    -0.125 C  
HETATM    2  C   UNL     1     -11.510  18.912  64.647  1.00  0.00     3.808 C  
HETATM    3  C   UNL     1     -11.269  20.359  64.197  1.00  0.00     3.644 C  
HETATM    4  C   UNL     1     -11.016  17.985  63.527  1.00  0.00     9.897 C  
ENDROOT
BRANCH   4   5
HETATM    5  C   UNL     1     -11.258  16.488  63.727  1.00  0.00     1.815 C  
BRANCH   5   6
HETATM    6  C   UNL     1     -11.868  16.289  65.132  1.00  0.00     0.734 C  
HETATM    7  C   UNL     1     -10.921  15.703  66.204  1.00  0.00    -0.206 C  
HETATM    8  C   UNL     1      -9.667  16.594  66.273  1.00  0.00    -0.327 C  
HETATM    9  C   UNL     1     -11.726  15.410  67.616  1.00  0.00    -0.122 C  
HETATM   10  C   UNL     1     -12.726  14.281  67.362  1.00  0.00     0.705 C  
HETATM   11  C   UNL     1     -11.932  13.010  67.573  1.00  0.00    -0.360 C  
HETATM   12  C   UNL     1     -10.537  13.428  68.123  1.00  0.00    -0.255 C  
HETATM   13  C   UNL     1      -9.947  12.288  68.937  1.00  0.00     0.046 C  
HETATM   14  C   UNL     1     -10.156  10.989  68.622  1.00  0.00    -0.207 C  
HETATM   15  C   UNL     1      -9.105  12.769  70.075  1.00  0.00     3.558 C  
HETATM   16  C   UNL     1      -9.813  15.970  69.114  1.00  0.00    -0.247 C  
HETATM   17  C   UNL     1      -9.892  13.798  70.923  1.00  0.00     4.835 C  
HETATM   18  C   UNL     1     -10.811  14.832  68.789  1.00  0.00    -0.259 C  
HETATM   19  C   UNL     1     -11.200  14.384  70.237  1.00  0.00    -0.102 C  
BRANCH  14  20
HETATM   20  C   UNL     1      -9.166   9.969  68.849  1.00  0.00    -0.169 C  
HETATM   21  C   UNL     1      -7.358   8.355  68.473  1.00  0.00    -0.093 C  
HETATM   22  C   UNL     1      -8.605   9.087  68.004  1.00  0.00    -0.129 C  
HETATM   23  C   UNL     1      -7.547   6.843  68.427  1.00  0.00    -0.111 C  
HETATM   24  O   UNL     1      -8.496   6.415  69.406  1.00  0.00    -0.124 OA 
HETATM   25  C   UNL     1      -7.984   6.398  67.037  1.00  0.00    -0.109 C  
HETATM   26  H   UNL     1      -8.614   5.473  69.378  1.00  0.00     0.000 HD 
HETATM   27  C   UNL     1      -9.231   7.155  66.554  1.00  0.00    -0.162 C  
HETATM   28  C   UNL     1      -9.052   8.674  66.669  1.00  0.00    -0.203 C  
HETATM   29  O   UNL     1      -9.498   6.766  65.210  1.00  0.00    -0.068 OA 
HETATM   30  C   UNL     1      -9.232   9.509  65.641  1.00  0.00    -0.281 C  
HETATM   31  H   UNL     1     -10.269   7.235  64.912  1.00  0.00     0.000 HD 
ENDBRANCH  14  20
ENDBRANCH   5   6
ENDBRANCH   4   5
TORSDOF 3
ENDMDL
MODEL      161
REMARK 921   NORMALIZED FREE ENERGY PREDICTED BY IDOCK:   25.52 KCAL/MOL
REMARK 922        TOTAL FREE ENERGY PREDICTED BY IDOCK:   28.90 KCAL/MOL
REMARK 923 INTER-LIGAND FREE ENERGY PREDICTED BY IDOCK:   23.70 KCAL/MOL
REMARK 924 INTRA-LIGAND FREE ENERGY PREDICTED BY IDOCK:    5.19 KCAL/MOL
REMARK 927      BINDING AFFINITY PREDICTED BY RF-SCORE:    0.00 PKD
ROOT
HETATM    1  C   UNL     1     -11.538   8.692  66.261  1.00  0.00     4.572 C  
HETATM    2  C   UNL     1     -11.567  10.179  65.909  1.00  0.00     2.327 C  
HETATM    3  C   UNL     1     -11.474  11.019  67.190  1.00  0.00    -0.099 C  
HETATM    4  C   UNL     1     -10.410  10.596  64.990  1.00  0.00    -0.341 C  
ENDROOT
BRANCH   4   5
HETATM    5  C   UNL     1     -10.375   9.950  63.604  1.00  0.00     1.483 C  
BRANCH   5   6
HETATM    6  C   UNL     1      -9.487   8.690  63.691  1.00  0.00     1.734 C  
HETATM    7  C   UNL     1      -9.639   7.841  64.974  1.00  0.00     1.500 C  
HETATM    8  C   UNL     1     -11.126   7.473  65.130  1.00  0.00     7.885 C  
HETATM    9  C   UNL     1      -8.541   6.607  65.007  1.00  0.00     0.074 C  
HETATM   10  C   UNL     1      -7.147   7.220  65.144  1.00  0.00    -0.064 C  
HETATM   11  C   UNL     1      -6.954   7.408  66.634  1.00  0.00    -0.070 C  
HETATM   12  C   UNL     1      -8.165   6.730  67.340  1.00  0.00    -0.122 C  
HETATM   13  C   UNL     1      -7.765   6.306  68.744  1.00  0.00    -0.100 C  
HETATM   14  C   UNL     1      -6.893   7.019  69.495  1.00  0.00    -0.051 C  
HETATM   15  C   UNL     1      -8.461   5.061  69.190  1.00  0.00    -0.088 C  
HETATM   16  C   UNL     1     -10.035   4.976  66.159  1.00  0.00    -0.240 C  
HETATM   17  C   UNL     1      -8.289   3.945  68.130  1.00  0.00    -0.101 C  
HETATM   18  C   UNL     1      -8.652   5.660  66.287  1.00  0.00    -0.127 C  
HETATM   19  C   UNL     1      -7.776   4.434  66.708  1.00  0.00    -0.094 C  
BRANCH  14  20
HETATM   20  C   UNL     1      -6.998   7.107  70.927  1.00  0.00    -0.057 C  
HETATM   21  C   UNL     1      -7.630   7.866  73.172  1.00  0.00    -0.165 C  
HETATM   22  C   UNL     1      -7.270   8.155  71.724  1.00  0.00    -0.089 C  
HETATM   23  C   UNL     1      -6.692   8.585  74.136  1.00  0.00    -0.110 C  
HETATM   24  O   UNL     1      -5.373   8.039  74.071  1.00  0.00    -0.055 OA 
HETATM   25  C   UNL     1      -6.661  10.080  73.840  1.00  0.00     1.672 C  
HETATM   26  H   UNL     1      -4.789   8.487  74.671  1.00  0.00     0.000 HD 
HETATM   27  C   UNL     1      -6.319  10.370  72.370  1.00  0.00     1.838 C  
HETATM   28  C   UNL     1      -7.226   9.588  71.412  1.00  0.00     0.265 C  
HETATM   29  O   UNL     1      -6.427  11.774  72.154  1.00  0.00     2.083 OA 
HETATM   30  C   UNL     1      -7.937  10.172  70.441  1.00  0.00     0.242 C  
HETATM   31  H   UNL     1      -6.216  11.953  71.245  1.00  0.00     0.000 HD 
ENDBRANCH  14  20
ENDBRANCH   5   6
ENDBRANCH   4   5
TORSDOF 3
ENDMDL
MODEL      162
REMARK 921   NORMALIZED FREE ENERGY PREDICTED BY IDOCK:   26.58 KCAL/MOL
REMARK 922        TOTAL FREE ENERGY PREDICTED BY IDOCK:   30.14 KCAL/MOL
REMARK 923 INTER-LIGAND FREE ENERGY PREDICTED BY IDOCK:   29.91 KCAL/MOL
REMARK 924 INTRA-LIGAND FREE ENERGY PREDICTED BY IDOCK:    0.23 KCAL/MOL
REMARK 927      BINDING AFFINITY PREDICTED BY RF-SCORE:    0.00 PKD
ROOT
HETATM    1  C   UNL     1      -8.881   9.653  70.444  1.00  0.00    -0.227 C  
HETATM    2  C   UNL     1      -8.894   8.185  70.869  1.00  0.00    -0.156 C  
HETATM    3  C   UNL     1     -10.329   7.644  70.828  1.00  0.00    -0.203 C  
HETATM    4  C   UNL     1      -8.031   7.296  69.964  1.00  0.00    -0.117 C  
ENDROOT
BRANCH   4   5
HETATM    5  C   UNL     1      -6.532   7.599  69.941  1.00  0.00    -0.034 C  
BRANCH   5   6
HETATM    6  C   UNL     1      -6.149   7.992  68.498  1.00  0.00    -0.040 C  
HETATM    7  C   UNL     1      -6.379   9.472  68.115  1.00  0.00    -0.057 C  
HETATM    8  C   UNL     1      -5.635  10.351  69.137  1.00  0.00    -0.037 C  
HETATM    9  C   UNL     1      -6.065   9.730  66.515  1.00  0.00    -0.060 C  
HETATM   10  C   UNL     1      -7.119   8.980  65.700  1.00  0.00    -0.081 C  
HETATM   11  C   UNL     1      -8.287   9.938  65.607  1.00  0.00    -0.140 C  
HETATM   12  C   UNL     1      -7.816  11.293  66.211  1.00  0.00    -0.069 C  
HETATM   13  C   UNL     1      -8.624  12.430  65.606  1.00  0.00     0.845 C  
HETATM   14  C   UNL     1      -9.925  12.291  65.264  1.00  0.00    -0.250 C  
HETATM   15  C   UNL     1      -7.832  13.691  65.474  1.00  0.00     5.007 C  
HETATM   16  C   UNL     1      -5.159  12.035  66.808  1.00  0.00     0.026 C  
HETATM   17  C   UNL     1      -6.501  13.410  64.734  1.00  0.00    14.873 C  
HETATM   18  C   UNL     1      -6.247  11.244  66.043  1.00  0.00     0.052 C  
HETATM   19  C   UNL     1      -6.099  11.878  64.619  1.00  0.00     3.980 C  
BRANCH  14  20
HETATM   20  C   UNL     1     -10.870  13.372  65.363  1.00  0.00    -0.303 C  
HETATM   21  C   UNL     1     -11.888  15.528  65.939  1.00  0.00     0.449 C  
HETATM   22  C   UNL     1     -10.994  14.347  66.281  1.00  0.00    -0.318 C  
HETATM   23  C   UNL     1     -12.992  15.712  66.975  1.00  0.00     3.246 C  
HETATM   24  O   UNL     1     -13.931  14.637  66.919  1.00  0.00     4.058 OA 
HETATM   25  C   UNL     1     -12.401  15.827  68.375  1.00  0.00     0.552 C  
HETATM   26  H   UNL     1     -14.619  14.751  67.565  1.00  0.00     0.000 HD 
HETATM   27  C   UNL     1     -11.480  14.644  68.711  1.00  0.00    -0.296 C  
HETATM   28  C   UNL     1     -10.416  14.428  67.627  1.00  0.00    -0.245 C  
HETATM   29  O   UNL     1     -10.881  14.889  69.980  1.00  0.00    -0.354 OA 
HETATM   30  C   UNL     1      -9.106  14.379  67.890  1.00  0.00    -0.187 C  
HETATM   31  H   UNL     1     -10.311  14.157  70.187  1.00  0.00     0.000 HD 
ENDBRANCH  14  20
ENDBRANCH   5   6
ENDBRANCH   4   5
TORSDOF 3
ENDMDL
MODEL      163
REMARK 921   NORMALIZED FREE ENERGY PREDICTED BY IDOCK:   26.82 KCAL/MOL
REMARK 922        TOTAL FREE ENERGY PREDICTED BY IDOCK:   30.42 KCAL/MOL
REMARK 923 INTER-LIGAND FREE ENERGY PREDICTED BY IDOCK:   17.90 KCAL/MOL
REMARK 924 INTRA-LIGAND FREE ENERGY PREDICTED BY IDOCK:   12.52 KCAL/MOL
REMARK 927      BINDING AFFINITY PREDICTED BY RF-SCORE:    0.00 PKD
ROOT
HETATM    1  C   UNL     1     -12.325  11.469  69.636  1.00  0.00    -0.207 C  
HETATM    2  C   UNL     1     -11.459  11.911  68.457  1.00  0.00    -0.349 C  
HETATM    3  C   UNL     1     -11.999  11.300  67.157  1.00  0.00     0.507 C  
HETATM    4  C   UNL     1     -11.426  13.435  68.281  1.00  0.00    -0.350 C  
ENDROOT
BRANCH   4   5
HETATM    5  C   UNL     1     -10.819  14.240  69.431  1.00  0.00    -0.197 C  
BRANCH   5   6
HETATM    6  C   UNL     1     -10.649  13.291  70.636  1.00  0.00     2.929 C  
HETATM    7  C   UNL     1      -9.932  11.952  70.349  1.00  0.00     3.578 C  
HETATM    8  C   UNL     1      -8.569  12.268  69.707  1.00  0.00     2.247 C  
HETATM    9  C   UNL     1      -9.939  10.974  71.680  1.00  0.00     7.427 C  
HETATM   10  C   UNL     1     -11.385  10.556  71.950  1.00  0.00     1.716 C  
HETATM   11  C   UNL     1     -11.605   9.340  71.077  1.00  0.00    -0.380 C  
HETATM   12  C   UNL     1     -10.226   8.968  70.458  1.00  0.00    -0.268 C  
HETATM   13  C   UNL     1     -10.200   7.485  70.124  1.00  0.00    -0.206 C  
HETATM   14  C   UNL     1     -11.299   6.817  69.705  1.00  0.00    -0.326 C  
HETATM   15  C   UNL     1      -8.840   6.883  70.281  1.00  0.00    -0.148 C  
HETATM   16  C   UNL     1      -7.703   9.956  71.251  1.00  0.00     1.063 C  
HETATM   17  C   UNL     1      -8.266   7.218  71.680  1.00  0.00    -0.104 C  
HETATM   18  C   UNL     1      -9.188   9.580  71.477  1.00  0.00     0.517 C  
HETATM   19  C   UNL     1      -9.021   8.376  72.463  1.00  0.00    -0.308 C  
BRANCH  14  20
HETATM   20  C   UNL     1     -11.231   5.726  68.770  1.00  0.00     0.088 C  
HETATM   21  C   UNL     1     -10.474   3.708  67.598  1.00  0.00     1.667 C  
HETATM   22  C   UNL     1     -10.182   5.002  68.341  1.00  0.00    -0.143 C  
HETATM   23  C   UNL     1      -9.836   3.703  66.213  1.00  0.00     0.008 C  
HETATM   24  O   UNL     1     -10.468   4.655  65.355  1.00  0.00    -0.405 OA 
HETATM   25  C   UNL     1      -8.342   3.985  66.308  1.00  0.00    -0.105 C  
HETATM   26  H   UNL     1     -10.070   4.652  64.492  1.00  0.00     0.000 HD 
HETATM   27  C   UNL     1      -8.048   5.281  67.078  1.00  0.00    -0.104 C  
HETATM   28  C   UNL     1      -8.750   5.302  68.442  1.00  0.00    -0.099 C  
HETATM   29  O   UNL     1      -6.636   5.405  67.223  1.00  0.00    -0.050 OA 
HETATM   30  C   UNL     1      -8.102   5.515  69.593  1.00  0.00    -0.101 C  
HETATM   31  H   UNL     1      -6.454   6.207  67.699  1.00  0.00     0.000 HD 
ENDBRANCH  14  20
ENDBRANCH   5   6
ENDBRANCH   4   5
TORSDOF 3
ENDMDL
MODEL      164
REMARK 921   NORMALIZED FREE ENERGY PREDICTED BY IDOCK:   26.86 KCAL/MOL
REMARK 922        TOTAL FREE ENERGY PREDICTED BY IDOCK:   30.47 KCAL/MOL
REMARK 923 INTER-LIGAND FREE ENERGY PREDICTED BY IDOCK:   30.68 KCAL/MOL
REMARK 924 INTRA-LIGAND FREE ENERGY PREDICTED BY IDOCK:   -0.21 KCAL/MOL
REMARK 927      BINDING AFFINITY PREDICTED BY RF-SCORE:    0.00 PKD
ROOT
HETATM    1  C   UNL     1     -10.720  17.669  73.274  1.00  0.00     3.811 C  
HETATM    2  C   UNL     1     -11.155  19.131  73.168  1.00  0.00     4.122 C  
HETATM    3  C   UNL     1     -11.183  19.768  74.564  1.00  0.00     7.620 C  
HETATM    4  C   UNL     1     -10.217  19.969  72.289  1.00  0.00     3.613 C  
ENDROOT
BRANCH   4   5
HETATM    5  C   UNL     1     -10.125  19.566  70.816  1.00  0.00     1.604 C  
BRANCH   5   6
HETATM    6  C   UNL     1      -8.661  19.172  70.524  1.00  0.00     2.433 C  
HETATM    7  C   UNL     1      -8.428  18.326  69.250  1.00  0.00     0.243 C  
HETATM    8  C   UNL     1      -9.040  19.082  68.056  1.00  0.00    -0.350 C  
HETATM    9  C   UNL     1      -6.850  17.855  69.127  1.00  0.00    -0.219 C  
HETATM   10  C   UNL     1      -6.559  16.877  70.266  1.00  0.00     0.687 C  
HETATM   11  C   UNL     1      -6.986  15.526  69.733  1.00  0.00    -0.132 C  
HETATM   12  C   UNL     1      -7.343  15.721  68.230  1.00  0.00    -0.121 C  
HETATM   13  C   UNL     1      -7.155  14.408  67.487  1.00  0.00    -0.197 C  
HETATM   14  C   UNL     1      -7.403  13.209  68.061  1.00  0.00    -0.125 C  
HETATM   15  C   UNL     1      -6.708  14.606  66.074  1.00  0.00     5.630 C  
HETATM   16  C   UNL     1      -6.750  17.975  66.638  1.00  0.00    -0.236 C  
HETATM   17  C   UNL     1      -5.466  15.530  66.032  1.00  0.00     4.431 C  
HETATM   18  C   UNL     1      -6.518  17.002  67.819  1.00  0.00    -0.157 C  
HETATM   19  C   UNL     1      -5.174  16.337  67.369  1.00  0.00    -0.128 C  
BRANCH  14  20
HETATM   20  C   UNL     1      -7.908  12.085  67.318  1.00  0.00    -0.170 C  
HETATM   21  C   UNL     1      -8.986  10.748  65.567  1.00  0.00    -0.210 C  
HETATM   22  C   UNL     1      -8.902  12.006  66.416  1.00  0.00    -0.126 C  
HETATM   23  C   UNL     1     -10.341  10.063  65.715  1.00  0.00    -0.121 C  
HETATM   24  O   UNL     1     -10.497   9.515  67.026  1.00  0.00    -0.249 OA 
HETATM   25  C   UNL     1     -11.472  11.037  65.410  1.00  0.00     0.399 C  
HETATM   26  H   UNL     1     -11.341   9.089  67.118  1.00  0.00     0.000 HD 
HETATM   27  C   UNL     1     -11.373  12.318  66.253  1.00  0.00    -0.345 C  
HETATM   28  C   UNL     1      -9.984  12.960  66.148  1.00  0.00    -0.274 C  
HETATM   29  O   UNL     1     -12.391  13.216  65.823  1.00  0.00    -0.443 OA 
HETATM   30  C   UNL     1      -9.795  14.236  65.792  1.00  0.00    -0.314 C  
HETATM   31  H   UNL     1     -12.330  14.008  66.344  1.00  0.00     0.000 HD 
ENDBRANCH  14  20
ENDBRANCH   5   6
ENDBRANCH   4   5
TORSDOF 3
ENDMDL
MODEL      165
REMARK 921   NORMALIZED FREE ENERGY PREDICTED BY IDOCK:   41.35 KCAL/MOL
REMARK 922        TOTAL FREE ENERGY PREDICTED BY IDOCK:   47.50 KCAL/MOL
REMARK 923 INTER-LIGAND FREE ENERGY PREDICTED BY IDOCK:   45.30 KCAL/MOL
REMARK 924 INTRA-LIGAND FREE ENERGY PREDICTED BY IDOCK:    2.20 KCAL/MOL
REMARK 927      BINDING AFFINITY PREDICTED BY RF-SCORE:    0.00 PKD
ROOT
HETATM    1  C   UNL     1      -9.798  14.408  73.791  1.00  0.00     7.953 C  
HETATM    2  C   UNL     1     -10.934  14.264  72.780  1.00  0.00     2.831 C  
HETATM    3  C   UNL     1     -12.286  14.371  73.497  1.00  0.00    -0.065 C  
HETATM    4  C   UNL     1     -10.898  15.340  71.686  1.00  0.00     0.081 C  
ENDROOT
BRANCH   4   5
HETATM    5  C   UNL     1      -9.670  15.342  70.774  1.00  0.00     1.055 C  
BRANCH   5   6
HETATM    6  C   UNL     1     -10.039  14.585  69.480  1.00  0.00     0.071 C  
HETATM    7  C   UNL     1     -10.958  13.355  69.653  1.00  0.00     0.075 C  
HETATM    8  C   UNL     1     -12.225  13.806  70.403  1.00  0.00    -0.433 C  
HETATM    9  C   UNL     1     -11.163  12.556  68.222  1.00  0.00    -0.309 C  
HETATM   10  C   UNL     1      -9.818  11.947  67.825  1.00  0.00    -0.187 C  
HETATM   11  C   UNL     1      -9.772  10.614  68.541  1.00  0.00    -0.177 C  
HETATM   12  C   UNL     1     -11.170  10.397  69.191  1.00  0.00    -0.301 C  
HETATM   13  C   UNL     1     -11.431   8.908  69.355  1.00  0.00     0.409 C  
HETATM   14  C   UNL     1     -10.443   8.026  69.634  1.00  0.00    -0.224 C  
HETATM   15  C   UNL     1     -12.877   8.557  69.208  1.00  0.00     4.392 C  
HETATM   16  C   UNL     1     -13.520  11.867  68.658  1.00  0.00     5.535 C  
HETATM   17  C   UNL     1     -13.437   9.147  67.891  1.00  0.00    15.577 C  
HETATM   18  C   UNL     1     -12.128  11.287  68.308  1.00  0.00    -0.058 C  
HETATM   19  C   UNL     1     -12.530  10.255  67.202  1.00  0.00     5.563 C  
BRANCH  14  20
HETATM   20  C   UNL     1     -10.657   6.855  70.441  1.00  0.00    -0.247 C  
HETATM   21  C   UNL     1     -10.248   4.932  71.908  1.00  0.00    -0.267 C  
HETATM   22  C   UNL     1      -9.821   5.859  70.781  1.00  0.00    -0.229 C  
HETATM   23  C   UNL     1     -10.282   3.477  71.454  1.00  0.00     0.178 C  
HETATM   24  O   UNL     1     -11.335   3.260  70.512  1.00  0.00     4.557 OA 
HETATM   25  C   UNL     1      -8.942   3.070  70.853  1.00  0.00    -0.164 C  
HETATM   26  H   UNL     1     -11.356   2.353  70.229  1.00  0.00     0.000 HD 
HETATM   27  C   UNL     1      -8.501   4.020  69.729  1.00  0.00    -0.060 C  
HETATM   28  C   UNL     1      -8.536   5.486  70.179  1.00  0.00    -0.117 C  
HETATM   29  O   UNL     1      -7.195   3.640  69.308  1.00  0.00    -0.048 OA 
HETATM   30  C   UNL     1      -7.483   6.305  70.080  1.00  0.00    -0.094 C  
HETATM   31  H   UNL     1      -6.922   4.228  68.613  1.00  0.00     0.000 HD 
ENDBRANCH  14  20
ENDBRANCH   5   6
ENDBRANCH   4   5
TORSDOF 3
ENDMDL
MODEL      166
REMARK 921   NORMALIZED FREE ENERGY PREDICTED BY IDOCK:   43.85 KCAL/MOL
REMARK 922        TOTAL FREE ENERGY PREDICTED BY IDOCK:   50.44 KCAL/MOL
REMARK 923 INTER-LIGAND FREE ENERGY PREDICTED BY IDOCK:   48.61 KCAL/MOL
REMARK 924 INTRA-LIGAND FREE ENERGY PREDICTED BY IDOCK:    1.83 KCAL/MOL
REMARK 927      BINDING AFFINITY PREDICTED BY RF-SCORE:    0.00 PKD
ROOT
HETATM    1  C   UNL     1      -9.034   9.787  70.537  1.00  0.00    -0.052 C  
HETATM    2  C   UNL     1      -8.648   8.316  70.386  1.00  0.00    -0.134 C  
HETATM    3  C   UNL     1      -8.766   7.895  68.916  1.00  0.00    -0.135 C  
HETATM    4  C   UNL     1      -7.211   8.029  70.842  1.00  0.00    -0.053 C  
ENDROOT
BRANCH   4   5
HETATM    5  C   UNL     1      -6.903   8.280  72.319  1.00  0.00    -0.096 C  
BRANCH   5   6
HETATM    6  C   UNL     1      -6.297   9.695  72.443  1.00  0.00     0.584 C  
HETATM    7  C   UNL     1      -7.167  10.854  71.906  1.00  0.00     5.194 C  
HETATM    8  C   UNL     1      -8.539  10.784  72.602  1.00  0.00    12.654 C  
HETATM    9  C   UNL     1      -6.353  12.290  71.967  1.00  0.00     3.475 C  
HETATM   10  C   UNL     1      -5.195  12.218  70.971  1.00  0.00    -0.150 C  
HETATM   11  C   UNL     1      -5.799  12.637  69.648  1.00  0.00    -0.114 C  
HETATM   12  C   UNL     1      -7.249  13.120  69.941  1.00  0.00     0.800 C  
HETATM   13  C   UNL     1      -7.682  14.113  68.873  1.00  0.00    -0.091 C  
HETATM   14  C   UNL     1      -7.280  14.012  67.585  1.00  0.00    -0.190 C  
HETATM   15  C   UNL     1      -8.606  15.162  69.403  1.00  0.00    -0.172 C  
HETATM   16  C   UNL     1      -8.354  13.688  72.475  1.00  0.00    12.129 C  
HETATM   17  C   UNL     1      -7.992  15.827  70.661  1.00  0.00     2.087 C  
HETATM   18  C   UNL     1      -7.195  13.547  71.459  1.00  0.00     4.492 C  
HETATM   19  C   UNL     1      -6.772  15.047  71.313  1.00  0.00     0.982 C  
BRANCH  14  20
HETATM   20  C   UNL     1      -8.114  14.409  66.482  1.00  0.00     0.593 C  
HETATM   21  C   UNL     1     -10.071  14.707  65.032  1.00  0.00    -0.318 C  
HETATM   22  C   UNL     1      -9.252  13.873  66.005  1.00  0.00     0.045 C  
HETATM   23  C   UNL     1     -10.286  13.973  63.712  1.00  0.00     2.214 C  
HETATM   24  O   UNL     1      -9.059  13.844  62.992  1.00  0.00     6.121 OA 
HETATM   25  C   UNL     1     -10.904  12.602  63.955  1.00  0.00    -0.468 C  
HETATM   26  H   UNL     1      -9.193  13.388  62.170  1.00  0.00     0.000 HD 
HETATM   27  C   UNL     1     -10.088  11.769  64.955  1.00  0.00    -0.263 C  
HETATM   28  C   UNL     1      -9.821  12.544  66.252  1.00  0.00    -0.260 C  
HETATM   29  O   UNL     1     -10.795  10.560  65.212  1.00  0.00    -0.053 OA 
HETATM   30  C   UNL     1     -10.133  12.069  67.463  1.00  0.00    -0.205 C  
HETATM   31  H   UNL     1     -10.290  10.045  65.832  1.00  0.00     0.000 HD 
ENDBRANCH  14  20
ENDBRANCH   5   6
ENDBRANCH   4   5
TORSDOF 3
ENDMDL
MODEL      167
REMARK 921   NORMALIZED FREE ENERGY PREDICTED BY IDOCK:   45.92 KCAL/MOL
REMARK 922        TOTAL FREE ENERGY PREDICTED BY IDOCK:   52.87 KCAL/MOL
REMARK 923 INTER-LIGAND FREE ENERGY PREDICTED BY IDOCK:   53.38 KCAL/MOL
REMARK 924 INTRA-LIGAND FREE ENERGY PREDICTED BY IDOCK:   -0.52 KCAL/MOL
REMARK 927      BINDING AFFINITY PREDICTED BY RF-SCORE:    0.00 PKD
ROOT
HETATM    1  C   UNL     1     -11.926  16.246  63.289  1.00  0.00     3.751 C  
HETATM    2  C   UNL     1     -10.880  15.194  63.651  1.00  0.00     2.420 C  
HETATM    3  C   UNL     1     -11.320  13.820  63.130  1.00  0.00     1.262 C  
HETATM    4  C   UNL     1      -9.498  15.499  63.056  1.00  0.00    15.398 C  
ENDROOT
BRANCH   4   5
HETATM    5  C   UNL     1      -8.822  16.786  63.533  1.00  0.00    16.534 C  
BRANCH   5   6
HETATM    6  C   UNL     1      -9.715  17.415  64.624  1.00  0.00     3.834 C  
HETATM    7  C   UNL     1      -9.551  16.837  66.048  1.00  0.00    -0.265 C  
HETATM    8  C   UNL     1      -8.065  16.934  66.436  1.00  0.00    -0.350 C  
HETATM    9  C   UNL     1     -10.654  17.493  67.088  1.00  0.00    -0.264 C  
HETATM   10  C   UNL     1     -12.044  17.017  66.664  1.00  0.00     2.991 C  
HETATM   11  C   UNL     1     -12.219  15.679  67.350  1.00  0.00     0.919 C  
HETATM   12  C   UNL     1     -11.003  15.494  68.305  1.00  0.00    -0.305 C  
HETATM   13  C   UNL     1     -11.389  14.569  69.448  1.00  0.00    -0.314 C  
HETATM   14  C   UNL     1     -12.249  13.537  69.287  1.00  0.00    -0.257 C  
HETATM   15  C   UNL     1     -10.693  14.912  70.726  1.00  0.00     0.079 C  
HETATM   16  C   UNL     1      -9.155  17.481  69.081  1.00  0.00     0.069 C  
HETATM   17  C   UNL     1     -10.883  16.415  71.049  1.00  0.00     0.346 C  
HETATM   18  C   UNL     1     -10.533  16.972  68.593  1.00  0.00    -0.363 C  
HETATM   19  C   UNL     1     -11.410  17.307  69.845  1.00  0.00     1.181 C  
BRANCH  14  20
HETATM   20  C   UNL     1     -12.127  12.306  70.022  1.00  0.00    -0.346 C  
HETATM   21  C   UNL     1     -11.366  10.085  70.734  1.00  0.00    -0.439 C  
HETATM   22  C   UNL     1     -11.673  11.099  69.642  1.00  0.00    -0.410 C  
HETATM   23  C   UNL     1     -12.161   8.798  70.540  1.00  0.00     0.189 C  
HETATM   24  O   UNL     1     -13.556   9.019  70.760  1.00  0.00    -0.503 OA 
HETATM   25  C   UNL     1     -11.929   8.228  69.146  1.00  0.00     1.867 C  
HETATM   26  H   UNL     1     -14.051   8.217  70.640  1.00  0.00     0.000 HD 
HETATM   27  C   UNL     1     -12.218   9.260  68.045  1.00  0.00     4.467 C  
HETATM   28  C   UNL     1     -11.464  10.574  68.289  1.00  0.00    -0.272 C  
HETATM   29  O   UNL     1     -11.864   8.687  66.790  1.00  0.00     2.458 OA 
HETATM   30  C   UNL     1     -10.664  11.136  67.376  1.00  0.00    -0.294 C  
HETATM   31  H   UNL     1     -12.042   9.326  66.110  1.00  0.00     0.000 HD 
ENDBRANCH  14  20
ENDBRANCH   5   6
ENDBRANCH   4   5
TORSDOF 3
ENDMDL
MODEL      168
REMARK 921   NORMALIZED FREE ENERGY PREDICTED BY IDOCK:   46.43 KCAL/MOL
REMARK 922        TOTAL FREE ENERGY PREDICTED BY IDOCK:   53.47 KCAL/MOL
REMARK 923 INTER-LIGAND FREE ENERGY PREDICTED BY IDOCK:   54.56 KCAL/MOL
REMARK 924 INTRA-LIGAND FREE ENERGY PREDICTED BY IDOCK:   -1.08 KCAL/MOL
REMARK 927      BINDING AFFINITY PREDICTED BY RF-SCORE:    0.00 PKD
ROOT
HETATM    1  C   UNL     1     -11.332   5.691  64.251  1.00  0.00     4.779 C  
HETATM    2  C   UNL     1     -11.790   6.785  63.287  1.00  0.00    16.257 C  
HETATM    3  C   UNL     1     -13.075   7.438  63.812  1.00  0.00    20.343 C  
HETATM    4  C   UNL     1     -10.742   7.892  63.103  1.00  0.00    11.918 C  
ENDROOT
BRANCH   4   5
HETATM    5  C   UNL     1      -9.408   7.470  62.484  1.00  0.00     1.761 C  
BRANCH   5   6
HETATM    6  C   UNL     1      -8.280   7.929  63.432  1.00  0.00    -0.017 C  
HETATM    7  C   UNL     1      -7.885   6.933  64.546  1.00  0.00    -0.115 C  
HETATM    8  C   UNL     1      -7.529   5.590  63.883  1.00  0.00    -0.062 C  
HETATM    9  C   UNL     1      -6.772   7.595  65.571  1.00  0.00    -0.045 C  
HETATM   10  C   UNL     1      -7.451   8.735  66.332  1.00  0.00    -0.087 C  
HETATM   11  C   UNL     1      -8.116   8.066  67.515  1.00  0.00    -0.123 C  
HETATM   12  C   UNL     1      -7.655   6.579  67.517  1.00  0.00    -0.105 C  
HETATM   13  C   UNL     1      -7.724   6.025  68.932  1.00  0.00    -0.092 C  
HETATM   14  C   UNL     1      -8.674   6.410  69.815  1.00  0.00    -0.138 C  
HETATM   15  C   UNL     1      -6.662   5.008  69.204  1.00  0.00    -0.049 C  
HETATM   16  C   UNL     1      -5.543   5.470  66.009  1.00  0.00    -0.013 C  
HETATM   17  C   UNL     1      -5.272   5.573  68.822  1.00  0.00     0.000 C  
HETATM   18  C   UNL     1      -6.285   6.617  66.736  1.00  0.00    -0.040 C  
HETATM   19  C   UNL     1      -5.295   6.880  67.919  1.00  0.00    -0.015 C  
BRANCH  14  20
HETATM   20  C   UNL     1      -9.215   5.518  70.806  1.00  0.00    -0.179 C  
HETATM   21  C   UNL     1     -10.800   4.185  72.120  1.00  0.00     0.183 C  
HETATM   22  C   UNL     1     -10.450   5.437  71.332  1.00  0.00    -0.294 C  
HETATM   23  C   UNL     1     -11.243   4.524  73.539  1.00  0.00    -0.303 C  
HETATM   24  O   UNL     1     -10.151   5.031  74.310  1.00  0.00    -0.187 OA 
HETATM   25  C   UNL     1     -12.389   5.528  73.519  1.00  0.00     1.873 C  
HETATM   26  H   UNL     1     -10.427   5.242  75.194  1.00  0.00     0.000 HD 
HETATM   27  C   UNL     1     -12.041   6.783  72.704  1.00  0.00     0.137 C  
HETATM   28  C   UNL     1     -11.533   6.426  71.302  1.00  0.00    -0.371 C  
HETATM   29  O   UNL     1     -13.200   7.609  72.638  1.00  0.00    -0.349 OA 
HETATM   30  C   UNL     1     -12.069   6.925  70.183  1.00  0.00    -0.111 C  
HETATM   31  H   UNL     1     -12.985   8.385  72.134  1.00  0.00     0.000 HD 
ENDBRANCH  14  20
ENDBRANCH   5   6
ENDBRANCH   4   5
TORSDOF 3
ENDMDL
MODEL      169
REMARK 921   NORMALIZED FREE ENERGY PREDICTED BY IDOCK:   55.22 KCAL/MOL
REMARK 922        TOTAL FREE ENERGY PREDICTED BY IDOCK:   63.79 KCAL/MOL
REMARK 923 INTER-LIGAND FREE ENERGY PREDICTED BY IDOCK:   57.19 KCAL/MOL
REMARK 924 INTRA-LIGAND FREE ENERGY PREDICTED BY IDOCK:    6.60 KCAL/MOL
REMARK 927      BINDING AFFINITY PREDICTED BY RF-SCORE:    0.00 PKD
ROOT
HETATM    1  C   UNL     1     -12.089  13.353  67.826  1.00  0.00    -0.299 C  
HETATM    2  C   UNL     1     -12.939  13.913  66.685  1.00  0.00     0.658 C  
HETATM    3  C   UNL     1     -12.766  15.435  66.606  1.00  0.00     1.821 C  
HETATM    4  C   UNL     1     -12.561  13.326  65.318  1.00  0.00    -0.528 C  
ENDROOT
BRANCH   4   5
HETATM    5  C   UNL     1     -12.762  11.819  65.145  1.00  0.00     1.268 C  
BRANCH   5   6
HETATM    6  C   UNL     1     -13.152  11.233  66.519  1.00  0.00     7.288 C  
HETATM    7  C   UNL     1     -12.122  10.278  67.165  1.00  0.00     3.087 C  
HETATM    8  C   UNL     1     -10.774  11.017  67.250  1.00  0.00    -0.312 C  
HETATM    9  C   UNL     1     -12.715   9.613  68.556  1.00  0.00     4.722 C  
HETATM   10  C   UNL     1     -13.874   8.689  68.179  1.00  0.00    19.503 C  
HETATM   11  C   UNL     1     -13.219   7.366  67.846  1.00  0.00    13.624 C  
HETATM   12  C   UNL     1     -11.712   7.497  68.214  1.00  0.00     1.470 C  
HETATM   13  C   UNL     1     -11.141   6.122  68.525  1.00  0.00    -0.352 C  
HETATM   14  C   UNL     1     -11.557   5.004  67.886  1.00  0.00     3.807 C  
HETATM   15  C   UNL     1     -10.071   6.166  69.568  1.00  0.00    -0.232 C  
HETATM   16  C   UNL     1     -10.528   9.547  69.751  1.00  0.00    -0.253 C  
HETATM   17  C   UNL     1     -10.575   6.928  70.818  1.00  0.00    -0.245 C  
HETATM   18  C   UNL     1     -11.698   8.637  69.305  1.00  0.00     1.005 C  
HETATM   19  C   UNL     1     -11.896   7.785  70.603  1.00  0.00    -0.142 C  
BRANCH  14  20
HETATM   20  C   UNL     1     -10.677   3.901  67.606  1.00  0.00     2.183 C  
HETATM   21  C   UNL     1      -8.746   2.390  67.670  1.00  0.00    -0.139 C  
HETATM   22  C   UNL     1      -9.344   3.785  67.744  1.00  0.00    -0.237 C  
HETATM   23  C   UNL     1      -7.690   2.291  66.574  1.00  0.00    -0.071 C  
HETATM   24  O   UNL     1      -8.285   2.399  65.279  1.00  0.00    -0.082 OA 
HETATM   25  C   UNL     1      -6.624   3.364  66.758  1.00  0.00    -0.041 C  
HETATM   26  H   UNL     1      -7.628   2.338  64.596  1.00  0.00     0.000 HD 
HETATM   27  C   UNL     1      -7.231   4.772  66.854  1.00  0.00    -0.077 C  
HETATM   28  C   UNL     1      -8.338   4.839  67.914  1.00  0.00    -0.103 C  
HETATM   29  O   UNL     1      -6.184   5.692  67.142  1.00  0.00    -0.032 OA 
HETATM   30  C   UNL     1      -8.340   5.731  68.911  1.00  0.00    -0.101 C  
HETATM   31  H   UNL     1      -6.560   6.563  67.202  1.00  0.00     0.000 HD 
ENDBRANCH  14  20
ENDBRANCH   5   6
ENDBRANCH   4   5
TORSDOF 3
ENDMDL
MODEL      170
REMARK 921   NORMALIZED FREE ENERGY PREDICTED BY IDOCK:   59.89 KCAL/MOL
REMARK 922        TOTAL FREE ENERGY PREDICTED BY IDOCK:   69.29 KCAL/MOL
REMARK 923 INTER-LIGAND FREE ENERGY PREDICTED BY IDOCK:   69.00 KCAL/MOL
REMARK 924 INTRA-LIGAND FREE ENERGY PREDICTED BY IDOCK:    0.29 KCAL/MOL
REMARK 927      BINDING AFFINITY PREDICTED BY RF-SCORE:    0.00 PKD
ROOT
HETATM    1  C   UNL     1      -7.528  15.070  66.024  1.00  0.00     3.148 C  
HETATM    2  C   UNL     1      -7.021  14.269  64.826  1.00  0.00    16.879 C  
HETATM    3  C   UNL     1      -8.044  13.188  64.453  1.00  0.00     7.388 C  
HETATM    4  C   UNL     1      -6.786  15.140  63.584  1.00  0.00    24.831 C  
ENDROOT
BRANCH   4   5
HETATM    5  C   UNL     1      -5.714  16.224  63.707  1.00  0.00    12.495 C  
BRANCH   5   6
HETATM    6  C   UNL     1      -6.395  17.505  64.238  1.00  0.00     4.287 C  
HETATM    7  C   UNL     1      -6.730  17.517  65.748  1.00  0.00    -0.073 C  
HETATM    8  C   UNL     1      -5.435  17.222  66.527  1.00  0.00    -0.216 C  
HETATM    9  C   UNL     1      -7.575  18.874  66.160  1.00  0.00    -0.286 C  
HETATM   10  C   UNL     1      -8.947  18.798  65.487  1.00  0.00     1.040 C  
HETATM   11  C   UNL     1      -9.801  17.996  66.445  1.00  0.00    -0.340 C  
HETATM   12  C   UNL     1      -8.960  17.782  67.738  1.00  0.00    -0.249 C  
HETATM   13  C   UNL     1      -9.889  17.585  68.925  1.00  0.00    -0.289 C  
HETATM   14  C   UNL     1     -11.080  16.952  68.815  1.00  0.00    -0.160 C  
HETATM   15  C   UNL     1      -9.323  18.131  70.196  1.00  0.00     2.027 C  
HETATM   16  C   UNL     1      -6.569  19.114  68.429  1.00  0.00    -0.279 C  
HETATM   17  C   UNL     1      -8.875  19.599  69.993  1.00  0.00     0.984 C  
HETATM   18  C   UNL     1      -7.934  18.981  67.712  1.00  0.00    -0.292 C  
HETATM   19  C   UNL     1      -8.756  20.069  68.480  1.00  0.00    -0.073 C  
BRANCH  14  20
HETATM   20  C   UNL     1     -11.633  16.155  69.877  1.00  0.00    -0.244 C  
HETATM   21  C   UNL     1     -11.975  14.334  71.486  1.00  0.00    -0.228 C  
HETATM   22  C   UNL     1     -11.562  14.832  70.110  1.00  0.00    -0.338 C  
HETATM   23  C   UNL     1     -13.092  13.300  71.393  1.00  0.00    -0.277 C  
HETATM   24  O   UNL     1     -14.309  13.899  70.946  1.00  0.00     0.247 OA 
HETATM   25  C   UNL     1     -12.691  12.159  70.467  1.00  0.00    -0.071 C  
HETATM   26  H   UNL     1     -15.005  13.255  70.888  1.00  0.00     0.000 HD 
HETATM   27  C   UNL     1     -12.253  12.665  69.084  1.00  0.00    -0.009 C  
HETATM   28  C   UNL     1     -11.177  13.753  69.194  1.00  0.00    -0.307 C  
HETATM   29  O   UNL     1     -11.786  11.552  68.327  1.00  0.00    -0.385 OA 
HETATM   30  C   UNL     1     -10.000  13.682  68.562  1.00  0.00    -0.208 C  
HETATM   31  H   UNL     1     -11.514  11.865  67.472  1.00  0.00     0.000 HD 
ENDBRANCH  14  20
ENDBRANCH   5   6
ENDBRANCH   4   5
TORSDOF 3
ENDMDL
