MODEL        1
REMARK 921   NORMALIZED FREE ENERGY PREDICTED BY IDOCK:   -6.85 KCAL/MOL
REMARK 922        TOTAL FREE ENERGY PREDICTED BY IDOCK:  -11.60 KCAL/MOL
REMARK 923 INTER-LIGAND FREE ENERGY PREDICTED BY IDOCK:  -10.06 KCAL/MOL
REMARK 924 INTRA-LIGAND FREE ENERGY PREDICTED BY IDOCK:   -1.54 KCAL/MOL
REMARK 927      BINDING AFFINITY PREDICTED BY RF-SCORE:    0.00 PKD
ROOT
HETATM    1  C   UNL     1     -13.339   9.658  71.823  1.00  0.00    -0.419 C  
HETATM    2  O   UNL     1     -12.032  10.199  71.633  1.00  0.00    -0.361 OA 
ENDROOT
BRANCH   2   3
HETATM    3  C   UNL     1     -11.564  10.161  70.345  1.00  0.00    -0.316 A  
HETATM    4  C   UNL     1     -11.788  11.230  69.458  1.00  0.00    -0.427 A  
HETATM    5  C   UNL     1     -11.434  11.179  68.119  1.00  0.00    -0.303 A  
HETATM    6  C   UNL     1     -10.778  10.048  67.654  1.00  0.00    -0.340 A  
HETATM    7  C   UNL     1     -10.438   9.013  68.558  1.00  0.00    -0.232 A  
HETATM    8  C   UNL     1     -10.523  10.050  66.284  1.00  0.00    -0.102 A  
HETATM    9  N   UNL     1      -9.815   9.013  65.666  1.00  0.00    -0.465 NA 
HETATM   10  N   UNL     1     -10.910  11.039  65.468  1.00  0.00    -0.148 NA 
HETATM   11  C   UNL     1     -10.836   9.053  69.900  1.00  0.00    -0.218 A  
HETATM   12  N   UNL     1     -11.763  12.202  67.328  1.00  0.00    -0.521 NA 
HETATM   13  H2  UNL     1     -10.282   8.136  65.896  1.00  0.00     0.000 HD 
HETATM   14  C   UNL     1     -11.522  12.098  66.014  1.00  0.00    -0.370 A  
HETATM   15  H1  UNL     1      -9.628   9.015  64.664  1.00  0.00     0.000 HD 
BRANCH  11  16
HETATM   16  O   UNL     1     -10.445   7.937  70.585  1.00  0.00    -0.209 OA 
HETATM   17  C   UNL     1     -11.273   6.784  70.573  1.00  0.00    -0.320 C  
ENDBRANCH  11  16
BRANCH  14  18
HETATM   18  N   UNL     1     -11.887  13.136  65.192  1.00  0.00    -0.340 NA 
HETATM   19  C   UNL     1     -12.178  12.870  63.800  1.00  0.00    -0.476 C  
BRANCH  18  20
HETATM   20  C   UNL     1     -12.151  14.454  65.746  1.00  0.00    -0.355 C  
BRANCH  20  21
HETATM   21  C   UNL     1     -10.857  15.253  65.947  1.00  0.00    -0.345 C  
BRANCH  21  22
HETATM   22  C   UNL     1     -10.766  15.879  67.339  1.00  0.00    -0.313 C  
BRANCH  22  23
HETATM   23  N   UNL     1     -11.679  15.259  68.276  1.00  0.00    -0.430 N  
HETATM   24  C   UNL     1     -11.783  15.664  69.586  1.00  0.00    -0.361 C  
HETATM   25  H   UNL     1     -12.267  14.491  67.952  1.00  0.00     0.000 HD 
HETATM   26  O   UNL     1     -11.099  16.560  70.071  1.00  0.00    -0.345 OA 
BRANCH  24  27
HETATM   27  C   UNL     1     -12.832  14.898  70.403  1.00  0.00    -0.280 C  
HETATM   28  C   UNL     1     -12.170  14.202  71.578  1.00  0.00    -0.340 C  
HETATM   29  C   UNL     1     -13.329  13.980  72.512  1.00  0.00    -0.639 C  
HETATM   30  C   UNL     1     -14.184  15.208  72.276  1.00  0.00    -0.517 C  
HETATM   31  O   UNL     1     -13.876  15.708  70.965  1.00  0.00    -0.567 OA 
ENDBRANCH  24  27
ENDBRANCH  22  23
ENDBRANCH  21  22
ENDBRANCH  20  21
ENDBRANCH  18  20
ENDBRANCH  14  18
ENDBRANCH   2   3
TORSDOF 8
ENDMDL
MODEL        2
REMARK 921   NORMALIZED FREE ENERGY PREDICTED BY IDOCK:   -6.84 KCAL/MOL
REMARK 922        TOTAL FREE ENERGY PREDICTED BY IDOCK:  -11.57 KCAL/MOL
REMARK 923 INTER-LIGAND FREE ENERGY PREDICTED BY IDOCK:   -9.87 KCAL/MOL
REMARK 924 INTRA-LIGAND FREE ENERGY PREDICTED BY IDOCK:   -1.70 KCAL/MOL
REMARK 927      BINDING AFFINITY PREDICTED BY RF-SCORE:    0.00 PKD
ROOT
HETATM    1  C   UNL     1     -11.211  15.498  70.301  1.00  0.00    -0.326 C  
HETATM    2  O   UNL     1     -12.380  14.768  69.930  1.00  0.00    -0.315 OA 
ENDROOT
BRANCH   2   3
HETATM    3  C   UNL     1     -12.518  13.541  70.526  1.00  0.00    -0.302 A  
HETATM    4  C   UNL     1     -11.766  12.434  70.092  1.00  0.00    -0.266 A  
HETATM    5  C   UNL     1     -11.962  11.155  70.589  1.00  0.00    -0.360 A  
HETATM    6  C   UNL     1     -12.896  10.977  71.599  1.00  0.00    -0.540 A  
HETATM    7  C   UNL     1     -13.577  12.098  72.131  1.00  0.00    -0.285 A  
HETATM    8  C   UNL     1     -13.079   9.652  71.990  1.00  0.00    -0.445 A  
HETATM    9  N   UNL     1     -13.940   9.306  73.038  1.00  0.00    -1.043 NA 
HETATM   10  N   UNL     1     -12.439   8.624  71.418  1.00  0.00    -0.311 NA 
HETATM   11  C   UNL     1     -13.405  13.380  71.595  1.00  0.00    -0.338 A  
HETATM   12  N   UNL     1     -11.267  10.146  70.059  1.00  0.00    -0.279 NA 
HETATM   13  H2  UNL     1     -14.858   9.701  72.831  1.00  0.00     0.000 HD 
HETATM   14  C   UNL     1     -11.542   8.899  70.462  1.00  0.00    -0.160 A  
HETATM   15  H1  UNL     1     -14.073   8.336  73.324  1.00  0.00     0.000 HD 
BRANCH  11  16
HETATM   16  O   UNL     1     -14.187  14.309  72.223  1.00  0.00    -0.502 OA 
HETATM   17  C   UNL     1     -13.573  15.364  72.947  1.00  0.00    -0.514 C  
ENDBRANCH  11  16
BRANCH  14  18
HETATM   18  N   UNL     1     -10.851   7.855  69.896  1.00  0.00    -0.244 NA 
HETATM   19  C   UNL     1     -11.446   6.536  69.880  1.00  0.00    -0.403 C  
BRANCH  18  20
HETATM   20  C   UNL     1      -9.618   8.100  69.166  1.00  0.00    -0.157 C  
BRANCH  20  21
HETATM   21  C   UNL     1      -9.566   7.301  67.857  1.00  0.00    -0.153 C  
BRANCH  21  22
HETATM   22  C   UNL     1     -10.015   8.125  66.650  1.00  0.00    -0.269 C  
BRANCH  22  23
HETATM   23  N   UNL     1     -10.504   9.433  67.035  1.00  0.00    -0.248 N  
HETATM   24  C   UNL     1     -10.475  10.513  66.185  1.00  0.00    -0.168 C  
HETATM   25  H   UNL     1     -10.884   9.557  67.973  1.00  0.00     0.000 HD 
HETATM   26  O   UNL     1     -10.013  10.464  65.049  1.00  0.00    -0.294 OA 
BRANCH  24  27
HETATM   27  C   UNL     1     -11.070  11.799  66.775  1.00  0.00    -0.306 C  
HETATM   28  C   UNL     1     -10.064  12.931  66.678  1.00  0.00    -0.247 C  
HETATM   29  C   UNL     1     -10.942  14.148  66.781  1.00  0.00    -0.300 C  
HETATM   30  C   UNL     1     -12.203  13.707  66.067  1.00  0.00    -0.449 C  
HETATM   31  O   UNL     1     -12.259  12.273  66.123  1.00  0.00    -0.647 OA 
ENDBRANCH  24  27
ENDBRANCH  22  23
ENDBRANCH  21  22
ENDBRANCH  20  21
ENDBRANCH  18  20
ENDBRANCH  14  18
ENDBRANCH   2   3
TORSDOF 8
ENDMDL
MODEL        3
REMARK 921   NORMALIZED FREE ENERGY PREDICTED BY IDOCK:   -6.83 KCAL/MOL
REMARK 922        TOTAL FREE ENERGY PREDICTED BY IDOCK:  -11.56 KCAL/MOL
REMARK 923 INTER-LIGAND FREE ENERGY PREDICTED BY IDOCK:  -10.20 KCAL/MOL
REMARK 924 INTRA-LIGAND FREE ENERGY PREDICTED BY IDOCK:   -1.36 KCAL/MOL
REMARK 927      BINDING AFFINITY PREDICTED BY RF-SCORE:    0.00 PKD
ROOT
HETATM    1  C   UNL     1      -6.617  17.370  69.094  1.00  0.00    -0.246 C  
HETATM    2  O   UNL     1      -7.932  17.925  69.088  1.00  0.00    -0.119 OA 
ENDROOT
BRANCH   2   3
HETATM    3  C   UNL     1      -8.766  17.445  68.111  1.00  0.00    -0.256 A  
HETATM    4  C   UNL     1      -9.172  16.099  68.099  1.00  0.00    -0.193 A  
HETATM    5  C   UNL     1      -9.917  15.549  67.067  1.00  0.00    -0.239 A  
HETATM    6  C   UNL     1     -10.326  16.382  66.036  1.00  0.00    -0.365 A  
HETATM    7  C   UNL     1     -10.028  17.765  66.090  1.00  0.00    -0.283 A  
HETATM    8  C   UNL     1     -11.008  15.735  65.007  1.00  0.00    -0.417 A  
HETATM    9  N   UNL     1     -11.542  16.439  63.922  1.00  0.00    -1.602 NA 
HETATM   10  N   UNL     1     -11.221  14.413  64.987  1.00  0.00    -0.355 NA 
HETATM   11  C   UNL     1      -9.240  18.304  67.114  1.00  0.00    -0.264 A  
HETATM   12  N   UNL     1     -10.184  14.242  67.092  1.00  0.00    -0.253 NA 
HETATM   13  H2  UNL     1     -10.790  16.986  63.503  1.00  0.00     0.000 HD 
HETATM   14  C   UNL     1     -10.804  13.696  66.038  1.00  0.00    -0.275 A  
HETATM   15  H1  UNL     1     -12.041  15.965  63.170  1.00  0.00     0.000 HD 
BRANCH  11  16
HETATM   16  O   UNL     1      -9.036  19.646  66.953  1.00  0.00    -0.312 OA 
HETATM   17  C   UNL     1     -10.007  20.562  67.434  1.00  0.00    -0.385 C  
ENDBRANCH  11  16
BRANCH  14  18
HETATM   18  N   UNL     1     -11.052  12.344  66.046  1.00  0.00    -0.295 NA 
HETATM   19  C   UNL     1     -10.346  11.488  65.119  1.00  0.00    -0.278 C  
BRANCH  18  20
HETATM   20  C   UNL     1     -11.880  11.756  67.086  1.00  0.00    -0.077 C  
BRANCH  20  21
HETATM   21  C   UNL     1     -11.135  10.647  67.842  1.00  0.00    -0.371 C  
BRANCH  21  22
HETATM   22  C   UNL     1     -10.702  11.083  69.242  1.00  0.00    -0.222 C  
BRANCH  22  23
HETATM   23  N   UNL     1     -11.239  12.379  69.600  1.00  0.00    -0.484 N  
HETATM   24  C   UNL     1     -12.235  12.534  70.535  1.00  0.00    -0.297 C  
HETATM   25  H   UNL     1     -10.864  13.208  69.141  1.00  0.00     0.000 HD 
HETATM   26  O   UNL     1     -12.765  11.594  71.119  1.00  0.00    -0.381 OA 
BRANCH  24  27
HETATM   27  C   UNL     1     -12.639  13.992  70.792  1.00  0.00    -0.360 C  
HETATM   28  C   UNL     1     -13.837  14.045  71.722  1.00  0.00    -0.476 C  
HETATM   29  C   UNL     1     -13.756  15.445  72.267  1.00  0.00    -0.629 C  
HETATM   30  C   UNL     1     -12.262  15.681  72.353  1.00  0.00    -0.443 C  
HETATM   31  O   UNL     1     -11.627  14.804  71.409  1.00  0.00    -0.325 OA 
ENDBRANCH  24  27
ENDBRANCH  22  23
ENDBRANCH  21  22
ENDBRANCH  20  21
ENDBRANCH  18  20
ENDBRANCH  14  18
ENDBRANCH   2   3
TORSDOF 8
ENDMDL
MODEL        4
REMARK 921   NORMALIZED FREE ENERGY PREDICTED BY IDOCK:   -6.82 KCAL/MOL
REMARK 922        TOTAL FREE ENERGY PREDICTED BY IDOCK:  -11.54 KCAL/MOL
REMARK 923 INTER-LIGAND FREE ENERGY PREDICTED BY IDOCK:  -10.37 KCAL/MOL
REMARK 924 INTRA-LIGAND FREE ENERGY PREDICTED BY IDOCK:   -1.17 KCAL/MOL
REMARK 927      BINDING AFFINITY PREDICTED BY RF-SCORE:    0.00 PKD
ROOT
HETATM    1  C   UNL     1     -12.571   8.918  72.337  1.00  0.00    -0.353 C  
HETATM    2  O   UNL     1     -13.400  10.060  72.123  1.00  0.00    -0.444 OA 
ENDROOT
BRANCH   2   3
HETATM    3  C   UNL     1     -12.905  10.985  71.239  1.00  0.00    -0.425 A  
HETATM    4  C   UNL     1     -12.515  10.613  69.940  1.00  0.00    -0.241 A  
HETATM    5  C   UNL     1     -11.904  11.492  69.061  1.00  0.00    -0.343 A  
HETATM    6  C   UNL     1     -11.727  12.808  69.463  1.00  0.00    -0.383 A  
HETATM    7  C   UNL     1     -12.221  13.230  70.721  1.00  0.00    -0.390 A  
HETATM    8  C   UNL     1     -11.042  13.606  68.548  1.00  0.00    -0.275 A  
HETATM    9  N   UNL     1     -10.835  14.971  68.772  1.00  0.00    -0.240 NA 
HETATM   10  N   UNL     1     -10.556  13.140  67.390  1.00  0.00    -0.241 NA 
HETATM   11  C   UNL     1     -12.799  12.327  71.620  1.00  0.00    -0.273 A  
HETATM   12  N   UNL     1     -11.485  11.033  67.879  1.00  0.00    -0.477 NA 
HETATM   13  H2  UNL     1     -10.378  15.073  69.678  1.00  0.00     0.000 HD 
HETATM   14  C   UNL     1     -10.794  11.858  67.082  1.00  0.00    -0.255 A  
HETATM   15  H1  UNL     1     -10.334  15.554  68.102  1.00  0.00     0.000 HD 
BRANCH  11  16
HETATM   16  O   UNL     1     -13.166  12.930  72.791  1.00  0.00    -0.347 OA 
HETATM   17  C   UNL     1     -13.154  14.346  72.880  1.00  0.00    -0.517 C  
ENDBRANCH  11  16
BRANCH  14  18
HETATM   18  N   UNL     1     -10.334  11.380  65.878  1.00  0.00    -0.243 NA 
HETATM   19  C   UNL     1     -10.157   9.955  65.702  1.00  0.00    -0.237 C  
BRANCH  18  20
HETATM   20  C   UNL     1     -10.194  12.272  64.739  1.00  0.00    -0.282 C  
BRANCH  20  21
HETATM   21  C   UNL     1     -11.538  12.507  64.037  1.00  0.00    -0.485 C  
BRANCH  21  22
HETATM   22  C   UNL     1     -12.044  13.940  64.208  1.00  0.00    -0.440 C  
BRANCH  22  23
HETATM   23  N   UNL     1     -11.218  14.704  65.119  1.00  0.00    -0.355 N  
HETATM   24  C   UNL     1     -10.914  16.028  64.909  1.00  0.00    -0.384 C  
HETATM   25  H   UNL     1     -10.848  14.242  65.950  1.00  0.00     0.000 HD 
HETATM   26  O   UNL     1     -11.292  16.659  63.926  1.00  0.00    -1.104 OA 
BRANCH  24  27
HETATM   27  C   UNL     1     -10.052  16.662  66.009  1.00  0.00    -0.340 C  
HETATM   28  C   UNL     1      -8.777  15.862  66.199  1.00  0.00    -0.328 C  
HETATM   29  C   UNL     1      -7.870  16.860  66.866  1.00  0.00    -0.252 C  
HETATM   30  C   UNL     1      -8.286  18.167  66.222  1.00  0.00    -0.212 C  
HETATM   31  O   UNL     1      -9.634  18.012  65.751  1.00  0.00    -0.505 OA 
ENDBRANCH  24  27
ENDBRANCH  22  23
ENDBRANCH  21  22
ENDBRANCH  20  21
ENDBRANCH  18  20
ENDBRANCH  14  18
ENDBRANCH   2   3
TORSDOF 8
ENDMDL
MODEL        5
REMARK 921   NORMALIZED FREE ENERGY PREDICTED BY IDOCK:   -6.56 KCAL/MOL
REMARK 922        TOTAL FREE ENERGY PREDICTED BY IDOCK:  -11.17 KCAL/MOL
REMARK 923 INTER-LIGAND FREE ENERGY PREDICTED BY IDOCK:   -9.93 KCAL/MOL
REMARK 924 INTRA-LIGAND FREE ENERGY PREDICTED BY IDOCK:   -1.24 KCAL/MOL
REMARK 927      BINDING AFFINITY PREDICTED BY RF-SCORE:    0.00 PKD
ROOT
HETATM    1  C   UNL     1     -14.359   8.146  71.546  1.00  0.00    -0.430 C  
HETATM    2  O   UNL     1     -13.438   9.040  72.172  1.00  0.00    -0.394 OA 
ENDROOT
BRANCH   2   3
HETATM    3  C   UNL     1     -12.435   9.508  71.363  1.00  0.00    -0.362 A  
HETATM    4  C   UNL     1     -12.709  10.388  70.301  1.00  0.00    -0.221 A  
HETATM    5  C   UNL     1     -11.742  10.789  69.392  1.00  0.00    -0.306 A  
HETATM    6  C   UNL     1     -10.440  10.349  69.579  1.00  0.00    -0.274 A  
HETATM    7  C   UNL     1     -10.122   9.559  70.711  1.00  0.00    -0.352 A  
HETATM    8  C   UNL     1      -9.548  10.741  68.583  1.00  0.00    -0.187 A  
HETATM    9  N   UNL     1      -8.185  10.433  68.652  1.00  0.00    -0.114 NA 
HETATM   10  N   UNL     1      -9.916  11.451  67.508  1.00  0.00    -0.181 NA 
HETATM   11  C   UNL     1     -11.111   9.123  71.600  1.00  0.00    -0.375 A  
HETATM   12  N   UNL     1     -12.106  11.556  68.362  1.00  0.00    -0.560 NA 
HETATM   13  H2  UNL     1      -8.099   9.423  68.769  1.00  0.00     0.000 HD 
HETATM   14  C   UNL     1     -11.193  11.846  67.426  1.00  0.00    -0.305 A  
HETATM   15  H1  UNL     1      -7.533  10.720  67.923  1.00  0.00     0.000 HD 
BRANCH  11  16
HETATM   16  O   UNL     1     -10.599   8.337  72.594  1.00  0.00    -0.332 OA 
HETATM   17  C   UNL     1     -10.742   6.928  72.513  1.00  0.00    -0.232 C  
ENDBRANCH  11  16
BRANCH  14  18
HETATM   18  N   UNL     1     -11.573  12.608  66.348  1.00  0.00    -0.363 NA 
HETATM   19  C   UNL     1     -11.547  12.027  65.024  1.00  0.00    -0.263 C  
BRANCH  18  20
HETATM   20  C   UNL     1     -12.159  13.923  66.549  1.00  0.00    -0.449 C  
BRANCH  20  21
HETATM   21  C   UNL     1     -11.147  15.043  66.270  1.00  0.00    -0.334 C  
BRANCH  21  22
HETATM   22  C   UNL     1     -10.981  15.990  67.459  1.00  0.00    -0.261 C  
BRANCH  22  23
HETATM   23  N   UNL     1     -11.952  15.731  68.501  1.00  0.00    -0.488 N  
HETATM   24  C   UNL     1     -11.589  15.442  69.796  1.00  0.00    -0.323 C  
HETATM   25  H   UNL     1     -12.944  15.764  68.267  1.00  0.00     0.000 HD 
HETATM   26  O   UNL     1     -10.422  15.354  70.165  1.00  0.00    -0.297 OA 
BRANCH  24  27
HETATM   27  C   UNL     1     -12.771  15.232  70.752  1.00  0.00    -0.433 C  
HETATM   28  C   UNL     1     -12.784  13.802  71.259  1.00  0.00    -0.450 C  
HETATM   29  C   UNL     1     -13.607  13.916  72.514  1.00  0.00    -0.680 C  
HETATM   30  C   UNL     1     -13.224  15.285  73.037  1.00  0.00    -0.510 C  
HETATM   31  O   UNL     1     -12.759  16.064  71.924  1.00  0.00    -0.453 OA 
ENDBRANCH  24  27
ENDBRANCH  22  23
ENDBRANCH  21  22
ENDBRANCH  20  21
ENDBRANCH  18  20
ENDBRANCH  14  18
ENDBRANCH   2   3
TORSDOF 8
ENDMDL
MODEL        6
REMARK 921   NORMALIZED FREE ENERGY PREDICTED BY IDOCK:   -6.49 KCAL/MOL
REMARK 922        TOTAL FREE ENERGY PREDICTED BY IDOCK:  -11.06 KCAL/MOL
REMARK 923 INTER-LIGAND FREE ENERGY PREDICTED BY IDOCK:   -9.56 KCAL/MOL
REMARK 924 INTRA-LIGAND FREE ENERGY PREDICTED BY IDOCK:   -1.51 KCAL/MOL
REMARK 927      BINDING AFFINITY PREDICTED BY RF-SCORE:    0.00 PKD
ROOT
HETATM    1  C   UNL     1     -12.773  13.484  70.891  1.00  0.00    -0.291 C  
HETATM    2  O   UNL     1     -12.616  12.080  71.095  1.00  0.00    -0.367 OA 
ENDROOT
BRANCH   2   3
HETATM    3  C   UNL     1     -11.895  11.425  70.130  1.00  0.00    -0.355 A  
HETATM    4  C   UNL     1     -11.772  11.951  68.832  1.00  0.00    -0.381 A  
HETATM    5  C   UNL     1     -11.153  11.263  67.800  1.00  0.00    -0.271 A  
HETATM    6  C   UNL     1     -10.579  10.032  68.081  1.00  0.00    -0.268 A  
HETATM    7  C   UNL     1     -10.588   9.540  69.409  1.00  0.00    -0.235 A  
HETATM    8  C   UNL     1     -10.040   9.378  66.974  1.00  0.00    -0.240 A  
HETATM    9  N   UNL     1      -9.371   8.156  67.095  1.00  0.00    -0.139 NA 
HETATM   10  N   UNL     1     -10.101   9.872  65.731  1.00  0.00    -0.276 NA 
HETATM   11  C   UNL     1     -11.253  10.220  70.436  1.00  0.00    -0.332 A  
HETATM   12  N   UNL     1     -11.158  11.797  66.576  1.00  0.00    -0.299 NA 
HETATM   13  H2  UNL     1      -9.995   7.503  67.570  1.00  0.00     0.000 HD 
HETATM   14  C   UNL     1     -10.660  11.078  65.563  1.00  0.00    -0.200 A  
HETATM   15  H1  UNL     1      -8.977   7.678  66.285  1.00  0.00     0.000 HD 
BRANCH  11  16
HETATM   16  O   UNL     1     -11.178   9.553  71.627  1.00  0.00    -0.378 OA 
HETATM   17  C   UNL     1     -12.184   8.611  71.963  1.00  0.00    -0.373 C  
ENDBRANCH  11  16
BRANCH  14  18
HETATM   18  N   UNL     1     -10.692  11.611  64.297  1.00  0.00    -0.316 NA 
HETATM   19  C   UNL     1      -9.488  11.609  63.495  1.00  0.00    -0.172 C  
BRANCH  18  20
HETATM   20  C   UNL     1     -11.956  12.013  63.701  1.00  0.00    -0.515 C  
BRANCH  20  21
HETATM   21  C   UNL     1     -11.979  13.513  63.380  1.00  0.00    -0.314 C  
BRANCH  21  22
HETATM   22  C   UNL     1     -12.497  14.353  64.548  1.00  0.00    -0.339 C  
BRANCH  22  23
HETATM   23  N   UNL     1     -11.426  14.803  65.413  1.00  0.00    -0.347 N  
HETATM   24  C   UNL     1     -10.851  16.046  65.292  1.00  0.00    -0.362 C  
HETATM   25  H   UNL     1     -11.085  14.174  66.139  1.00  0.00     0.000 HD 
HETATM   26  O   UNL     1     -11.178  16.859  64.433  1.00  0.00    -1.159 OA 
BRANCH  24  27
HETATM   27  C   UNL     1      -9.756  16.339  66.326  1.00  0.00    -0.304 C  
HETATM   28  C   UNL     1      -9.075  15.049  66.745  1.00  0.00    -0.287 C  
HETATM   29  C   UNL     1      -7.764  15.544  67.293  1.00  0.00    -0.244 C  
HETATM   30  C   UNL     1      -7.460  16.732  66.404  1.00  0.00    -0.267 C  
HETATM   31  O   UNL     1      -8.706  17.207  65.870  1.00  0.00    -0.526 OA 
ENDBRANCH  24  27
ENDBRANCH  22  23
ENDBRANCH  21  22
ENDBRANCH  20  21
ENDBRANCH  18  20
ENDBRANCH  14  18
ENDBRANCH   2   3
TORSDOF 8
ENDMDL
MODEL        7
REMARK 921   NORMALIZED FREE ENERGY PREDICTED BY IDOCK:   -6.49 KCAL/MOL
REMARK 922        TOTAL FREE ENERGY PREDICTED BY IDOCK:  -11.06 KCAL/MOL
REMARK 923 INTER-LIGAND FREE ENERGY PREDICTED BY IDOCK:   -9.54 KCAL/MOL
REMARK 924 INTRA-LIGAND FREE ENERGY PREDICTED BY IDOCK:   -1.52 KCAL/MOL
REMARK 927      BINDING AFFINITY PREDICTED BY RF-SCORE:    0.00 PKD
ROOT
HETATM    1  C   UNL     1     -10.570  16.515  68.834  1.00  0.00    -0.326 C  
HETATM    2  O   UNL     1     -11.714  15.731  68.497  1.00  0.00    -0.383 OA 
ENDROOT
BRANCH   2   3
HETATM    3  C   UNL     1     -11.889  14.598  69.248  1.00  0.00    -0.321 A  
HETATM    4  C   UNL     1     -11.210  13.407  68.937  1.00  0.00    -0.320 A  
HETATM    5  C   UNL     1     -11.449  12.213  69.598  1.00  0.00    -0.238 A  
HETATM    6  C   UNL     1     -12.354  12.213  70.651  1.00  0.00    -0.385 A  
HETATM    7  C   UNL     1     -12.959  13.427  71.056  1.00  0.00    -0.260 A  
HETATM    8  C   UNL     1     -12.587  10.959  71.213  1.00  0.00    -0.421 A  
HETATM    9  N   UNL     1     -13.424  10.794  72.322  1.00  0.00    -0.539 NA 
HETATM   10  N   UNL     1     -12.020   9.835  70.757  1.00  0.00    -0.296 NA 
HETATM   11  C   UNL     1     -12.744  14.620  70.356  1.00  0.00    -0.316 A  
HETATM   12  N   UNL     1     -10.824  11.109  69.181  1.00  0.00    -0.227 NA 
HETATM   13  H2  UNL     1     -14.329  11.208  72.094  1.00  0.00     0.000 HD 
HETATM   14  C   UNL     1     -11.145   9.939  69.748  1.00  0.00    -0.254 A  
HETATM   15  H1  UNL     1     -13.594   9.877  72.733  1.00  0.00     0.000 HD 
BRANCH  11  16
HETATM   16  O   UNL     1     -13.456  15.661  70.884  1.00  0.00    -0.569 OA 
HETATM   17  C   UNL     1     -14.075  15.512  72.152  1.00  0.00    -0.526 C  
ENDBRANCH  11  16
BRANCH  14  18
HETATM   18  N   UNL     1     -10.527   8.797  69.299  1.00  0.00    -0.221 NA 
HETATM   19  C   UNL     1     -10.951   7.513  69.813  1.00  0.00    -0.184 C  
BRANCH  18  20
HETATM   20  C   UNL     1      -9.584   8.858  68.195  1.00  0.00    -0.145 C  
BRANCH  20  21
HETATM   21  C   UNL     1     -10.253   8.511  66.858  1.00  0.00    -0.375 C  
BRANCH  21  22
HETATM   22  C   UNL     1      -9.835   9.456  65.732  1.00  0.00    -0.275 C  
BRANCH  22  23
HETATM   23  N   UNL     1     -10.380  10.787  65.906  1.00  0.00    -0.254 N  
HETATM   24  C   UNL     1     -10.826  11.547  64.851  1.00  0.00    -0.283 C  
HETATM   25  H   UNL     1     -10.435  11.174  66.848  1.00  0.00     0.000 HD 
HETATM   26  O   UNL     1     -10.775  11.175  63.683  1.00  0.00    -0.377 OA 
BRANCH  24  27
HETATM   27  C   UNL     1     -11.396  12.914  65.254  1.00  0.00    -0.300 C  
HETATM   28  C   UNL     1     -10.320  13.979  65.149  1.00  0.00    -0.422 C  
HETATM   29  C   UNL     1     -11.130  15.243  65.048  1.00  0.00    -0.436 C  
HETATM   30  C   UNL     1     -12.342  14.796  64.257  1.00  0.00    -0.320 C  
HETATM   31  O   UNL     1     -12.488  13.379  64.445  1.00  0.00    -0.568 OA 
ENDBRANCH  24  27
ENDBRANCH  22  23
ENDBRANCH  21  22
ENDBRANCH  20  21
ENDBRANCH  18  20
ENDBRANCH  14  18
ENDBRANCH   2   3
TORSDOF 8
ENDMDL
MODEL        8
REMARK 921   NORMALIZED FREE ENERGY PREDICTED BY IDOCK:   -6.40 KCAL/MOL
REMARK 922        TOTAL FREE ENERGY PREDICTED BY IDOCK:  -10.94 KCAL/MOL
REMARK 923 INTER-LIGAND FREE ENERGY PREDICTED BY IDOCK:   -9.17 KCAL/MOL
REMARK 924 INTRA-LIGAND FREE ENERGY PREDICTED BY IDOCK:   -1.77 KCAL/MOL
REMARK 927      BINDING AFFINITY PREDICTED BY RF-SCORE:    0.00 PKD
ROOT
HETATM    1  C   UNL     1     -12.783  12.071  63.457  1.00  0.00    -0.443 C  
HETATM    2  O   UNL     1     -12.921  12.485  64.817  1.00  0.00    -0.827 OA 
ENDROOT
BRANCH   2   3
HETATM    3  C   UNL     1     -11.802  13.046  65.375  1.00  0.00    -0.388 A  
HETATM    4  C   UNL     1     -11.642  14.441  65.438  1.00  0.00    -0.347 A  
HETATM    5  C   UNL     1     -10.477  15.043  65.886  1.00  0.00    -0.328 A  
HETATM    6  C   UNL     1      -9.452  14.230  66.348  1.00  0.00    -0.297 A  
HETATM    7  C   UNL     1      -9.640  12.828  66.404  1.00  0.00    -0.254 A  
HETATM    8  C   UNL     1      -8.293  14.912  66.714  1.00  0.00    -0.123 A  
HETATM    9  N   UNL     1      -7.188  14.247  67.257  1.00  0.00    -0.317 NA 
HETATM   10  N   UNL     1      -8.155  16.239  66.595  1.00  0.00    -0.259 NA 
HETATM   11  C   UNL     1     -10.803  12.225  65.910  1.00  0.00    -0.271 A  
HETATM   12  N   UNL     1     -10.377  16.373  65.830  1.00  0.00    -0.408 NA 
HETATM   13  H2  UNL     1      -6.923  13.502  66.612  1.00  0.00     0.000 HD 
HETATM   14  C   UNL     1      -9.208  16.941  66.156  1.00  0.00    -0.235 A  
HETATM   15  H1  UNL     1      -6.341  14.746  67.525  1.00  0.00     0.000 HD 
BRANCH  11  16
HETATM   16  O   UNL     1     -10.762  10.863  66.019  1.00  0.00    -0.224 OA 
HETATM   17  C   UNL     1     -10.673  10.267  67.303  1.00  0.00    -0.263 C  
ENDBRANCH  11  16
BRANCH  14  18
HETATM   18  N   UNL     1      -9.091  18.307  66.068  1.00  0.00    -0.513 NA 
HETATM   19  C   UNL     1      -7.815  18.888  65.714  1.00  0.00     0.052 C  
BRANCH  18  20
HETATM   20  C   UNL     1     -10.270  19.152  66.156  1.00  0.00    -0.463 C  
BRANCH  20  21
HETATM   21  C   UNL     1     -10.343  19.884  67.503  1.00  0.00    -0.557 C  
BRANCH  21  22
HETATM   22  C   UNL     1     -10.006  18.973  68.683  1.00  0.00    -0.418 C  
BRANCH  22  23
HETATM   23  N   UNL     1     -10.946  17.879  68.813  1.00  0.00    -0.101 N  
HETATM   24  C   UNL     1     -10.585  16.648  69.309  1.00  0.00    -0.343 C  
HETATM   25  H   UNL     1     -11.913  18.027  68.526  1.00  0.00     0.000 HD 
HETATM   26  O   UNL     1      -9.440  16.370  69.653  1.00  0.00    -0.102 OA 
BRANCH  24  27
HETATM   27  C   UNL     1     -11.737  15.638  69.394  1.00  0.00    -0.383 C  
HETATM   28  C   UNL     1     -11.188  14.225  69.456  1.00  0.00    -0.286 C  
HETATM   29  C   UNL     1     -12.339  13.461  70.053  1.00  0.00    -0.294 C  
HETATM   30  C   UNL     1     -12.944  14.469  71.008  1.00  0.00    -0.358 C  
HETATM   31  O   UNL     1     -12.585  15.780  70.545  1.00  0.00    -0.421 OA 
ENDBRANCH  24  27
ENDBRANCH  22  23
ENDBRANCH  21  22
ENDBRANCH  20  21
ENDBRANCH  18  20
ENDBRANCH  14  18
ENDBRANCH   2   3
TORSDOF 8
ENDMDL
MODEL        9
REMARK 921   NORMALIZED FREE ENERGY PREDICTED BY IDOCK:   -6.40 KCAL/MOL
REMARK 922        TOTAL FREE ENERGY PREDICTED BY IDOCK:  -10.93 KCAL/MOL
REMARK 923 INTER-LIGAND FREE ENERGY PREDICTED BY IDOCK:  -10.14 KCAL/MOL
REMARK 924 INTRA-LIGAND FREE ENERGY PREDICTED BY IDOCK:   -0.79 KCAL/MOL
REMARK 927      BINDING AFFINITY PREDICTED BY RF-SCORE:    0.00 PKD
ROOT
HETATM    1  C   UNL     1      -7.823   7.247  70.302  1.00  0.00    -0.096 C  
HETATM    2  O   UNL     1      -9.079   6.733  69.859  1.00  0.00    -0.144 OA 
ENDROOT
BRANCH   2   3
HETATM    3  C   UNL     1     -10.183   7.330  70.410  1.00  0.00    -0.194 A  
HETATM    4  C   UNL     1     -10.461   8.690  70.188  1.00  0.00    -0.228 A  
HETATM    5  C   UNL     1     -11.499   9.356  70.821  1.00  0.00    -0.300 A  
HETATM    6  C   UNL     1     -12.332   8.630  71.660  1.00  0.00    -0.384 A  
HETATM    7  C   UNL     1     -12.141   7.235  71.803  1.00  0.00    -0.353 A  
HETATM    8  C   UNL     1     -13.304   9.390  72.309  1.00  0.00    -0.461 A  
HETATM    9  N   UNL     1     -14.262   8.802  73.142  1.00  0.00    -1.172 NA 
HETATM   10  N   UNL     1     -13.409  10.718  72.170  1.00  0.00    -0.356 NA 
HETATM   11  C   UNL     1     -11.065   6.578  71.194  1.00  0.00    -0.282 A  
HETATM   12  N   UNL     1     -11.638  10.669  70.621  1.00  0.00    -0.342 NA 
HETATM   13  H2  UNL     1     -13.769   8.256  73.848  1.00  0.00     0.000 HD 
HETATM   14  C   UNL     1     -12.570  11.327  71.323  1.00  0.00    -0.382 A  
HETATM   15  H1  UNL     1     -14.973   9.358  73.615  1.00  0.00     0.000 HD 
BRANCH  11  16
HETATM   16  O   UNL     1     -11.039   5.245  71.496  1.00  0.00    -0.107 OA 
HETATM   17  C   UNL     1     -10.460   4.817  72.719  1.00  0.00    -0.202 C  
ENDBRANCH  11  16
BRANCH  14  18
HETATM   18  N   UNL     1     -12.694  12.684  71.143  1.00  0.00    -0.323 NA 
HETATM   19  C   UNL     1     -13.523  13.446  72.051  1.00  0.00    -0.494 C  
BRANCH  18  20
HETATM   20  C   UNL     1     -11.868  13.374  70.166  1.00  0.00    -0.272 C  
BRANCH  20  21
HETATM   21  C   UNL     1     -12.036  14.897  70.258  1.00  0.00    -0.379 C  
BRANCH  21  22
HETATM   22  C   UNL     1     -11.998  15.572  68.887  1.00  0.00    -0.284 C  
BRANCH  22  23
HETATM   23  N   UNL     1     -12.317  14.652  67.817  1.00  0.00    -0.566 N  
HETATM   24  C   UNL     1     -11.634  14.638  66.624  1.00  0.00    -0.350 C  
HETATM   25  H   UNL     1     -13.079  13.987  67.953  1.00  0.00     0.000 HD 
HETATM   26  O   UNL     1     -10.722  15.416  66.360  1.00  0.00    -0.306 OA 
BRANCH  24  27
HETATM   27  C   UNL     1     -12.108  13.564  65.635  1.00  0.00    -0.430 C  
HETATM   28  C   UNL     1     -12.204  14.148  64.238  1.00  0.00    -0.449 C  
HETATM   29  C   UNL     1     -12.147  12.917  63.373  1.00  0.00    -0.610 C  
HETATM   30  C   UNL     1     -11.209  12.013  64.146  1.00  0.00    -0.373 C  
HETATM   31  O   UNL     1     -11.249  12.419  65.524  1.00  0.00    -0.302 OA 
ENDBRANCH  24  27
ENDBRANCH  22  23
ENDBRANCH  21  22
ENDBRANCH  20  21
ENDBRANCH  18  20
ENDBRANCH  14  18
ENDBRANCH   2   3
TORSDOF 8
ENDMDL
MODEL       10
REMARK 921   NORMALIZED FREE ENERGY PREDICTED BY IDOCK:   -6.33 KCAL/MOL
REMARK 922        TOTAL FREE ENERGY PREDICTED BY IDOCK:  -10.83 KCAL/MOL
REMARK 923 INTER-LIGAND FREE ENERGY PREDICTED BY IDOCK:   -9.89 KCAL/MOL
REMARK 924 INTRA-LIGAND FREE ENERGY PREDICTED BY IDOCK:   -0.95 KCAL/MOL
REMARK 927      BINDING AFFINITY PREDICTED BY RF-SCORE:    0.00 PKD
ROOT
HETATM    1  C   UNL     1     -10.146   8.603  69.692  1.00  0.00    -0.201 C  
HETATM    2  O   UNL     1     -11.503   8.752  70.110  1.00  0.00    -0.168 OA 
ENDROOT
BRANCH   2   3
HETATM    3  C   UNL     1     -11.906  10.041  70.344  1.00  0.00    -0.262 A  
HETATM    4  C   UNL     1     -11.498  11.094  69.506  1.00  0.00    -0.374 A  
HETATM    5  C   UNL     1     -11.786  12.422  69.777  1.00  0.00    -0.317 A  
HETATM    6  C   UNL     1     -12.561  12.714  70.890  1.00  0.00    -0.338 A  
HETATM    7  C   UNL     1     -13.080  11.659  71.679  1.00  0.00    -0.456 A  
HETATM    8  C   UNL     1     -12.744  14.075  71.128  1.00  0.00    -0.364 A  
HETATM    9  N   UNL     1     -13.549  14.538  72.174  1.00  0.00    -0.379 NA 
HETATM   10  N   UNL     1     -12.189  15.031  70.372  1.00  0.00    -0.317 NA 
HETATM   11  C   UNL     1     -12.750  10.323  71.424  1.00  0.00    -0.442 A  
HETATM   12  N   UNL     1     -11.286  13.366  68.976  1.00  0.00    -0.272 NA 
HETATM   13  H2  UNL     1     -13.214  14.112  73.038  1.00  0.00     0.000 HD 
HETATM   14  C   UNL     1     -11.472  14.650  69.307  1.00  0.00    -0.291 A  
HETATM   15  H1  UNL     1     -13.682  15.534  72.347  1.00  0.00     0.000 HD 
BRANCH  11  16
HETATM   16  O   UNL     1     -13.318   9.471  72.329  1.00  0.00    -0.438 OA 
HETATM   17  C   UNL     1     -14.383   8.627  71.919  1.00  0.00    -0.405 C  
ENDBRANCH  11  16
BRANCH  14  18
HETATM   18  N   UNL     1     -10.931  15.623  68.502  1.00  0.00    -0.286 NA 
HETATM   19  C   UNL     1     -10.948  17.000  68.945  1.00  0.00    -0.141 C  
BRANCH  18  20
HETATM   20  C   UNL     1     -10.194  15.259  67.303  1.00  0.00    -0.248 C  
BRANCH  20  21
HETATM   21  C   UNL     1     -10.247  16.370  66.246  1.00  0.00    -0.341 C  
BRANCH  21  22
HETATM   22  C   UNL     1     -10.989  15.939  64.981  1.00  0.00    -0.412 C  
BRANCH  22  23
HETATM   23  N   UNL     1     -10.893  14.512  64.753  1.00  0.00    -0.519 N  
HETATM   24  C   UNL     1     -11.953  13.659  64.948  1.00  0.00    -0.383 C  
HETATM   25  H   UNL     1     -10.005  14.126  64.434  1.00  0.00     0.000 HD 
HETATM   26  O   UNL     1     -13.051  14.029  65.355  1.00  0.00    -0.763 OA 
BRANCH  24  27
HETATM   27  C   UNL     1     -11.652  12.191  64.619  1.00  0.00    -0.328 C  
HETATM   28  C   UNL     1     -10.681  12.106  63.456  1.00  0.00    -0.509 C  
HETATM   29  C   UNL     1     -10.110  10.723  63.617  1.00  0.00    -0.375 C  
HETATM   30  C   UNL     1     -10.070  10.555  65.122  1.00  0.00    -0.314 C  
HETATM   31  O   UNL     1     -11.053  11.439  65.686  1.00  0.00    -0.243 OA 
ENDBRANCH  24  27
ENDBRANCH  22  23
ENDBRANCH  21  22
ENDBRANCH  20  21
ENDBRANCH  18  20
ENDBRANCH  14  18
ENDBRANCH   2   3
TORSDOF 8
ENDMDL
MODEL       11
REMARK 921   NORMALIZED FREE ENERGY PREDICTED BY IDOCK:   -6.30 KCAL/MOL
REMARK 922        TOTAL FREE ENERGY PREDICTED BY IDOCK:  -10.78 KCAL/MOL
REMARK 923 INTER-LIGAND FREE ENERGY PREDICTED BY IDOCK:   -9.09 KCAL/MOL
REMARK 924 INTRA-LIGAND FREE ENERGY PREDICTED BY IDOCK:   -1.69 KCAL/MOL
REMARK 927      BINDING AFFINITY PREDICTED BY RF-SCORE:    0.00 PKD
ROOT
HETATM    1  C   UNL     1      -9.637  18.300  67.772  1.00  0.00    -0.283 C  
HETATM    2  O   UNL     1     -10.644  17.747  68.621  1.00  0.00    -0.317 OA 
ENDROOT
BRANCH   2   3
HETATM    3  C   UNL     1     -10.857  16.400  68.475  1.00  0.00    -0.339 A  
HETATM    4  C   UNL     1     -10.739  15.777  67.220  1.00  0.00    -0.313 A  
HETATM    5  C   UNL     1     -11.061  14.445  67.011  1.00  0.00    -0.313 A  
HETATM    6  C   UNL     1     -11.457  13.685  68.103  1.00  0.00    -0.348 A  
HETATM    7  C   UNL     1     -11.468  14.265  69.394  1.00  0.00    -0.337 A  
HETATM    8  C   UNL     1     -11.829  12.378  67.793  1.00  0.00    -0.298 A  
HETATM    9  N   UNL     1     -12.195  11.463  68.785  1.00  0.00    -0.494 NA 
HETATM   10  N   UNL     1     -11.843  11.898  66.543  1.00  0.00    -0.570 NA 
HETATM   11  C   UNL     1     -11.183  15.621  69.590  1.00  0.00    -0.310 A  
HETATM   12  N   UNL     1     -11.004  13.956  65.771  1.00  0.00    -0.282 NA 
HETATM   13  H2  UNL     1     -12.948  11.880  69.333  1.00  0.00     0.000 HD 
HETATM   14  C   UNL     1     -11.425  12.703  65.557  1.00  0.00    -0.340 A  
HETATM   15  H1  UNL     1     -12.467  10.507  68.558  1.00  0.00     0.000 HD 
BRANCH  11  16
HETATM   16  O   UNL     1     -11.293  15.985  70.903  1.00  0.00    -0.370 OA 
HETATM   17  C   UNL     1     -11.881  15.086  71.830  1.00  0.00    -0.384 C  
ENDBRANCH  11  16
BRANCH  14  18
HETATM   18  N   UNL     1     -11.398  12.207  64.276  1.00  0.00    -0.338 NA 
HETATM   19  C   UNL     1     -12.644  11.991  63.573  1.00  0.00    -0.507 C  
BRANCH  18  20
HETATM   20  C   UNL     1     -10.136  12.066  63.570  1.00  0.00    -0.424 C  
BRANCH  20  21
HETATM   21  C   UNL     1      -9.797  10.593  63.304  1.00  0.00    -0.364 C  
BRANCH  21  22
HETATM   22  C   UNL     1      -9.006   9.960  64.449  1.00  0.00    -0.239 C  
BRANCH  22  23
HETATM   23  N   UNL     1      -9.862   9.548  65.541  1.00  0.00    -0.402 N  
HETATM   24  C   UNL     1      -9.608   8.429  66.299  1.00  0.00    -0.216 C  
HETATM   25  H   UNL     1     -10.685  10.110  65.758  1.00  0.00     0.000 HD 
HETATM   26  O   UNL     1      -8.658   7.678  66.096  1.00  0.00    -0.134 OA 
BRANCH  24  27
HETATM   27  C   UNL     1     -10.619   8.187  67.428  1.00  0.00    -0.255 C  
HETATM   28  C   UNL     1     -10.476   6.774  67.962  1.00  0.00    -0.253 C  
HETATM   29  C   UNL     1     -11.106   6.882  69.324  1.00  0.00    -0.229 C  
HETATM   30  C   UNL     1     -10.727   8.284  69.754  1.00  0.00    -0.221 C  
HETATM   31  O   UNL     1     -10.479   9.052  68.565  1.00  0.00    -0.211 OA 
ENDBRANCH  24  27
ENDBRANCH  22  23
ENDBRANCH  21  22
ENDBRANCH  20  21
ENDBRANCH  18  20
ENDBRANCH  14  18
ENDBRANCH   2   3
TORSDOF 8
ENDMDL
MODEL       12
REMARK 921   NORMALIZED FREE ENERGY PREDICTED BY IDOCK:   -6.28 KCAL/MOL
REMARK 922        TOTAL FREE ENERGY PREDICTED BY IDOCK:  -10.75 KCAL/MOL
REMARK 923 INTER-LIGAND FREE ENERGY PREDICTED BY IDOCK:   -9.11 KCAL/MOL
REMARK 924 INTRA-LIGAND FREE ENERGY PREDICTED BY IDOCK:   -1.65 KCAL/MOL
REMARK 927      BINDING AFFINITY PREDICTED BY RF-SCORE:    0.00 PKD
ROOT
HETATM    1  C   UNL     1     -13.008  16.020  73.635  1.00  0.00    -0.562 C  
HETATM    2  O   UNL     1     -13.853  15.533  72.592  1.00  0.00    -0.534 OA 
ENDROOT
BRANCH   2   3
HETATM    3  C   UNL     1     -13.342  14.489  71.865  1.00  0.00    -0.365 A  
HETATM    4  C   UNL     1     -13.622  13.155  72.210  1.00  0.00    -0.677 A  
HETATM    5  C   UNL     1     -13.031  12.076  71.573  1.00  0.00    -0.304 A  
HETATM    6  C   UNL     1     -12.175  12.327  70.510  1.00  0.00    -0.387 A  
HETATM    7  C   UNL     1     -11.973  13.658  70.071  1.00  0.00    -0.413 A  
HETATM    8  C   UNL     1     -11.571  11.192  69.973  1.00  0.00    -0.338 A  
HETATM    9  N   UNL     1     -10.729  11.264  68.858  1.00  0.00    -0.199 NA 
HETATM   10  N   UNL     1     -11.765   9.959  70.460  1.00  0.00    -0.286 NA 
HETATM   11  C   UNL     1     -12.540  14.745  70.747  1.00  0.00    -0.349 A  
HETATM   12  N   UNL     1     -13.286  10.845  72.022  1.00  0.00    -0.458 NA 
HETATM   13  H2  UNL     1      -9.994  11.940  69.066  1.00  0.00     0.000 HD 
HETATM   14  C   UNL     1     -12.624   9.816  71.477  1.00  0.00    -0.398 A  
HETATM   15  H1  UNL     1     -10.287  10.433  68.466  1.00  0.00     0.000 HD 
BRANCH  11  16
HETATM   16  O   UNL     1     -12.184  15.940  70.187  1.00  0.00    -0.342 OA 
HETATM   17  C   UNL     1     -11.605  15.960  68.892  1.00  0.00    -0.388 C  
ENDBRANCH  11  16
BRANCH  14  18
HETATM   18  N   UNL     1     -12.860   8.551  71.959  1.00  0.00    -0.354 NA 
HETATM   19  C   UNL     1     -14.147   7.933  71.729  1.00  0.00    -0.428 C  
BRANCH  18  20
HETATM   20  C   UNL     1     -11.778   7.772  72.538  1.00  0.00    -0.339 C  
BRANCH  20  21
HETATM   21  C   UNL     1     -11.860   6.295  72.126  1.00  0.00    -0.365 C  
BRANCH  21  22
HETATM   22  C   UNL     1     -10.765   5.903  71.134  1.00  0.00    -0.265 C  
BRANCH  22  23
HETATM   23  N   UNL     1     -10.493   6.956  70.178  1.00  0.00    -0.203 N  
HETATM   24  C   UNL     1      -9.338   7.000  69.434  1.00  0.00    -0.146 C  
HETATM   25  H   UNL     1     -11.186   7.694  70.051  1.00  0.00     0.000 HD 
HETATM   26  O   UNL     1      -8.438   6.172  69.537  1.00  0.00    -0.118 OA 
BRANCH  24  27
HETATM   27  C   UNL     1      -9.260   8.180  68.456  1.00  0.00    -0.136 C  
HETATM   28  C   UNL     1      -8.150   7.948  67.446  1.00  0.00    -0.123 C  
HETATM   29  C   UNL     1      -8.550   8.860  66.318  1.00  0.00    -0.145 C  
HETATM   30  C   UNL     1     -10.062   8.789  66.354  1.00  0.00    -0.243 C  
HETATM   31  O   UNL     1     -10.450   8.410  67.685  1.00  0.00    -0.243 OA 
ENDBRANCH  24  27
ENDBRANCH  22  23
ENDBRANCH  21  22
ENDBRANCH  20  21
ENDBRANCH  18  20
ENDBRANCH  14  18
ENDBRANCH   2   3
TORSDOF 8
ENDMDL
MODEL       13
REMARK 921   NORMALIZED FREE ENERGY PREDICTED BY IDOCK:   -6.28 KCAL/MOL
REMARK 922        TOTAL FREE ENERGY PREDICTED BY IDOCK:  -10.75 KCAL/MOL
REMARK 923 INTER-LIGAND FREE ENERGY PREDICTED BY IDOCK:   -9.12 KCAL/MOL
REMARK 924 INTRA-LIGAND FREE ENERGY PREDICTED BY IDOCK:   -1.63 KCAL/MOL
REMARK 927      BINDING AFFINITY PREDICTED BY RF-SCORE:    0.00 PKD
ROOT
HETATM    1  C   UNL     1     -11.809  13.291  65.702  1.00  0.00    -0.380 C  
HETATM    2  O   UNL     1     -10.900  13.623  66.751  1.00  0.00    -0.287 OA 
ENDROOT
BRANCH   2   3
HETATM    3  C   UNL     1     -11.386  13.455  68.022  1.00  0.00    -0.286 A  
HETATM    4  C   UNL     1     -11.438  12.182  68.618  1.00  0.00    -0.347 A  
HETATM    5  C   UNL     1     -12.029  11.956  69.851  1.00  0.00    -0.325 A  
HETATM    6  C   UNL     1     -12.534  13.044  70.548  1.00  0.00    -0.306 A  
HETATM    7  C   UNL     1     -12.384  14.348  70.018  1.00  0.00    -0.391 A  
HETATM    8  C   UNL     1     -13.173  12.719  71.744  1.00  0.00    -0.374 A  
HETATM    9  N   UNL     1     -13.683  13.704  72.597  1.00  0.00    -0.730 NA 
HETATM   10  N   UNL     1     -13.326  11.460  72.174  1.00  0.00    -0.364 NA 
HETATM   11  C   UNL     1     -11.824  14.564  68.754  1.00  0.00    -0.315 A  
HETATM   12  N   UNL     1     -12.114  10.703  70.304  1.00  0.00    -0.312 NA 
HETATM   13  H2  UNL     1     -14.317  14.290  72.053  1.00  0.00     0.000 HD 
HETATM   14  C   UNL     1     -12.787  10.478  71.440  1.00  0.00    -0.447 A  
HETATM   15  H1  UNL     1     -14.150  13.466  73.471  1.00  0.00     0.000 HD 
BRANCH  11  16
HETATM   16  O   UNL     1     -11.815  15.888  68.414  1.00  0.00    -0.322 OA 
HETATM   17  C   UNL     1     -10.591  16.507  68.050  1.00  0.00    -0.328 C  
ENDBRANCH  11  16
BRANCH  14  18
HETATM   18  N   UNL     1     -12.904   9.186  71.893  1.00  0.00    -0.363 NA 
HETATM   19  C   UNL     1     -14.212   8.573  71.957  1.00  0.00    -0.453 C  
BRANCH  18  20
HETATM   20  C   UNL     1     -11.717   8.383  72.136  1.00  0.00    -0.375 C  
BRANCH  20  21
HETATM   21  C   UNL     1     -11.943   6.911  71.765  1.00  0.00    -0.372 C  
BRANCH  21  22
HETATM   22  C   UNL     1     -11.693   6.637  70.282  1.00  0.00    -0.371 C  
BRANCH  22  23
HETATM   23  N   UNL     1     -11.181   7.802  69.591  1.00  0.00    -0.449 N  
HETATM   24  C   UNL     1     -10.335   7.710  68.511  1.00  0.00    -0.198 C  
HETATM   25  H   UNL     1     -11.459   8.727  69.918  1.00  0.00     0.000 HD 
HETATM   26  O   UNL     1      -9.927   6.642  68.064  1.00  0.00    -0.135 OA 
BRANCH  24  27
HETATM   27  C   UNL     1      -9.935   9.061  67.904  1.00  0.00    -0.178 C  
HETATM   28  C   UNL     1      -8.466   9.048  67.526  1.00  0.00    -0.116 C  
HETATM   29  C   UNL     1      -8.386  10.160  66.515  1.00  0.00    -0.124 C  
HETATM   30  C   UNL     1      -9.724  10.064  65.811  1.00  0.00    -0.257 C  
HETATM   31  O   UNL     1     -10.645   9.424  66.709  1.00  0.00    -0.218 OA 
ENDBRANCH  24  27
ENDBRANCH  22  23
ENDBRANCH  21  22
ENDBRANCH  20  21
ENDBRANCH  18  20
ENDBRANCH  14  18
ENDBRANCH   2   3
TORSDOF 8
ENDMDL
MODEL       14
REMARK 921   NORMALIZED FREE ENERGY PREDICTED BY IDOCK:   -6.27 KCAL/MOL
REMARK 922        TOTAL FREE ENERGY PREDICTED BY IDOCK:  -10.74 KCAL/MOL
REMARK 923 INTER-LIGAND FREE ENERGY PREDICTED BY IDOCK:  -10.06 KCAL/MOL
REMARK 924 INTRA-LIGAND FREE ENERGY PREDICTED BY IDOCK:   -0.68 KCAL/MOL
REMARK 927      BINDING AFFINITY PREDICTED BY RF-SCORE:    0.00 PKD
ROOT
HETATM    1  C   UNL     1      -9.025   7.899  67.783  1.00  0.00    -0.128 C  
HETATM    2  O   UNL     1      -8.981   7.795  69.206  1.00  0.00    -0.139 OA 
ENDROOT
BRANCH   2   3
HETATM    3  C   UNL     1     -10.104   8.234  69.860  1.00  0.00    -0.195 A  
HETATM    4  C   UNL     1     -10.512   9.578  69.783  1.00  0.00    -0.253 A  
HETATM    5  C   UNL     1     -11.570  10.083  70.521  1.00  0.00    -0.323 A  
HETATM    6  C   UNL     1     -12.290   9.209  71.323  1.00  0.00    -0.382 A  
HETATM    7  C   UNL     1     -11.969   7.830  71.322  1.00  0.00    -0.324 A  
HETATM    8  C   UNL     1     -13.290   9.813  72.083  1.00  0.00    -0.431 A  
HETATM    9  N   UNL     1     -14.148   9.065  72.897  1.00  0.00    -1.110 NA 
HETATM   10  N   UNL     1     -13.519  11.132  72.078  1.00  0.00    -0.300 NA 
HETATM   11  C   UNL     1     -10.873   7.335  70.606  1.00  0.00    -0.242 A  
HETATM   12  N   UNL     1     -11.834  11.390  70.455  1.00  0.00    -0.340 NA 
HETATM   13  H2  UNL     1     -13.572   8.504  73.526  1.00  0.00     0.000 HD 
HETATM   14  C   UNL     1     -12.782  11.892  71.257  1.00  0.00    -0.298 A  
HETATM   15  H1  UNL     1     -14.879   9.506  73.453  1.00  0.00     0.000 HD 
BRANCH  11  16
HETATM   16  O   UNL     1     -10.713   5.988  70.778  1.00  0.00    -0.245 OA 
HETATM   17  C   UNL     1     -10.532   5.467  72.085  1.00  0.00    -0.220 C  
ENDBRANCH  11  16
BRANCH  14  18
HETATM   18  N   UNL     1     -13.036  13.242  71.214  1.00  0.00    -0.306 NA 
HETATM   19  C   UNL     1     -13.719  13.871  72.323  1.00  0.00    -0.562 C  
BRANCH  18  20
HETATM   20  C   UNL     1     -12.472  14.061  70.155  1.00  0.00    -0.319 C  
BRANCH  20  21
HETATM   21  C   UNL     1     -12.454  15.548  70.537  1.00  0.00    -0.472 C  
BRANCH  21  22
HETATM   22  C   UNL     1     -11.042  16.134  70.538  1.00  0.00    -0.322 C  
BRANCH  22  23
HETATM   23  N   UNL     1     -10.910  17.238  69.611  1.00  0.00    -0.276 N  
HETATM   24  C   UNL     1     -10.655  17.054  68.272  1.00  0.00    -0.372 C  
HETATM   25  H   UNL     1     -11.010  18.190  69.964  1.00  0.00     0.000 HD 
HETATM   26  O   UNL     1     -10.494  15.950  67.762  1.00  0.00    -0.272 OA 
BRANCH  24  27
HETATM   27  C   UNL     1     -10.584  18.353  67.457  1.00  0.00    -0.416 C  
HETATM   28  C   UNL     1     -10.217  19.516  68.361  1.00  0.00    -0.536 C  
HETATM   29  C   UNL     1      -9.686  20.526  67.380  1.00  0.00    -0.587 C  
HETATM   30  C   UNL     1      -9.005  19.656  66.344  1.00  0.00    -0.378 C  
HETATM   31  O   UNL     1      -9.611  18.355  66.401  1.00  0.00    -0.315 OA 
ENDBRANCH  24  27
ENDBRANCH  22  23
ENDBRANCH  21  22
ENDBRANCH  20  21
ENDBRANCH  18  20
ENDBRANCH  14  18
ENDBRANCH   2   3
TORSDOF 8
ENDMDL
MODEL       15
REMARK 921   NORMALIZED FREE ENERGY PREDICTED BY IDOCK:   -6.27 KCAL/MOL
REMARK 922        TOTAL FREE ENERGY PREDICTED BY IDOCK:  -10.74 KCAL/MOL
REMARK 923 INTER-LIGAND FREE ENERGY PREDICTED BY IDOCK:   -9.30 KCAL/MOL
REMARK 924 INTRA-LIGAND FREE ENERGY PREDICTED BY IDOCK:   -1.44 KCAL/MOL
REMARK 927      BINDING AFFINITY PREDICTED BY RF-SCORE:    0.00 PKD
ROOT
HETATM    1  C   UNL     1      -9.465   9.000  66.786  1.00  0.00    -0.182 C  
HETATM    2  O   UNL     1      -9.106   8.986  68.168  1.00  0.00    -0.133 OA 
ENDROOT
BRANCH   2   3
HETATM    3  C   UNL     1     -10.120   9.294  69.039  1.00  0.00    -0.199 A  
HETATM    4  C   UNL     1     -10.641  10.598  69.115  1.00  0.00    -0.256 A  
HETATM    5  C   UNL     1     -11.581  10.975  70.062  1.00  0.00    -0.344 A  
HETATM    6  C   UNL     1     -12.067  10.006  70.928  1.00  0.00    -0.448 A  
HETATM    7  C   UNL     1     -11.643   8.663  70.789  1.00  0.00    -0.273 A  
HETATM    8  C   UNL     1     -12.954  10.485  71.891  1.00  0.00    -0.447 A  
HETATM    9  N   UNL     1     -13.583   9.629  72.802  1.00  0.00    -0.623 NA 
HETATM   10  N   UNL     1     -13.285  11.777  72.004  1.00  0.00    -0.464 NA 
HETATM   11  C   UNL     1     -10.662   8.298  69.859  1.00  0.00    -0.234 A  
HETATM   12  N   UNL     1     -11.957  12.254  70.121  1.00  0.00    -0.335 NA 
HETATM   13  H2  UNL     1     -12.857   9.096  73.282  1.00  0.00     0.000 HD 
HETATM   14  C   UNL     1     -12.777  12.634  71.109  1.00  0.00    -0.254 A  
HETATM   15  H1  UNL     1     -14.232   9.980  73.506  1.00  0.00     0.000 HD 
BRANCH  11  16
HETATM   16  O   UNL     1     -10.366   6.965  69.919  1.00  0.00    -0.195 OA 
HETATM   17  C   UNL     1     -11.261   6.024  69.348  1.00  0.00    -0.327 C  
ENDBRANCH  11  16
BRANCH  14  18
HETATM   18  N   UNL     1     -13.141  13.957  71.192  1.00  0.00    -0.309 NA 
HETATM   19  C   UNL     1     -13.758  14.448  72.405  1.00  0.00    -0.490 C  
BRANCH  18  20
HETATM   20  C   UNL     1     -12.755  14.891  70.148  1.00  0.00    -0.219 C  
BRANCH  20  21
HETATM   21  C   UNL     1     -11.579  15.775  70.585  1.00  0.00    -0.416 C  
BRANCH  21  22
HETATM   22  C   UNL     1     -10.401  15.703  69.614  1.00  0.00    -0.286 C  
BRANCH  22  23
HETATM   23  N   UNL     1     -10.696  14.881  68.459  1.00  0.00    -0.239 N  
HETATM   24  C   UNL     1     -10.312  15.229  67.186  1.00  0.00    -0.265 C  
HETATM   25  H   UNL     1     -11.207  14.009  68.596  1.00  0.00     0.000 HD 
HETATM   26  O   UNL     1      -9.717  16.269  66.921  1.00  0.00    -0.228 OA 
BRANCH  24  27
HETATM   27  C   UNL     1     -10.694  14.205  66.108  1.00  0.00    -0.297 C  
HETATM   28  C   UNL     1     -11.918  13.420  66.544  1.00  0.00    -0.452 C  
HETATM   29  C   UNL     1     -12.443  12.895  65.236  1.00  0.00    -0.552 C  
HETATM   30  C   UNL     1     -12.119  14.019  64.274  1.00  0.00    -0.445 C  
HETATM   31  O   UNL     1     -11.023  14.765  64.827  1.00  0.00    -0.390 OA 
ENDBRANCH  24  27
ENDBRANCH  22  23
ENDBRANCH  21  22
ENDBRANCH  20  21
ENDBRANCH  18  20
ENDBRANCH  14  18
ENDBRANCH   2   3
TORSDOF 8
ENDMDL
MODEL       16
REMARK 921   NORMALIZED FREE ENERGY PREDICTED BY IDOCK:   -6.27 KCAL/MOL
REMARK 922        TOTAL FREE ENERGY PREDICTED BY IDOCK:  -10.74 KCAL/MOL
REMARK 923 INTER-LIGAND FREE ENERGY PREDICTED BY IDOCK:   -9.23 KCAL/MOL
REMARK 924 INTRA-LIGAND FREE ENERGY PREDICTED BY IDOCK:   -1.51 KCAL/MOL
REMARK 927      BINDING AFFINITY PREDICTED BY RF-SCORE:    0.00 PKD
ROOT
HETATM    1  C   UNL     1     -10.375   5.397  69.587  1.00  0.00    -0.291 C  
HETATM    2  O   UNL     1      -9.904   6.345  70.545  1.00  0.00    -0.181 OA 
ENDROOT
BRANCH   2   3
HETATM    3  C   UNL     1     -10.557   7.551  70.545  1.00  0.00    -0.225 A  
HETATM    4  C   UNL     1     -10.509   8.403  69.427  1.00  0.00    -0.222 A  
HETATM    5  C   UNL     1     -11.056   9.676  69.433  1.00  0.00    -0.139 A  
HETATM    6  C   UNL     1     -11.729  10.099  70.570  1.00  0.00    -0.407 A  
HETATM    7  C   UNL     1     -11.890   9.211  71.660  1.00  0.00    -0.443 A  
HETATM    8  C   UNL     1     -12.185  11.415  70.516  1.00  0.00    -0.386 A  
HETATM    9  N   UNL     1     -12.936  11.976  71.555  1.00  0.00    -0.369 NA 
HETATM   10  N   UNL     1     -11.963  12.225  69.473  1.00  0.00    -0.295 NA 
HETATM   11  C   UNL     1     -11.299   7.942  71.664  1.00  0.00    -0.258 A  
HETATM   12  N   UNL     1     -10.889  10.453  68.359  1.00  0.00    -0.227 NA 
HETATM   13  H2  UNL     1     -12.406  11.864  72.419  1.00  0.00     0.000 HD 
HETATM   14  C   UNL     1     -11.319  11.720  68.414  1.00  0.00    -0.270 A  
HETATM   15  H1  UNL     1     -13.270  12.939  71.515  1.00  0.00     0.000 HD 
BRANCH  11  16
HETATM   16  O   UNL     1     -11.539   7.267  72.828  1.00  0.00    -0.260 OA 
HETATM   17  C   UNL     1     -10.478   7.057  73.746  1.00  0.00    -0.354 C  
ENDBRANCH  11  16
BRANCH  14  18
HETATM   18  N   UNL     1     -11.120  12.531  67.322  1.00  0.00    -0.261 NA 
HETATM   19  C   UNL     1     -11.976  12.385  66.165  1.00  0.00    -0.327 C  
BRANCH  18  20
HETATM   20  C   UNL     1     -10.182  13.639  67.392  1.00  0.00    -0.241 C  
BRANCH  20  21
HETATM   21  C   UNL     1     -10.678  14.852  66.594  1.00  0.00    -0.312 C  
BRANCH  21  22
HETATM   22  C   UNL     1     -11.262  15.943  67.493  1.00  0.00    -0.171 C  
BRANCH  22  23
HETATM   23  N   UNL     1     -11.825  15.402  68.712  1.00  0.00    -0.493 N  
HETATM   24  C   UNL     1     -11.495  15.884  69.957  1.00  0.00    -0.354 C  
HETATM   25  H   UNL     1     -12.492  14.634  68.645  1.00  0.00     0.000 HD 
HETATM   26  O   UNL     1     -10.683  16.787  70.137  1.00  0.00    -0.212 OA 
BRANCH  24  27
HETATM   27  C   UNL     1     -12.226  15.194  71.116  1.00  0.00    -0.331 C  
HETATM   28  C   UNL     1     -12.075  16.010  72.387  1.00  0.00    -0.629 C  
HETATM   29  C   UNL     1     -13.228  15.519  73.220  1.00  0.00    -0.635 C  
HETATM   30  C   UNL     1     -14.298  15.253  72.182  1.00  0.00    -0.555 C  
HETATM   31  O   UNL     1     -13.640  15.022  70.926  1.00  0.00    -0.380 OA 
ENDBRANCH  24  27
ENDBRANCH  22  23
ENDBRANCH  21  22
ENDBRANCH  20  21
ENDBRANCH  18  20
ENDBRANCH  14  18
ENDBRANCH   2   3
TORSDOF 8
ENDMDL
MODEL       17
REMARK 921   NORMALIZED FREE ENERGY PREDICTED BY IDOCK:   -6.24 KCAL/MOL
REMARK 922        TOTAL FREE ENERGY PREDICTED BY IDOCK:  -10.70 KCAL/MOL
REMARK 923 INTER-LIGAND FREE ENERGY PREDICTED BY IDOCK:   -9.03 KCAL/MOL
REMARK 924 INTRA-LIGAND FREE ENERGY PREDICTED BY IDOCK:   -1.66 KCAL/MOL
REMARK 927      BINDING AFFINITY PREDICTED BY RF-SCORE:    0.00 PKD
ROOT
HETATM    1  C   UNL     1     -10.782  15.813  65.519  1.00  0.00    -0.383 C  
HETATM    2  O   UNL     1     -11.763  14.843  65.151  1.00  0.00    -0.348 OA 
ENDROOT
BRANCH   2   3
HETATM    3  C   UNL     1     -11.550  13.580  65.642  1.00  0.00    -0.325 A  
HETATM    4  C   UNL     1     -11.927  13.235  66.952  1.00  0.00    -0.430 A  
HETATM    5  C   UNL     1     -11.624  12.009  67.521  1.00  0.00    -0.330 A  
HETATM    6  C   UNL     1     -10.973  11.064  66.740  1.00  0.00    -0.279 A  
HETATM    7  C   UNL     1     -10.692  11.349  65.382  1.00  0.00    -0.313 A  
HETATM    8  C   UNL     1     -10.644   9.887  67.411  1.00  0.00    -0.277 A  
HETATM    9  N   UNL     1     -10.041   8.810  66.753  1.00  0.00    -0.269 NA 
HETATM   10  N   UNL     1     -10.895   9.691  68.711  1.00  0.00    -0.201 NA 
HETATM   11  C   UNL     1     -10.963  12.605  64.827  1.00  0.00    -0.302 A  
HETATM   12  N   UNL     1     -11.941  11.797  68.800  1.00  0.00    -0.366 NA 
HETATM   13  H2  UNL     1      -9.197   9.156  66.295  1.00  0.00     0.000 HD 
HETATM   14  C   UNL     1     -11.544  10.655  69.377  1.00  0.00    -0.280 A  
HETATM   15  H1  UNL     1      -9.801   7.949  67.244  1.00  0.00     0.000 HD 
BRANCH  11  16
HETATM   16  O   UNL     1     -10.574  12.685  63.519  1.00  0.00    -0.403 OA 
HETATM   17  C   UNL     1      -9.775  11.652  62.965  1.00  0.00    -0.303 C  
ENDBRANCH  11  16
BRANCH  14  18
HETATM   18  N   UNL     1     -11.842  10.447  70.702  1.00  0.00    -0.322 NA 
HETATM   19  C   UNL     1     -12.939  11.172  71.304  1.00  0.00    -0.357 C  
BRANCH  18  20
HETATM   20  C   UNL     1     -11.181   9.387  71.445  1.00  0.00    -0.381 C  
BRANCH  20  21
HETATM   21  C   UNL     1     -12.190   8.513  72.202  1.00  0.00    -0.446 C  
BRANCH  21  22
HETATM   22  C   UNL     1     -12.753   7.387  71.335  1.00  0.00    -0.369 C  
BRANCH  22  23
HETATM   23  N   UNL     1     -11.963   7.172  70.141  1.00  0.00    -0.578 N  
HETATM   24  C   UNL     1     -11.015   6.181  70.049  1.00  0.00    -0.372 C  
HETATM   25  H   UNL     1     -12.117   7.779  69.336  1.00  0.00     0.000 HD 
HETATM   26  O   UNL     1     -10.742   5.421  70.973  1.00  0.00    -0.233 OA 
BRANCH  24  27
HETATM   27  C   UNL     1     -10.312   6.101  68.687  1.00  0.00    -0.206 C  
HETATM   28  C   UNL     1      -9.662   4.741  68.514  1.00  0.00    -0.215 C  
HETATM   29  C   UNL     1      -9.511   4.647  67.020  1.00  0.00    -0.175 C  
HETATM   30  C   UNL     1     -10.744   5.369  66.517  1.00  0.00    -0.240 C  
HETATM   31  O   UNL     1     -11.172   6.272  67.549  1.00  0.00    -0.328 OA 
ENDBRANCH  24  27
ENDBRANCH  22  23
ENDBRANCH  21  22
ENDBRANCH  20  21
ENDBRANCH  18  20
ENDBRANCH  14  18
ENDBRANCH   2   3
TORSDOF 8
ENDMDL
MODEL       18
REMARK 921   NORMALIZED FREE ENERGY PREDICTED BY IDOCK:   -6.22 KCAL/MOL
REMARK 922        TOTAL FREE ENERGY PREDICTED BY IDOCK:  -10.67 KCAL/MOL
REMARK 923 INTER-LIGAND FREE ENERGY PREDICTED BY IDOCK:   -8.98 KCAL/MOL
REMARK 924 INTRA-LIGAND FREE ENERGY PREDICTED BY IDOCK:   -1.69 KCAL/MOL
REMARK 927      BINDING AFFINITY PREDICTED BY RF-SCORE:    0.00 PKD
ROOT
HETATM    1  C   UNL     1     -11.136   6.134  72.633  1.00  0.00    -0.272 C  
HETATM    2  O   UNL     1     -12.096   6.640  71.705  1.00  0.00    -0.331 OA 
ENDROOT
BRANCH   2   3
HETATM    3  C   UNL     1     -11.758   7.824  71.101  1.00  0.00    -0.284 A  
HETATM    4  C   UNL     1     -12.225   9.053  71.599  1.00  0.00    -0.418 A  
HETATM    5  C   UNL     1     -12.004  10.258  70.951  1.00  0.00    -0.375 A  
HETATM    6  C   UNL     1     -11.237  10.251  69.794  1.00  0.00    -0.339 A  
HETATM    7  C   UNL     1     -10.659   9.040  69.343  1.00  0.00    -0.231 A  
HETATM    8  C   UNL     1     -11.123  11.491  69.169  1.00  0.00    -0.259 A  
HETATM    9  N   UNL     1     -10.334  11.670  68.027  1.00  0.00    -0.186 NA 
HETATM   10  N   UNL     1     -11.732  12.597  69.617  1.00  0.00    -0.313 NA 
HETATM   11  C   UNL     1     -10.922   7.822  69.979  1.00  0.00    -0.214 A  
HETATM   12  N   UNL     1     -12.558  11.367  71.446  1.00  0.00    -0.362 NA 
HETATM   13  H2  UNL     1     -10.641  10.994  67.327  1.00  0.00     0.000 HD 
HETATM   14  C   UNL     1     -12.436  12.507  70.753  1.00  0.00    -0.268 A  
HETATM   15  H1  UNL     1     -10.251  12.578  67.570  1.00  0.00     0.000 HD 
BRANCH  11  16
HETATM   16  O   UNL     1     -10.304   6.773  69.358  1.00  0.00    -0.183 OA 
HETATM   17  C   UNL     1     -10.953   6.119  68.279  1.00  0.00    -0.308 C  
ENDBRANCH  11  16
BRANCH  14  18
HETATM   18  N   UNL     1     -13.032  13.643  71.243  1.00  0.00    -0.339 NA 
HETATM   19  C   UNL     1     -13.406  13.702  72.639  1.00  0.00    -0.480 C  
BRANCH  18  20
HETATM   20  C   UNL     1     -13.127  14.837  70.419  1.00  0.00    -0.144 C  
BRANCH  20  21
HETATM   21  C   UNL     1     -12.077  15.883  70.815  1.00  0.00    -0.393 C  
BRANCH  21  22
HETATM   22  C   UNL     1     -11.080  16.165  69.691  1.00  0.00    -0.344 C  
BRANCH  22  23
HETATM   23  N   UNL     1     -11.561  15.700  68.406  1.00  0.00    -0.371 N  
HETATM   24  C   UNL     1     -10.755  15.041  67.509  1.00  0.00    -0.284 C  
HETATM   25  H   UNL     1     -12.536  15.869  68.158  1.00  0.00     0.000 HD 
HETATM   26  O   UNL     1      -9.565  14.817  67.709  1.00  0.00    -0.205 OA 
BRANCH  24  27
HETATM   27  C   UNL     1     -11.467  14.606  66.221  1.00  0.00    -0.351 C  
HETATM   28  C   UNL     1     -10.450  14.135  65.197  1.00  0.00    -0.422 C  
HETATM   29  C   UNL     1     -11.290  13.288  64.279  1.00  0.00    -0.428 C  
HETATM   30  C   UNL     1     -12.293  12.666  65.229  1.00  0.00    -0.466 C  
HETATM   31  O   UNL     1     -12.397  13.522  66.377  1.00  0.00    -0.407 OA 
ENDBRANCH  24  27
ENDBRANCH  22  23
ENDBRANCH  21  22
ENDBRANCH  20  21
ENDBRANCH  18  20
ENDBRANCH  14  18
ENDBRANCH   2   3
TORSDOF 8
ENDMDL
MODEL       19
REMARK 921   NORMALIZED FREE ENERGY PREDICTED BY IDOCK:   -6.22 KCAL/MOL
REMARK 922        TOTAL FREE ENERGY PREDICTED BY IDOCK:  -10.66 KCAL/MOL
REMARK 923 INTER-LIGAND FREE ENERGY PREDICTED BY IDOCK:   -9.78 KCAL/MOL
REMARK 924 INTRA-LIGAND FREE ENERGY PREDICTED BY IDOCK:   -0.88 KCAL/MOL
REMARK 927      BINDING AFFINITY PREDICTED BY RF-SCORE:    0.00 PKD
ROOT
HETATM    1  C   UNL     1      -6.760  18.082  68.478  1.00  0.00    -0.225 C  
HETATM    2  O   UNL     1      -8.111  17.829  68.862  1.00  0.00    -0.256 OA 
ENDROOT
BRANCH   2   3
HETATM    3  C   UNL     1      -8.914  17.318  67.875  1.00  0.00    -0.235 A  
HETATM    4  C   UNL     1      -9.129  15.933  67.756  1.00  0.00    -0.196 A  
HETATM    5  C   UNL     1      -9.835  15.372  66.705  1.00  0.00    -0.245 A  
HETATM    6  C   UNL     1     -10.404  16.221  65.766  1.00  0.00    -0.393 A  
HETATM    7  C   UNL     1     -10.300  17.622  65.934  1.00  0.00    -0.261 A  
HETATM    8  C   UNL     1     -11.036  15.571  64.707  1.00  0.00    -0.399 A  
HETATM    9  N   UNL     1     -11.712  16.280  63.708  1.00  0.00    -1.488 NA 
HETATM   10  N   UNL     1     -11.063  14.239  64.576  1.00  0.00    -0.350 NA 
HETATM   11  C   UNL     1      -9.548  18.181  66.974  1.00  0.00    -0.287 A  
HETATM   12  N   UNL     1      -9.917  14.042  66.622  1.00  0.00    -0.270 NA 
HETATM   13  H2  UNL     1     -11.062  16.962  63.314  1.00  0.00     0.000 HD 
HETATM   14  C   UNL     1     -10.502  13.503  65.544  1.00  0.00    -0.299 A  
HETATM   15  H1  UNL     1     -12.174  15.804  62.933  1.00  0.00     0.000 HD 
BRANCH  11  16
HETATM   16  O   UNL     1      -9.541  19.547  66.928  1.00  0.00    -0.314 OA 
HETATM   17  C   UNL     1      -8.606  20.212  66.093  1.00  0.00    -0.184 C  
ENDBRANCH  11  16
BRANCH  14  18
HETATM   18  N   UNL     1     -10.559  12.134  65.440  1.00  0.00    -0.263 NA 
HETATM   19  C   UNL     1     -10.763  11.530  64.142  1.00  0.00    -0.368 C  
BRANCH  18  20
HETATM   20  C   UNL     1     -10.244  11.297  66.586  1.00  0.00    -0.229 C  
BRANCH  20  21
HETATM   21  C   UNL     1     -10.004   9.838  66.172  1.00  0.00    -0.338 C  
BRANCH  21  22
HETATM   22  C   UNL     1     -10.622   8.843  67.154  1.00  0.00    -0.231 C  
BRANCH  22  23
HETATM   23  N   UNL     1     -11.065   9.485  68.374  1.00  0.00    -0.482 N  
HETATM   24  C   UNL     1     -10.647   9.077  69.619  1.00  0.00    -0.224 C  
HETATM   25  H   UNL     1     -11.712  10.270  68.308  1.00  0.00     0.000 HD 
HETATM   26  O   UNL     1      -9.891   8.126  69.798  1.00  0.00    -0.182 OA 
BRANCH  24  27
HETATM   27  C   UNL     1     -11.208   9.909  70.779  1.00  0.00    -0.353 C  
HETATM   28  C   UNL     1     -11.939  11.126  70.242  1.00  0.00    -0.460 C  
HETATM   29  C   UNL     1     -12.831  11.497  71.396  1.00  0.00    -0.489 C  
HETATM   30  C   UNL     1     -13.186  10.148  71.988  1.00  0.00    -0.430 C  
HETATM   31  O   UNL     1     -12.149   9.224  71.619  1.00  0.00    -0.331 OA 
ENDBRANCH  24  27
ENDBRANCH  22  23
ENDBRANCH  21  22
ENDBRANCH  20  21
ENDBRANCH  18  20
ENDBRANCH  14  18
ENDBRANCH   2   3
TORSDOF 8
ENDMDL
MODEL       20
REMARK 921   NORMALIZED FREE ENERGY PREDICTED BY IDOCK:   -6.18 KCAL/MOL
REMARK 922        TOTAL FREE ENERGY PREDICTED BY IDOCK:  -10.61 KCAL/MOL
REMARK 923 INTER-LIGAND FREE ENERGY PREDICTED BY IDOCK:   -9.62 KCAL/MOL
REMARK 924 INTRA-LIGAND FREE ENERGY PREDICTED BY IDOCK:   -0.99 KCAL/MOL
REMARK 927      BINDING AFFINITY PREDICTED BY RF-SCORE:    0.00 PKD
ROOT
HETATM    1  C   UNL     1     -11.563  12.299  63.597  1.00  0.00    -0.496 C  
HETATM    2  O   UNL     1     -10.459  12.002  64.452  1.00  0.00    -0.276 OA 
ENDROOT
BRANCH   2   3
HETATM    3  C   UNL     1     -10.789  11.666  65.739  1.00  0.00    -0.281 A  
HETATM    4  C   UNL     1     -11.455  12.575  66.580  1.00  0.00    -0.417 A  
HETATM    5  C   UNL     1     -11.700  12.316  67.919  1.00  0.00    -0.347 A  
HETATM    6  C   UNL     1     -11.324  11.082  68.431  1.00  0.00    -0.363 A  
HETATM    7  C   UNL     1     -10.760  10.109  67.571  1.00  0.00    -0.347 A  
HETATM    8  C   UNL     1     -11.543  10.932  69.799  1.00  0.00    -0.322 A  
HETATM    9  N   UNL     1     -11.276   9.728  70.459  1.00  0.00    -0.290 NA 
HETATM   10  N   UNL     1     -12.038  11.907  70.573  1.00  0.00    -0.372 NA 
HETATM   11  C   UNL     1     -10.477  10.393  66.230  1.00  0.00    -0.159 A  
HETATM   12  N   UNL     1     -12.259  13.270  68.667  1.00  0.00    -0.195 NA 
HETATM   13  H2  UNL     1     -10.307   9.475  70.268  1.00  0.00     0.000 HD 
HETATM   14  C   UNL     1     -12.388  13.057  69.983  1.00  0.00    -0.152 A  
HETATM   15  H1  UNL     1     -11.437   9.618  71.460  1.00  0.00     0.000 HD 
BRANCH  11  16
HETATM   16  O   UNL     1      -9.895   9.334  65.591  1.00  0.00    -0.289 OA 
HETATM   17  C   UNL     1      -9.515   8.191  66.340  1.00  0.00    -0.218 C  
ENDBRANCH  11  16
BRANCH  14  18
HETATM   18  N   UNL     1     -12.934  14.050  70.762  1.00  0.00    -0.274 NA 
HETATM   19  C   UNL     1     -13.531  13.706  72.033  1.00  0.00    -0.484 C  
BRANCH  18  20
HETATM   20  C   UNL     1     -12.761  15.446  70.399  1.00  0.00    -0.362 C  
BRANCH  20  21
HETATM   21  C   UNL     1     -11.423  16.001  70.906  1.00  0.00    -0.451 C  
BRANCH  21  22
HETATM   22  C   UNL     1     -10.313  15.896  69.860  1.00  0.00    -0.281 C  
BRANCH  22  23
HETATM   23  N   UNL     1     -10.254  17.066  69.009  1.00  0.00    -0.307 N  
HETATM   24  C   UNL     1     -10.567  17.024  67.671  1.00  0.00    -0.333 C  
HETATM   25  H   UNL     1      -9.969  17.956  69.418  1.00  0.00     0.000 HD 
HETATM   26  O   UNL     1     -10.894  15.995  67.087  1.00  0.00    -0.310 OA 
BRANCH  24  27
HETATM   27  C   UNL     1     -10.472  18.379  66.956  1.00  0.00    -0.399 C  
HETATM   28  C   UNL     1     -10.318  19.495  67.972  1.00  0.00    -0.564 C  
HETATM   29  C   UNL     1      -9.725  20.602  67.143  1.00  0.00    -0.530 C  
HETATM   30  C   UNL     1      -8.846  19.849  66.166  1.00  0.00    -0.306 C  
HETATM   31  O   UNL     1      -9.362  18.513  66.054  1.00  0.00    -0.496 OA 
ENDBRANCH  24  27
ENDBRANCH  22  23
ENDBRANCH  21  22
ENDBRANCH  20  21
ENDBRANCH  18  20
ENDBRANCH  14  18
ENDBRANCH   2   3
TORSDOF 8
ENDMDL
MODEL       21
REMARK 921   NORMALIZED FREE ENERGY PREDICTED BY IDOCK:   -6.18 KCAL/MOL
REMARK 922        TOTAL FREE ENERGY PREDICTED BY IDOCK:  -10.61 KCAL/MOL
REMARK 923 INTER-LIGAND FREE ENERGY PREDICTED BY IDOCK:   -9.93 KCAL/MOL
REMARK 924 INTRA-LIGAND FREE ENERGY PREDICTED BY IDOCK:   -0.68 KCAL/MOL
REMARK 927      BINDING AFFINITY PREDICTED BY RF-SCORE:    0.00 PKD
ROOT
HETATM    1  C   UNL     1      -8.136   6.253  69.896  1.00  0.00    -0.120 C  
HETATM    2  O   UNL     1      -8.210   7.112  71.034  1.00  0.00    -0.107 OA 
ENDROOT
BRANCH   2   3
HETATM    3  C   UNL     1      -9.341   7.882  71.114  1.00  0.00    -0.151 A  
HETATM    4  C   UNL     1      -9.566   8.940  70.215  1.00  0.00    -0.212 A  
HETATM    5  C   UNL     1     -10.636   9.812  70.337  1.00  0.00    -0.304 A  
HETATM    6  C   UNL     1     -11.554   9.590  71.353  1.00  0.00    -0.466 A  
HETATM    7  C   UNL     1     -11.410   8.460  72.194  1.00  0.00    -0.437 A  
HETATM    8  C   UNL     1     -12.558  10.552  71.447  1.00  0.00    -0.434 A  
HETATM    9  N   UNL     1     -13.597  10.444  72.378  1.00  0.00    -0.517 NA 
HETATM   10  N   UNL     1     -12.618  11.628  70.651  1.00  0.00    -0.270 NA 
HETATM   11  C   UNL     1     -10.304   7.609  72.092  1.00  0.00    -0.221 A  
HETATM   12  N   UNL     1     -10.725  10.843  69.493  1.00  0.00    -0.229 NA 
HETATM   13  H2  UNL     1     -13.178  10.338  73.302  1.00  0.00     0.000 HD 
HETATM   14  C   UNL     1     -11.696  11.745  69.687  1.00  0.00    -0.344 A  
HETATM   15  H1  UNL     1     -14.331  11.148  72.445  1.00  0.00     0.000 HD 
BRANCH  11  16
HETATM   16  O   UNL     1     -10.336   6.610  73.025  1.00  0.00    -0.194 OA 
HETATM   17  C   UNL     1     -11.045   5.414  72.743  1.00  0.00    -0.294 C  
ENDBRANCH  11  16
BRANCH  14  18
HETATM   18  N   UNL     1     -11.772  12.825  68.839  1.00  0.00    -0.310 NA 
HETATM   19  C   UNL     1     -11.830  14.159  69.394  1.00  0.00    -0.330 C  
BRANCH  18  20
HETATM   20  C   UNL     1     -11.618  12.644  67.405  1.00  0.00    -0.360 C  
BRANCH  20  21
HETATM   21  C   UNL     1     -12.203  13.825  66.620  1.00  0.00    -0.454 C  
BRANCH  21  22
HETATM   22  C   UNL     1     -11.203  14.420  65.627  1.00  0.00    -0.323 C  
BRANCH  22  23
HETATM   23  N   UNL     1     -10.547  15.598  66.155  1.00  0.00    -0.313 N  
HETATM   24  C   UNL     1     -10.593  16.817  65.519  1.00  0.00    -0.230 C  
HETATM   25  H   UNL     1     -10.032  15.522  67.031  1.00  0.00     0.000 HD 
HETATM   26  O   UNL     1     -11.165  16.998  64.449  1.00  0.00    -1.167 OA 
BRANCH  24  27
HETATM   27  C   UNL     1      -9.860  17.944  66.260  1.00  0.00    -0.301 C  
HETATM   28  C   UNL     1     -10.466  19.287  65.896  1.00  0.00    -0.534 C  
HETATM   29  C   UNL     1     -10.030  20.155  67.045  1.00  0.00    -0.596 C  
HETATM   30  C   UNL     1     -10.060  19.194  68.216  1.00  0.00    -0.416 C  
HETATM   31  O   UNL     1      -9.913  17.865  67.693  1.00  0.00    -0.299 OA 
ENDBRANCH  24  27
ENDBRANCH  22  23
ENDBRANCH  21  22
ENDBRANCH  20  21
ENDBRANCH  18  20
ENDBRANCH  14  18
ENDBRANCH   2   3
TORSDOF 8
ENDMDL
MODEL       22
REMARK 921   NORMALIZED FREE ENERGY PREDICTED BY IDOCK:   -6.15 KCAL/MOL
REMARK 922        TOTAL FREE ENERGY PREDICTED BY IDOCK:  -10.56 KCAL/MOL
REMARK 923 INTER-LIGAND FREE ENERGY PREDICTED BY IDOCK:   -9.02 KCAL/MOL
REMARK 924 INTRA-LIGAND FREE ENERGY PREDICTED BY IDOCK:   -1.55 KCAL/MOL
REMARK 927      BINDING AFFINITY PREDICTED BY RF-SCORE:    0.00 PKD
ROOT
HETATM    1  C   UNL     1     -12.740  15.925  73.790  1.00  0.00    -0.607 C  
HETATM    2  O   UNL     1     -13.620  15.603  72.713  1.00  0.00    -0.521 OA 
ENDROOT
BRANCH   2   3
HETATM    3  C   UNL     1     -13.233  14.541  71.937  1.00  0.00    -0.359 A  
HETATM    4  C   UNL     1     -13.546  13.220  72.304  1.00  0.00    -0.703 A  
HETATM    5  C   UNL     1     -13.073  12.118  71.611  1.00  0.00    -0.310 A  
HETATM    6  C   UNL     1     -12.308  12.334  70.473  1.00  0.00    -0.349 A  
HETATM    7  C   UNL     1     -12.082  13.656  70.021  1.00  0.00    -0.417 A  
HETATM    8  C   UNL     1     -11.816  11.174  69.878  1.00  0.00    -0.363 A  
HETATM    9  N   UNL     1     -11.079  11.212  68.690  1.00  0.00    -0.217 NA 
HETATM   10  N   UNL     1     -12.024   9.949  70.378  1.00  0.00    -0.232 NA 
HETATM   11  C   UNL     1     -12.527  14.765  70.750  1.00  0.00    -0.337 A  
HETATM   12  N   UNL     1     -13.346  10.897  72.079  1.00  0.00    -0.398 NA 
HETATM   13  H2  UNL     1     -10.294  11.850  68.829  1.00  0.00     0.000 HD 
HETATM   14  C   UNL     1     -12.791   9.841  71.471  1.00  0.00    -0.405 A  
HETATM   15  H1  UNL     1     -10.719  10.363  68.255  1.00  0.00     0.000 HD 
BRANCH  11  16
HETATM   16  O   UNL     1     -12.165  15.945  70.163  1.00  0.00    -0.342 OA 
HETATM   17  C   UNL     1     -11.422  15.925  68.955  1.00  0.00    -0.386 C  
ENDBRANCH  11  16
BRANCH  14  18
HETATM   18  N   UNL     1     -13.044   8.585  71.969  1.00  0.00    -0.355 NA 
HETATM   19  C   UNL     1     -14.380   8.038  71.868  1.00  0.00    -0.457 C  
BRANCH  18  20
HETATM   20  C   UNL     1     -11.952   7.745  72.432  1.00  0.00    -0.289 C  
BRANCH  20  21
HETATM   21  C   UNL     1     -11.949   6.382  71.728  1.00  0.00    -0.370 C  
BRANCH  21  22
HETATM   22  C   UNL     1     -11.543   6.484  70.257  1.00  0.00    -0.409 C  
BRANCH  22  23
HETATM   23  N   UNL     1     -10.310   7.222  70.083  1.00  0.00    -0.208 N  
HETATM   24  C   UNL     1      -9.857   7.624  68.848  1.00  0.00    -0.164 C  
HETATM   25  H   UNL     1      -9.755   7.452  70.907  1.00  0.00     0.000 HD 
HETATM   26  O   UNL     1     -10.442   7.370  67.800  1.00  0.00    -0.211 OA 
BRANCH  24  27
HETATM   27  C   UNL     1      -8.545   8.420  68.885  1.00  0.00    -0.135 C  
HETATM   28  C   UNL     1      -8.270   9.033  67.524  1.00  0.00    -0.109 C  
HETATM   29  C   UNL     1      -7.318  10.148  67.863  1.00  0.00    -0.087 C  
HETATM   30  C   UNL     1      -7.817  10.609  69.217  1.00  0.00    -0.138 C  
HETATM   31  O   UNL     1      -8.523   9.512  69.818  1.00  0.00    -0.142 OA 
ENDBRANCH  24  27
ENDBRANCH  22  23
ENDBRANCH  21  22
ENDBRANCH  20  21
ENDBRANCH  18  20
ENDBRANCH  14  18
ENDBRANCH   2   3
TORSDOF 8
ENDMDL
MODEL       23
REMARK 921   NORMALIZED FREE ENERGY PREDICTED BY IDOCK:   -6.15 KCAL/MOL
REMARK 922        TOTAL FREE ENERGY PREDICTED BY IDOCK:  -10.56 KCAL/MOL
REMARK 923 INTER-LIGAND FREE ENERGY PREDICTED BY IDOCK:   -9.98 KCAL/MOL
REMARK 924 INTRA-LIGAND FREE ENERGY PREDICTED BY IDOCK:   -0.58 KCAL/MOL
REMARK 927      BINDING AFFINITY PREDICTED BY RF-SCORE:    0.00 PKD
ROOT
HETATM    1  C   UNL     1      -9.976   7.778  70.919  1.00  0.00    -0.183 C  
HETATM    2  O   UNL     1     -11.253   8.000  70.321  1.00  0.00    -0.258 OA 
ENDROOT
BRANCH   2   3
HETATM    3  C   UNL     1     -11.834   9.207  70.611  1.00  0.00    -0.175 A  
HETATM    4  C   UNL     1     -11.494  10.369  69.897  1.00  0.00    -0.368 A  
HETATM    5  C   UNL     1     -11.970  11.625  70.238  1.00  0.00    -0.358 A  
HETATM    6  C   UNL     1     -12.868  11.725  71.291  1.00  0.00    -0.409 A  
HETATM    7  C   UNL     1     -13.315  10.551  71.945  1.00  0.00    -0.461 A  
HETATM    8  C   UNL     1     -13.242  13.029  71.611  1.00  0.00    -0.336 A  
HETATM    9  N   UNL     1     -14.187  13.300  72.607  1.00  0.00    -0.656 NA 
HETATM   10  N   UNL     1     -12.751  14.106  70.986  1.00  0.00    -0.343 NA 
HETATM   11  C   UNL     1     -12.797   9.292  71.624  1.00  0.00    -0.372 A  
HETATM   12  N   UNL     1     -11.527  12.687  69.561  1.00  0.00    -0.254 NA 
HETATM   13  H2  UNL     1     -13.876  12.844  73.465  1.00  0.00     0.000 HD 
HETATM   14  C   UNL     1     -11.902  13.907  69.969  1.00  0.00    -0.315 A  
HETATM   15  H1  UNL     1     -14.460  14.254  72.840  1.00  0.00     0.000 HD 
BRANCH  11  16
HETATM   16  O   UNL     1     -13.328   8.302  72.403  1.00  0.00    -0.239 OA 
HETATM   17  C   UNL     1     -14.347   7.468  71.875  1.00  0.00    -0.381 C  
ENDBRANCH  11  16
BRANCH  14  18
HETATM   18  N   UNL     1     -11.422  15.004  69.294  1.00  0.00    -0.288 NA 
HETATM   19  C   UNL     1     -10.284  15.720  69.825  1.00  0.00    -0.290 C  
BRANCH  18  20
HETATM   20  C   UNL     1     -11.936  15.338  67.976  1.00  0.00    -0.026 C  
BRANCH  20  21
HETATM   21  C   UNL     1     -11.510  14.304  66.924  1.00  0.00    -0.377 C  
BRANCH  21  22
HETATM   22  C   UNL     1     -10.357  14.799  66.052  1.00  0.00    -0.305 C  
BRANCH  22  23
HETATM   23  N   UNL     1     -10.045  16.192  66.299  1.00  0.00    -0.302 N  
HETATM   24  C   UNL     1     -10.545  17.211  65.525  1.00  0.00    -0.150 C  
HETATM   25  H   UNL     1      -9.430  16.425  67.079  1.00  0.00     0.000 HD 
HETATM   26  O   UNL     1     -11.270  17.025  64.552  1.00  0.00    -1.091 OA 
BRANCH  24  27
HETATM   27  C   UNL     1     -10.119  18.615  65.974  1.00  0.00    -0.297 C  
HETATM   28  C   UNL     1     -10.487  18.830  67.431  1.00  0.00    -0.490 C  
HETATM   29  C   UNL     1      -9.569  19.954  67.829  1.00  0.00    -0.496 C  
HETATM   30  C   UNL     1      -8.321  19.665  67.021  1.00  0.00    -0.294 C  
HETATM   31  O   UNL     1      -8.711  18.882  65.882  1.00  0.00    -0.464 OA 
ENDBRANCH  24  27
ENDBRANCH  22  23
ENDBRANCH  21  22
ENDBRANCH  20  21
ENDBRANCH  18  20
ENDBRANCH  14  18
ENDBRANCH   2   3
TORSDOF 8
ENDMDL
MODEL       24
REMARK 921   NORMALIZED FREE ENERGY PREDICTED BY IDOCK:   -6.13 KCAL/MOL
REMARK 922        TOTAL FREE ENERGY PREDICTED BY IDOCK:  -10.53 KCAL/MOL
REMARK 923 INTER-LIGAND FREE ENERGY PREDICTED BY IDOCK:   -9.33 KCAL/MOL
REMARK 924 INTRA-LIGAND FREE ENERGY PREDICTED BY IDOCK:   -1.20 KCAL/MOL
REMARK 927      BINDING AFFINITY PREDICTED BY RF-SCORE:    0.00 PKD
ROOT
HETATM    1  C   UNL     1     -13.942  14.731  72.652  1.00  0.00    -0.331 C  
HETATM    2  O   UNL     1     -13.580  13.351  72.680  1.00  0.00    -0.635 OA 
ENDROOT
BRANCH   2   3
HETATM    3  C   UNL     1     -12.977  12.880  71.542  1.00  0.00    -0.294 A  
HETATM    4  C   UNL     1     -12.422  13.760  70.596  1.00  0.00    -0.429 A  
HETATM    5  C   UNL     1     -11.911  13.330  69.382  1.00  0.00    -0.329 A  
HETATM    6  C   UNL     1     -11.894  11.967  69.121  1.00  0.00    -0.369 A  
HETATM    7  C   UNL     1     -12.339  11.058  70.110  1.00  0.00    -0.389 A  
HETATM    8  C   UNL     1     -11.429  11.628  67.851  1.00  0.00    -0.311 A  
HETATM    9  N   UNL     1     -11.290  10.294  67.451  1.00  0.00    -0.448 NA 
HETATM   10  N   UNL     1     -11.063  12.536  66.938  1.00  0.00    -0.265 NA 
HETATM   11  C   UNL     1     -12.893  11.502  71.316  1.00  0.00    -0.360 A  
HETATM   12  N   UNL     1     -11.483  14.241  68.505  1.00  0.00    -0.280 NA 
HETATM   13  H2  UNL     1     -12.189   9.832  67.589  1.00  0.00     0.000 HD 
HETATM   14  C   UNL     1     -11.098  13.828  67.290  1.00  0.00    -0.304 A  
HETATM   15  H1  UNL     1     -10.950  10.046  66.522  1.00  0.00     0.000 HD 
BRANCH  11  16
HETATM   16  O   UNL     1     -13.299  10.465  72.108  1.00  0.00    -0.441 OA 
HETATM   17  C   UNL     1     -12.923   9.139  71.770  1.00  0.00    -0.380 C  
ENDBRANCH  11  16
BRANCH  14  18
HETATM   18  N   UNL     1     -10.687  14.766  66.374  1.00  0.00    -0.306 NA 
HETATM   19  C   UNL     1     -10.224  16.055  66.838  1.00  0.00    -0.280 C  
BRANCH  18  20
HETATM   20  C   UNL     1     -10.552  14.411  64.971  1.00  0.00    -0.432 C  
BRANCH  20  21
HETATM   21  C   UNL     1     -11.872  13.888  64.389  1.00  0.00    -0.456 C  
BRANCH  21  22
HETATM   22  C   UNL     1     -11.674  12.653  63.510  1.00  0.00    -0.531 C  
BRANCH  22  23
HETATM   23  N   UNL     1     -10.941  11.609  64.193  1.00  0.00    -0.357 N  
HETATM   24  C   UNL     1      -9.861  10.972  63.628  1.00  0.00    -0.351 C  
HETATM   25  H   UNL     1     -11.236  11.335  65.130  1.00  0.00     0.000 HD 
HETATM   26  O   UNL     1      -9.450  11.216  62.498  1.00  0.00    -0.299 OA 
BRANCH  24  27
HETATM   27  C   UNL     1      -9.204   9.919  64.531  1.00  0.00    -0.261 C  
HETATM   28  C   UNL     1      -8.046   9.260  63.806  1.00  0.00    -0.155 C  
HETATM   29  C   UNL     1      -7.235   8.700  64.943  1.00  0.00    -0.084 C  
HETATM   30  C   UNL     1      -7.430   9.736  66.030  1.00  0.00    -0.102 C  
HETATM   31  O   UNL     1      -8.660  10.426  65.760  1.00  0.00    -0.152 OA 
ENDBRANCH  24  27
ENDBRANCH  22  23
ENDBRANCH  21  22
ENDBRANCH  20  21
ENDBRANCH  18  20
ENDBRANCH  14  18
ENDBRANCH   2   3
TORSDOF 8
ENDMDL
MODEL       25
REMARK 921   NORMALIZED FREE ENERGY PREDICTED BY IDOCK:   -6.11 KCAL/MOL
REMARK 922        TOTAL FREE ENERGY PREDICTED BY IDOCK:  -10.50 KCAL/MOL
REMARK 923 INTER-LIGAND FREE ENERGY PREDICTED BY IDOCK:   -9.30 KCAL/MOL
REMARK 924 INTRA-LIGAND FREE ENERGY PREDICTED BY IDOCK:   -1.21 KCAL/MOL
REMARK 927      BINDING AFFINITY PREDICTED BY RF-SCORE:    0.00 PKD
ROOT
HETATM    1  C   UNL     1     -10.394   5.723  69.634  1.00  0.00    -0.260 C  
HETATM    2  O   UNL     1     -10.360   6.867  70.487  1.00  0.00    -0.201 OA 
ENDROOT
BRANCH   2   3
HETATM    3  C   UNL     1     -10.652   8.061  69.878  1.00  0.00    -0.242 A  
HETATM    4  C   UNL     1     -10.381   8.266  68.513  1.00  0.00    -0.230 A  
HETATM    5  C   UNL     1     -10.553   9.493  67.891  1.00  0.00    -0.244 A  
HETATM    6  C   UNL     1     -11.071  10.542  68.637  1.00  0.00    -0.319 A  
HETATM    7  C   UNL     1     -11.461  10.322  69.980  1.00  0.00    -0.367 A  
HETATM    8  C   UNL     1     -11.144  11.755  67.955  1.00  0.00    -0.242 A  
HETATM    9  N   UNL     1     -11.700  12.897  68.543  1.00  0.00    -0.320 NA 
HETATM   10  N   UNL     1     -10.716  11.915  66.696  1.00  0.00    -0.245 NA 
HETATM   11  C   UNL     1     -11.246   9.093  70.613  1.00  0.00    -0.270 A  
HETATM   12  N   UNL     1     -10.187   9.623  66.614  1.00  0.00    -0.239 NA 
HETATM   13  H2  UNL     1     -11.213  13.063  69.424  1.00  0.00     0.000 HD 
HETATM   14  C   UNL     1     -10.248  10.838  66.052  1.00  0.00    -0.251 A  
HETATM   15  H1  UNL     1     -11.753  13.784  68.043  1.00  0.00     0.000 HD 
BRANCH  11  16
HETATM   16  O   UNL     1     -11.653   9.107  71.918  1.00  0.00    -0.358 OA 
HETATM   17  C   UNL     1     -13.003   8.806  72.231  1.00  0.00    -0.408 C  
ENDBRANCH  11  16
BRANCH  14  18
HETATM   18  N   UNL     1      -9.843  10.982  64.747  1.00  0.00    -0.254 NA 
HETATM   19  C   UNL     1      -9.433   9.814  63.999  1.00  0.00    -0.065 C  
BRANCH  18  20
HETATM   20  C   UNL     1      -9.990  12.260  64.070  1.00  0.00    -0.258 C  
BRANCH  20  21
HETATM   21  C   UNL     1     -11.395  12.428  63.478  1.00  0.00    -0.553 C  
BRANCH  21  22
HETATM   22  C   UNL     1     -12.077  13.714  63.948  1.00  0.00    -0.411 C  
BRANCH  22  23
HETATM   23  N   UNL     1     -11.283  14.425  64.928  1.00  0.00    -0.370 N  
HETATM   24  C   UNL     1     -11.086  15.784  64.876  1.00  0.00    -0.399 C  
HETATM   25  H   UNL     1     -10.854  13.896  65.687  1.00  0.00     0.000 HD 
HETATM   26  O   UNL     1     -11.541  16.498  63.986  1.00  0.00    -1.154 OA 
BRANCH  24  27
HETATM   27  C   UNL     1     -10.241  16.346  66.027  1.00  0.00    -0.356 C  
HETATM   28  C   UNL     1      -9.361  15.255  66.608  1.00  0.00    -0.285 C  
HETATM   29  C   UNL     1      -8.283  16.048  67.296  1.00  0.00    -0.209 C  
HETATM   30  C   UNL     1      -8.123  17.248  66.387  1.00  0.00    -0.293 C  
HETATM   31  O   UNL     1      -9.353  17.415  65.664  1.00  0.00    -0.496 OA 
ENDBRANCH  24  27
ENDBRANCH  22  23
ENDBRANCH  21  22
ENDBRANCH  20  21
ENDBRANCH  18  20
ENDBRANCH  14  18
ENDBRANCH   2   3
TORSDOF 8
ENDMDL
MODEL       26
REMARK 921   NORMALIZED FREE ENERGY PREDICTED BY IDOCK:   -6.10 KCAL/MOL
REMARK 922        TOTAL FREE ENERGY PREDICTED BY IDOCK:  -10.50 KCAL/MOL
REMARK 923 INTER-LIGAND FREE ENERGY PREDICTED BY IDOCK:   -8.73 KCAL/MOL
REMARK 924 INTRA-LIGAND FREE ENERGY PREDICTED BY IDOCK:   -1.77 KCAL/MOL
REMARK 927      BINDING AFFINITY PREDICTED BY RF-SCORE:    0.00 PKD
ROOT
HETATM    1  C   UNL     1     -10.698  14.261  69.227  1.00  0.00    -0.172 C  
HETATM    2  O   UNL     1     -12.055  14.016  69.595  1.00  0.00    -0.321 OA 
ENDROOT
BRANCH   2   3
HETATM    3  C   UNL     1     -12.270  12.867  70.311  1.00  0.00    -0.289 A  
HETATM    4  C   UNL     1     -11.543  11.694  70.039  1.00  0.00    -0.338 A  
HETATM    5  C   UNL     1     -11.812  10.485  70.660  1.00  0.00    -0.360 A  
HETATM    6  C   UNL     1     -12.801  10.450  71.633  1.00  0.00    -0.579 A  
HETATM    7  C   UNL     1     -13.461  11.645  72.005  1.00  0.00    -0.304 A  
HETATM    8  C   UNL     1     -13.055   9.182  72.154  1.00  0.00    -0.446 A  
HETATM    9  N   UNL     1     -13.978   8.983  73.187  1.00  0.00    -1.215 NA 
HETATM   10  N   UNL     1     -12.429   8.077  71.730  1.00  0.00    -0.313 NA 
HETATM   11  C   UNL     1     -13.214  12.854  71.344  1.00  0.00    -0.176 A  
HETATM   12  N   UNL     1     -11.133   9.400  70.278  1.00  0.00    -0.248 NA 
HETATM   13  H2  UNL     1     -14.868   9.384  72.891  1.00  0.00     0.000 HD 
HETATM   14  C   UNL     1     -11.477   8.215  70.799  1.00  0.00    -0.261 A  
HETATM   15  H1  UNL     1     -14.163   8.056  73.568  1.00  0.00     0.000 HD 
BRANCH  11  16
HETATM   16  O   UNL     1     -13.987  13.872  71.827  1.00  0.00    -0.384 OA 
HETATM   17  C   UNL     1     -13.437  14.782  72.767  1.00  0.00    -0.474 C  
ENDBRANCH  11  16
BRANCH  14  18
HETATM   18  N   UNL     1     -10.801   7.092  70.385  1.00  0.00    -0.239 NA 
HETATM   19  C   UNL     1      -9.518   6.778  70.975  1.00  0.00    -0.164 C  
BRANCH  18  20
HETATM   20  C   UNL     1     -11.440   6.137  69.495  1.00  0.00    -0.229 C  
BRANCH  20  21
HETATM   21  C   UNL     1     -10.619   5.914  68.218  1.00  0.00    -0.310 C  
BRANCH  21  22
HETATM   22  C   UNL     1     -10.965   6.918  67.118  1.00  0.00    -0.357 C  
BRANCH  22  23
HETATM   23  N   UNL     1     -10.556   8.264  67.461  1.00  0.00    -0.422 N  
HETATM   24  C   UNL     1      -9.676   8.988  66.691  1.00  0.00    -0.230 C  
HETATM   25  H   UNL     1     -10.936   8.692  68.305  1.00  0.00     0.000 HD 
HETATM   26  O   UNL     1      -9.149   8.547  65.675  1.00  0.00    -0.187 OA 
BRANCH  24  27
HETATM   27  C   UNL     1      -9.399  10.405  67.211  1.00  0.00    -0.146 C  
HETATM   28  C   UNL     1      -8.464  10.349  68.405  1.00  0.00    -0.124 C  
HETATM   29  C   UNL     1      -7.901  11.744  68.435  1.00  0.00    -0.141 C  
HETATM   30  C   UNL     1      -7.819  12.100  66.965  1.00  0.00    -0.123 C  
HETATM   31  O   UNL     1      -8.776  11.289  66.266  1.00  0.00    -0.179 OA 
ENDBRANCH  24  27
ENDBRANCH  22  23
ENDBRANCH  21  22
ENDBRANCH  20  21
ENDBRANCH  18  20
ENDBRANCH  14  18
ENDBRANCH   2   3
TORSDOF 8
ENDMDL
MODEL       27
REMARK 921   NORMALIZED FREE ENERGY PREDICTED BY IDOCK:   -6.09 KCAL/MOL
REMARK 922        TOTAL FREE ENERGY PREDICTED BY IDOCK:  -10.47 KCAL/MOL
REMARK 923 INTER-LIGAND FREE ENERGY PREDICTED BY IDOCK:   -8.94 KCAL/MOL
REMARK 924 INTRA-LIGAND FREE ENERGY PREDICTED BY IDOCK:   -1.54 KCAL/MOL
REMARK 927      BINDING AFFINITY PREDICTED BY RF-SCORE:    0.00 PKD
ROOT
HETATM    1  C   UNL     1     -11.853  15.006  64.581  1.00  0.00    -0.375 C  
HETATM    2  O   UNL     1     -11.948  13.726  63.956  1.00  0.00    -0.439 OA 
ENDROOT
BRANCH   2   3
HETATM    3  C   UNL     1     -11.413  12.685  64.670  1.00  0.00    -0.330 A  
HETATM    4  C   UNL     1     -11.909  12.344  65.941  1.00  0.00    -0.467 A  
HETATM    5  C   UNL     1     -11.320  11.378  66.741  1.00  0.00    -0.179 A  
HETATM    6  C   UNL     1     -10.233  10.679  66.236  1.00  0.00    -0.304 A  
HETATM    7  C   UNL     1      -9.794  10.925  64.913  1.00  0.00    -0.339 A  
HETATM    8  C   UNL     1      -9.659   9.777  67.130  1.00  0.00    -0.169 A  
HETATM    9  N   UNL     1      -8.594   8.949  66.759  1.00  0.00    -0.114 NA 
HETATM   10  N   UNL     1     -10.089   9.619  68.389  1.00  0.00    -0.169 NA 
HETATM   11  C   UNL     1     -10.366  11.932  64.127  1.00  0.00    -0.336 A  
HETATM   12  N   UNL     1     -11.801  11.178  67.970  1.00  0.00    -0.620 NA 
HETATM   13  H2  UNL     1      -7.849   9.543  66.393  1.00  0.00     0.000 HD 
HETATM   14  C   UNL     1     -11.158  10.326  68.778  1.00  0.00    -0.228 A  
HETATM   15  H1  UNL     1      -8.175   8.289  67.414  1.00  0.00     0.000 HD 
BRANCH  11  16
HETATM   16  O   UNL     1      -9.767  12.033  62.903  1.00  0.00    -0.334 OA 
HETATM   17  C   UNL     1      -9.043  10.927  62.386  1.00  0.00    -0.293 C  
ENDBRANCH  11  16
BRANCH  14  18
HETATM   18  N   UNL     1     -11.632  10.142  70.055  1.00  0.00    -0.262 NA 
HETATM   19  C   UNL     1     -10.727   9.694  71.090  1.00  0.00    -0.294 C  
BRANCH  18  20
HETATM   20  C   UNL     1     -12.980  10.560  70.404  1.00  0.00    -0.144 C  
BRANCH  20  21
HETATM   21  C   UNL     1     -13.038  11.162  71.815  1.00  0.00    -0.536 C  
BRANCH  21  22
HETATM   22  C   UNL     1     -13.049  12.691  71.798  1.00  0.00    -0.360 C  
BRANCH  22  23
HETATM   23  N   UNL     1     -12.157  13.231  70.792  1.00  0.00    -0.502 N  
HETATM   24  C   UNL     1     -12.093  14.574  70.505  1.00  0.00    -0.325 C  
HETATM   25  H   UNL     1     -11.554  12.590  70.277  1.00  0.00     0.000 HD 
HETATM   26  O   UNL     1     -12.799  15.415  71.054  1.00  0.00    -0.399 OA 
BRANCH  24  27
HETATM   27  C   UNL     1     -11.061  14.943  69.431  1.00  0.00    -0.280 C  
HETATM   28  C   UNL     1     -11.617  16.023  68.522  1.00  0.00    -0.316 C  
HETATM   29  C   UNL     1     -10.368  16.611  67.924  1.00  0.00    -0.310 C  
HETATM   30  C   UNL     1      -9.376  16.510  69.064  1.00  0.00    -0.239 C  
HETATM   31  O   UNL     1      -9.817  15.455  69.934  1.00  0.00    -0.270 OA 
ENDBRANCH  24  27
ENDBRANCH  22  23
ENDBRANCH  21  22
ENDBRANCH  20  21
ENDBRANCH  18  20
ENDBRANCH  14  18
ENDBRANCH   2   3
TORSDOF 8
ENDMDL
MODEL       28
REMARK 921   NORMALIZED FREE ENERGY PREDICTED BY IDOCK:   -6.06 KCAL/MOL
REMARK 922        TOTAL FREE ENERGY PREDICTED BY IDOCK:  -10.43 KCAL/MOL
REMARK 923 INTER-LIGAND FREE ENERGY PREDICTED BY IDOCK:   -9.47 KCAL/MOL
REMARK 924 INTRA-LIGAND FREE ENERGY PREDICTED BY IDOCK:   -0.97 KCAL/MOL
REMARK 927      BINDING AFFINITY PREDICTED BY RF-SCORE:    0.00 PKD
ROOT
HETATM    1  C   UNL     1     -10.082   7.814  68.811  1.00  0.00    -0.196 C  
HETATM    2  O   UNL     1     -10.906   7.696  69.971  1.00  0.00    -0.246 OA 
ENDROOT
BRANCH   2   3
HETATM    3  C   UNL     1     -11.548   8.845  70.353  1.00  0.00    -0.101 A  
HETATM    4  C   UNL     1     -11.275  10.074  69.725  1.00  0.00    -0.307 A  
HETATM    5  C   UNL     1     -11.814  11.274  70.160  1.00  0.00    -0.364 A  
HETATM    6  C   UNL     1     -12.709  11.247  71.221  1.00  0.00    -0.510 A  
HETATM    7  C   UNL     1     -13.088  10.007  71.787  1.00  0.00    -0.562 A  
HETATM    8  C   UNL     1     -13.148  12.503  71.638  1.00  0.00    -0.315 A  
HETATM    9  N   UNL     1     -14.099  12.649  72.654  1.00  0.00    -0.530 NA 
HETATM   10  N   UNL     1     -12.718  13.648  71.092  1.00  0.00    -0.355 NA 
HETATM   11  C   UNL     1     -12.507   8.804  71.371  1.00  0.00    -0.303 A  
HETATM   12  N   UNL     1     -11.432  12.405  69.563  1.00  0.00    -0.264 NA 
HETATM   13  H2  UNL     1     -13.758  12.148  73.475  1.00  0.00     0.000 HD 
HETATM   14  C   UNL     1     -11.868  13.570  70.061  1.00  0.00    -0.301 A  
HETATM   15  H1  UNL     1     -14.420  13.567  72.959  1.00  0.00     0.000 HD 
BRANCH  11  16
HETATM   16  O   UNL     1     -12.980   7.733  72.077  1.00  0.00    -0.292 OA 
HETATM   17  C   UNL     1     -14.359   7.409  72.013  1.00  0.00    -0.287 C  
ENDBRANCH  11  16
BRANCH  14  18
HETATM   18  N   UNL     1     -11.451  14.737  69.468  1.00  0.00    -0.282 NA 
HETATM   19  C   UNL     1     -12.230  15.942  69.651  1.00  0.00    -0.115 C  
BRANCH  18  20
HETATM   20  C   UNL     1     -10.156  14.806  68.813  1.00  0.00    -0.237 C  
BRANCH  20  21
HETATM   21  C   UNL     1      -9.728  16.258  68.556  1.00  0.00    -0.224 C  
BRANCH  21  22
HETATM   22  C   UNL     1     -10.019  16.708  67.124  1.00  0.00    -0.268 C  
BRANCH  22  23
HETATM   23  N   UNL     1     -10.572  15.640  66.319  1.00  0.00    -0.303 N  
HETATM   24  C   UNL     1     -11.121  15.858  65.077  1.00  0.00    -0.360 C  
HETATM   25  H   UNL     1     -10.554  14.689  66.686  1.00  0.00     0.000 HD 
HETATM   26  O   UNL     1     -11.211  16.970  64.565  1.00  0.00    -1.091 OA 
BRANCH  24  27
HETATM   27  C   UNL     1     -11.622  14.588  64.375  1.00  0.00    -0.313 C  
HETATM   28  C   UNL     1     -10.816  13.387  64.833  1.00  0.00    -0.363 C  
HETATM   29  C   UNL     1     -11.732  12.241  64.498  1.00  0.00    -0.421 C  
HETATM   30  C   UNL     1     -13.104  12.830  64.750  1.00  0.00     0.066 C  
HETATM   31  O   UNL     1     -12.997  14.257  64.626  1.00  0.00    -0.621 OA 
ENDBRANCH  24  27
ENDBRANCH  22  23
ENDBRANCH  21  22
ENDBRANCH  20  21
ENDBRANCH  18  20
ENDBRANCH  14  18
ENDBRANCH   2   3
TORSDOF 8
ENDMDL
MODEL       29
REMARK 921   NORMALIZED FREE ENERGY PREDICTED BY IDOCK:   -6.04 KCAL/MOL
REMARK 922        TOTAL FREE ENERGY PREDICTED BY IDOCK:  -10.41 KCAL/MOL
REMARK 923 INTER-LIGAND FREE ENERGY PREDICTED BY IDOCK:   -9.03 KCAL/MOL
REMARK 924 INTRA-LIGAND FREE ENERGY PREDICTED BY IDOCK:   -1.37 KCAL/MOL
REMARK 927      BINDING AFFINITY PREDICTED BY RF-SCORE:    0.00 PKD
ROOT
HETATM    1  C   UNL     1      -8.980   7.868  69.783  1.00  0.00    -0.146 C  
HETATM    2  O   UNL     1     -10.403   7.762  69.823  1.00  0.00    -0.210 OA 
ENDROOT
BRANCH   2   3
HETATM    3  C   UNL     1     -11.067   8.921  70.135  1.00  0.00    -0.201 A  
HETATM    4  C   UNL     1     -11.030  10.034  69.278  1.00  0.00    -0.264 A  
HETATM    5  C   UNL     1     -11.589  11.257  69.613  1.00  0.00    -0.330 A  
HETATM    6  C   UNL     1     -12.265  11.363  70.820  1.00  0.00    -0.475 A  
HETATM    7  C   UNL     1     -12.416  10.221  71.642  1.00  0.00    -0.491 A  
HETATM    8  C   UNL     1     -12.734  12.643  71.110  1.00  0.00    -0.254 A  
HETATM    9  N   UNL     1     -13.489  12.908  72.257  1.00  0.00    -0.576 NA 
HETATM   10  N   UNL     1     -12.522  13.699  70.313  1.00  0.00    -0.299 NA 
HETATM   11  C   UNL     1     -11.812   9.000  71.317  1.00  0.00    -0.312 A  
HETATM   12  N   UNL     1     -11.431  12.287  68.778  1.00  0.00    -0.285 NA 
HETATM   13  H2  UNL     1     -12.957  12.580  73.064  1.00  0.00     0.000 HD 
HETATM   14  C   UNL     1     -11.874  13.493  69.159  1.00  0.00    -0.340 A  
HETATM   15  H1  UNL     1     -13.832  13.844  72.469  1.00  0.00     0.000 HD 
BRANCH  11  16
HETATM   16  O   UNL     1     -12.044   8.043  72.265  1.00  0.00    -0.329 OA 
HETATM   17  C   UNL     1     -10.973   7.593  73.079  1.00  0.00    -0.400 C  
ENDBRANCH  11  16
BRANCH  14  18
HETATM   18  N   UNL     1     -11.685  14.561  68.317  1.00  0.00    -0.328 NA 
HETATM   19  C   UNL     1     -11.648  15.899  68.865  1.00  0.00    -0.388 C  
BRANCH  18  20
HETATM   20  C   UNL     1     -11.350  14.344  66.919  1.00  0.00    -0.348 C  
BRANCH  20  21
HETATM   21  C   UNL     1     -12.608  14.166  66.057  1.00  0.00    -0.407 C  
BRANCH  21  22
HETATM   22  C   UNL     1     -12.541  12.918  65.177  1.00  0.00    -0.471 C  
BRANCH  22  23
HETATM   23  N   UNL     1     -11.406  12.080  65.504  1.00  0.00    -0.341 N  
HETATM   24  C   UNL     1     -10.622  11.488  64.542  1.00  0.00    -0.329 C  
HETATM   25  H   UNL     1     -11.180  11.923  66.486  1.00  0.00     0.000 HD 
HETATM   26  O   UNL     1     -10.833  11.599  63.338  1.00  0.00    -0.391 OA 
BRANCH  24  27
HETATM   27  C   UNL     1      -9.451  10.667  65.098  1.00  0.00    -0.227 C  
HETATM   28  C   UNL     1      -9.975   9.488  65.898  1.00  0.00    -0.342 C  
HETATM   29  C   UNL     1      -8.795   8.553  65.898  1.00  0.00    -0.219 C  
HETATM   30  C   UNL     1      -8.181   8.796  64.535  1.00  0.00    -0.167 C  
HETATM   31  O   UNL     1      -8.574  10.110  64.107  1.00  0.00    -0.163 OA 
ENDBRANCH  24  27
ENDBRANCH  22  23
ENDBRANCH  21  22
ENDBRANCH  20  21
ENDBRANCH  18  20
ENDBRANCH  14  18
ENDBRANCH   2   3
TORSDOF 8
ENDMDL
MODEL       30
REMARK 921   NORMALIZED FREE ENERGY PREDICTED BY IDOCK:   -6.03 KCAL/MOL
REMARK 922        TOTAL FREE ENERGY PREDICTED BY IDOCK:  -10.39 KCAL/MOL
REMARK 923 INTER-LIGAND FREE ENERGY PREDICTED BY IDOCK:   -8.45 KCAL/MOL
REMARK 924 INTRA-LIGAND FREE ENERGY PREDICTED BY IDOCK:   -1.93 KCAL/MOL
REMARK 927      BINDING AFFINITY PREDICTED BY RF-SCORE:    0.00 PKD
ROOT
HETATM    1  C   UNL     1      -6.917  16.817  66.864  1.00  0.00    -0.222 C  
HETATM    2  O   UNL     1      -8.260  16.788  66.381  1.00  0.00    -0.260 OA 
ENDROOT
BRANCH   2   3
HETATM    3  C   UNL     1      -9.168  16.185  67.213  1.00  0.00    -0.208 A  
HETATM    4  C   UNL     1      -9.112  14.804  67.472  1.00  0.00    -0.191 A  
HETATM    5  C   UNL     1     -10.079  14.141  68.210  1.00  0.00    -0.241 A  
HETATM    6  C   UNL     1     -11.110  14.886  68.765  1.00  0.00    -0.274 A  
HETATM    7  C   UNL     1     -11.117  16.293  68.616  1.00  0.00    -0.356 A  
HETATM    8  C   UNL     1     -12.074  14.132  69.432  1.00  0.00    -0.328 A  
HETATM    9  N   UNL     1     -13.146  14.734  70.100  1.00  0.00    -0.569 NA 
HETATM   10  N   UNL     1     -12.039  12.795  69.502  1.00  0.00    -0.251 NA 
HETATM   11  C   UNL     1     -10.161  16.951  67.833  1.00  0.00    -0.308 A  
HETATM   12  N   UNL     1      -9.997  12.814  68.334  1.00  0.00    -0.227 NA 
HETATM   13  H2  UNL     1     -13.627  15.340  69.435  1.00  0.00     0.000 HD 
HETATM   14  C   UNL     1     -10.994  12.166  68.950  1.00  0.00    -0.224 A  
HETATM   15  H1  UNL     1     -13.852  14.182  70.587  1.00  0.00     0.000 HD 
BRANCH  11  16
HETATM   16  O   UNL     1     -10.376  18.300  67.784  1.00  0.00    -0.364 OA 
HETATM   17  C   UNL     1      -9.811  19.134  68.783  1.00  0.00    -0.439 C  
ENDBRANCH  11  16
BRANCH  14  18
HETATM   18  N   UNL     1     -10.928  10.797  69.051  1.00  0.00    -0.221 NA 
HETATM   19  C   UNL     1     -11.024  10.177  70.354  1.00  0.00    -0.319 C  
BRANCH  18  20
HETATM   20  C   UNL     1     -10.938   9.971  67.855  1.00  0.00    -0.252 C  
BRANCH  20  21
HETATM   21  C   UNL     1      -9.527   9.500  67.480  1.00  0.00    -0.155 C  
BRANCH  21  22
HETATM   22  C   UNL     1      -9.030  10.125  66.176  1.00  0.00    -0.150 C  
BRANCH  22  23
HETATM   23  N   UNL     1      -9.895  11.191  65.718  1.00  0.00    -0.224 N  
HETATM   24  C   UNL     1     -10.285  11.315  64.405  1.00  0.00    -0.320 C  
HETATM   25  H   UNL     1     -10.227  11.878  66.395  1.00  0.00     0.000 HD 
HETATM   26  O   UNL     1      -9.915  10.554  63.517  1.00  0.00    -0.317 OA 
BRANCH  24  27
HETATM   27  C   UNL     1     -11.229  12.495  64.135  1.00  0.00    -0.382 C  
HETATM   28  C   UNL     1     -12.369  12.492  65.136  1.00  0.00    -0.496 C  
HETATM   29  C   UNL     1     -12.847  13.917  65.080  1.00  0.00    -0.383 C  
HETATM   30  C   UNL     1     -11.564  14.688  64.848  1.00  0.00    -0.405 C  
HETATM   31  O   UNL     1     -10.622  13.793  64.235  1.00  0.00    -0.367 OA 
ENDBRANCH  24  27
ENDBRANCH  22  23
ENDBRANCH  21  22
ENDBRANCH  20  21
ENDBRANCH  18  20
ENDBRANCH  14  18
ENDBRANCH   2   3
TORSDOF 8
ENDMDL
MODEL       31
REMARK 921   NORMALIZED FREE ENERGY PREDICTED BY IDOCK:   -6.02 KCAL/MOL
REMARK 922        TOTAL FREE ENERGY PREDICTED BY IDOCK:  -10.37 KCAL/MOL
REMARK 923 INTER-LIGAND FREE ENERGY PREDICTED BY IDOCK:   -9.17 KCAL/MOL
REMARK 924 INTRA-LIGAND FREE ENERGY PREDICTED BY IDOCK:   -1.20 KCAL/MOL
REMARK 927      BINDING AFFINITY PREDICTED BY RF-SCORE:    0.00 PKD
ROOT
HETATM    1  C   UNL     1     -13.284  11.291  71.893  1.00  0.00    -0.386 C  
HETATM    2  O   UNL     1     -13.049  12.560  72.502  1.00  0.00    -0.298 OA 
ENDROOT
BRANCH   2   3
HETATM    3  C   UNL     1     -12.618  13.546  71.652  1.00  0.00    -0.217 A  
HETATM    4  C   UNL     1     -12.655  13.372  70.258  1.00  0.00    -0.187 A  
HETATM    5  C   UNL     1     -12.122  14.295  69.373  1.00  0.00    -0.318 A  
HETATM    6  C   UNL     1     -11.585  15.467  69.887  1.00  0.00    -0.342 A  
HETATM    7  C   UNL     1     -11.647  15.714  71.280  1.00  0.00    -0.485 A  
HETATM    8  C   UNL     1     -11.009  16.306  68.936  1.00  0.00    -0.334 A  
HETATM    9  N   UNL     1     -10.478  17.554  69.280  1.00  0.00    -0.378 NA 
HETATM   10  N   UNL     1     -10.938  15.998  67.634  1.00  0.00    -0.313 NA 
HETATM   11  C   UNL     1     -12.149  14.758  72.171  1.00  0.00    -0.297 A  
HETATM   12  N   UNL     1     -12.119  14.010  68.068  1.00  0.00    -0.338 NA 
HETATM   13  H2  UNL     1      -9.795  17.408  70.024  1.00  0.00     0.000 HD 
HETATM   14  C   UNL     1     -11.501  14.852  67.230  1.00  0.00    -0.340 A  
HETATM   15  H1  UNL     1     -10.056  18.167  68.584  1.00  0.00     0.000 HD 
BRANCH  11  16
HETATM   16  O   UNL     1     -12.076  15.178  73.470  1.00  0.00    -0.435 OA 
HETATM   17  C   UNL     1     -12.600  16.447  73.824  1.00  0.00    -0.450 C  
ENDBRANCH  11  16
BRANCH  14  18
HETATM   18  N   UNL     1     -11.469  14.545  65.891  1.00  0.00    -0.342 NA 
HETATM   19  C   UNL     1     -10.357  15.000  65.086  1.00  0.00    -0.392 C  
BRANCH  18  20
HETATM   20  C   UNL     1     -12.445  13.629  65.325  1.00  0.00    -0.479 C  
BRANCH  20  21
HETATM   21  C   UNL     1     -12.105  13.268  63.872  1.00  0.00    -0.531 C  
BRANCH  21  22
HETATM   22  C   UNL     1     -11.301  11.972  63.765  1.00  0.00    -0.445 C  
BRANCH  22  23
HETATM   23  N   UNL     1     -11.021  11.395  65.063  1.00  0.00    -0.245 N  
HETATM   24  C   UNL     1     -10.096  10.395  65.244  1.00  0.00    -0.300 C  
HETATM   25  H   UNL     1     -11.529  11.745  65.875  1.00  0.00     0.000 HD 
HETATM   26  O   UNL     1      -9.456   9.894  64.324  1.00  0.00    -0.284 OA 
BRANCH  24  27
HETATM   27  C   UNL     1      -9.926   9.945  66.702  1.00  0.00    -0.217 C  
HETATM   28  C   UNL     1      -8.947  10.857  67.418  1.00  0.00    -0.136 C  
HETATM   29  C   UNL     1      -9.299  10.632  68.863  1.00  0.00    -0.191 C  
HETATM   30  C   UNL     1     -10.798  10.422  68.809  1.00  0.00    -0.232 C  
HETATM   31  O   UNL     1     -11.128   9.966  67.487  1.00  0.00    -0.257 OA 
ENDBRANCH  24  27
ENDBRANCH  22  23
ENDBRANCH  21  22
ENDBRANCH  20  21
ENDBRANCH  18  20
ENDBRANCH  14  18
ENDBRANCH   2   3
TORSDOF 8
ENDMDL
MODEL       32
REMARK 921   NORMALIZED FREE ENERGY PREDICTED BY IDOCK:   -6.02 KCAL/MOL
REMARK 922        TOTAL FREE ENERGY PREDICTED BY IDOCK:  -10.37 KCAL/MOL
REMARK 923 INTER-LIGAND FREE ENERGY PREDICTED BY IDOCK:   -9.33 KCAL/MOL
REMARK 924 INTRA-LIGAND FREE ENERGY PREDICTED BY IDOCK:   -1.04 KCAL/MOL
REMARK 927      BINDING AFFINITY PREDICTED BY RF-SCORE:    0.00 PKD
ROOT
HETATM    1  C   UNL     1     -14.191   8.885  72.152  1.00  0.00    -0.388 C  
HETATM    2  O   UNL     1     -13.171   9.879  72.239  1.00  0.00    -0.431 OA 
ENDROOT
BRANCH   2   3
HETATM    3  C   UNL     1     -12.179   9.785  71.297  1.00  0.00    -0.374 A  
HETATM    4  C   UNL     1     -12.263  10.489  70.082  1.00  0.00    -0.358 A  
HETATM    5  C   UNL     1     -11.342  10.329  69.059  1.00  0.00    -0.180 A  
HETATM    6  C   UNL     1     -10.262   9.484  69.271  1.00  0.00    -0.212 A  
HETATM    7  C   UNL     1     -10.097   8.859  70.531  1.00  0.00    -0.248 A  
HETATM    8  C   UNL     1      -9.425   9.327  68.168  1.00  0.00    -0.138 A  
HETATM    9  N   UNL     1      -8.258   8.557  68.234  1.00  0.00    -0.122 NA 
HETATM   10  N   UNL     1      -9.657   9.908  66.984  1.00  0.00    -0.169 NA 
HETATM   11  C   UNL     1     -11.054   8.993  71.544  1.00  0.00    -0.349 A  
HETATM   12  N   UNL     1     -11.545  10.968  67.904  1.00  0.00    -0.545 NA 
HETATM   13  H2  UNL     1      -8.515   7.628  68.566  1.00  0.00     0.000 HD 
HETATM   14  C   UNL     1     -10.716  10.721  66.882  1.00  0.00    -0.252 A  
HETATM   15  H1  UNL     1      -7.646   8.443  67.426  1.00  0.00     0.000 HD 
BRANCH  11  16
HETATM   16  O   UNL     1     -10.724   8.274  72.660  1.00  0.00    -0.343 OA 
HETATM   17  C   UNL     1      -9.385   8.285  73.127  1.00  0.00    -0.211 C  
ENDBRANCH  11  16
BRANCH  14  18
HETATM   18  N   UNL     1     -10.940  11.353  65.683  1.00  0.00    -0.235 NA 
HETATM   19  C   UNL     1     -10.038  11.118  64.577  1.00  0.00    -0.308 C  
BRANCH  18  20
HETATM   20  C   UNL     1     -12.163  12.110  65.470  1.00  0.00    -0.018 C  
BRANCH  20  21
HETATM   21  C   UNL     1     -12.319  12.533  64.002  1.00  0.00    -0.557 C  
BRANCH  21  22
HETATM   22  C   UNL     1     -12.109  14.034  63.801  1.00  0.00    -0.224 C  
BRANCH  22  23
HETATM   23  N   UNL     1     -11.244  14.604  64.813  1.00  0.00    -0.471 N  
HETATM   24  C   UNL     1     -10.920  15.939  64.841  1.00  0.00    -0.411 C  
HETATM   25  H   UNL     1     -10.860  13.990  65.531  1.00  0.00     0.000 HD 
HETATM   26  O   UNL     1     -11.312  16.747  64.004  1.00  0.00    -1.153 OA 
BRANCH  24  27
HETATM   27  C   UNL     1     -10.016  16.346  66.013  1.00  0.00    -0.345 C  
HETATM   28  C   UNL     1      -9.381  15.115  66.634  1.00  0.00    -0.291 C  
HETATM   29  C   UNL     1      -8.191  15.695  67.347  1.00  0.00    -0.198 C  
HETATM   30  C   UNL     1      -7.774  16.826  66.431  1.00  0.00    -0.310 C  
HETATM   31  O   UNL     1      -8.927  17.216  65.667  1.00  0.00    -0.491 OA 
ENDBRANCH  24  27
ENDBRANCH  22  23
ENDBRANCH  21  22
ENDBRANCH  20  21
ENDBRANCH  18  20
ENDBRANCH  14  18
ENDBRANCH   2   3
TORSDOF 8
ENDMDL
MODEL       33
REMARK 921   NORMALIZED FREE ENERGY PREDICTED BY IDOCK:   -5.99 KCAL/MOL
REMARK 922        TOTAL FREE ENERGY PREDICTED BY IDOCK:  -10.33 KCAL/MOL
REMARK 923 INTER-LIGAND FREE ENERGY PREDICTED BY IDOCK:   -8.92 KCAL/MOL
REMARK 924 INTRA-LIGAND FREE ENERGY PREDICTED BY IDOCK:   -1.40 KCAL/MOL
REMARK 927      BINDING AFFINITY PREDICTED BY RF-SCORE:    0.00 PKD
ROOT
HETATM    1  C   UNL     1     -12.878  15.510  73.584  1.00  0.00    -0.563 C  
HETATM    2  O   UNL     1     -13.697  15.159  72.468  1.00  0.00    -0.428 OA 
ENDROOT
BRANCH   2   3
HETATM    3  C   UNL     1     -13.239  14.112  71.712  1.00  0.00    -0.373 A  
HETATM    4  C   UNL     1     -13.372  12.783  72.152  1.00  0.00    -0.593 A  
HETATM    5  C   UNL     1     -12.819  11.709  71.473  1.00  0.00    -0.364 A  
HETATM    6  C   UNL     1     -12.159  11.956  70.278  1.00  0.00    -0.409 A  
HETATM    7  C   UNL     1     -12.118  13.272  69.758  1.00  0.00    -0.355 A  
HETATM    8  C   UNL     1     -11.574  10.832  69.698  1.00  0.00    -0.316 A  
HETATM    9  N   UNL     1     -10.924  10.896  68.461  1.00  0.00    -0.210 NA 
HETATM   10  N   UNL     1     -11.606   9.616  70.260  1.00  0.00    -0.233 NA 
HETATM   11  C   UNL     1     -12.642  14.357  70.470  1.00  0.00    -0.353 A  
HETATM   12  N   UNL     1     -12.918  10.490  72.008  1.00  0.00    -0.445 NA 
HETATM   13  H2  UNL     1     -10.212  11.624  68.520  1.00  0.00     0.000 HD 
HETATM   14  C   UNL     1     -12.283   9.475  71.407  1.00  0.00    -0.371 A  
HETATM   15  H1  UNL     1     -10.496  10.073  68.037  1.00  0.00     0.000 HD 
BRANCH  11  16
HETATM   16  O   UNL     1     -12.458  15.541  69.812  1.00  0.00    -0.303 OA 
HETATM   17  C   UNL     1     -11.264  16.278  70.022  1.00  0.00    -0.319 C  
ENDBRANCH  11  16
BRANCH  14  18
HETATM   18  N   UNL     1     -12.356   8.225  71.972  1.00  0.00    -0.330 NA 
HETATM   19  C   UNL     1     -13.317   7.271  71.462  1.00  0.00    -0.369 C  
BRANCH  18  20
HETATM   20  C   UNL     1     -11.367   7.802  72.949  1.00  0.00    -0.349 C  
BRANCH  20  21
HETATM   21  C   UNL     1     -10.000   8.449  72.687  1.00  0.00    -0.329 C  
BRANCH  21  22
HETATM   22  C   UNL     1      -9.071   7.544  71.878  1.00  0.00    -0.129 C  
BRANCH  22  23
HETATM   23  N   UNL     1      -9.688   7.087  70.651  1.00  0.00    -0.172 N  
HETATM   24  C   UNL     1      -9.863   5.754  70.362  1.00  0.00    -0.186 C  
HETATM   25  H   UNL     1     -10.005   7.781  69.974  1.00  0.00     0.000 HD 
HETATM   26  O   UNL     1      -9.489   4.850  71.103  1.00  0.00    -0.143 OA 
BRANCH  24  27
HETATM   27  C   UNL     1     -10.566   5.483  69.025  1.00  0.00    -0.201 C  
HETATM   28  C   UNL     1     -10.697   6.772  68.235  1.00  0.00    -0.290 C  
HETATM   29  C   UNL     1     -10.888   6.266  66.830  1.00  0.00    -0.428 C  
HETATM   30  C   UNL     1     -10.024   5.022  66.806  1.00  0.00    -0.217 C  
HETATM   31  O   UNL     1      -9.889   4.559  68.159  1.00  0.00    -0.147 OA 
ENDBRANCH  24  27
ENDBRANCH  22  23
ENDBRANCH  21  22
ENDBRANCH  20  21
ENDBRANCH  18  20
ENDBRANCH  14  18
ENDBRANCH   2   3
TORSDOF 8
ENDMDL
MODEL       34
REMARK 921   NORMALIZED FREE ENERGY PREDICTED BY IDOCK:   -5.92 KCAL/MOL
REMARK 922        TOTAL FREE ENERGY PREDICTED BY IDOCK:  -10.23 KCAL/MOL
REMARK 923 INTER-LIGAND FREE ENERGY PREDICTED BY IDOCK:   -8.54 KCAL/MOL
REMARK 924 INTRA-LIGAND FREE ENERGY PREDICTED BY IDOCK:   -1.69 KCAL/MOL
REMARK 927      BINDING AFFINITY PREDICTED BY RF-SCORE:    0.00 PKD
ROOT
HETATM    1  C   UNL     1     -10.654  19.636  66.575  1.00  0.00    -0.482 C  
HETATM    2  O   UNL     1      -9.540  18.977  65.973  1.00  0.00    -0.453 OA 
ENDROOT
BRANCH   2   3
HETATM    3  C   UNL     1      -9.108  17.849  66.621  1.00  0.00    -0.267 A  
HETATM    4  C   UNL     1      -9.413  16.567  66.130  1.00  0.00    -0.347 A  
HETATM    5  C   UNL     1      -9.095  15.406  66.818  1.00  0.00    -0.259 A  
HETATM    6  C   UNL     1      -8.394  15.518  68.010  1.00  0.00    -0.142 A  
HETATM    7  C   UNL     1      -7.974  16.793  68.459  1.00  0.00    -0.235 A  
HETATM    8  C   UNL     1      -8.177  14.310  68.670  1.00  0.00    -0.139 A  
HETATM    9  N   UNL     1      -7.434  14.240  69.852  1.00  0.00    -0.355 NA 
HETATM   10  N   UNL     1      -8.639  13.136  68.219  1.00  0.00    -0.177 NA 
HETATM   11  C   UNL     1      -8.335  17.963  67.782  1.00  0.00    -0.241 A  
HETATM   12  N   UNL     1      -9.500  14.234  66.323  1.00  0.00    -0.277 NA 
HETATM   13  H2  UNL     1      -7.847  14.891  70.520  1.00  0.00     0.000 HD 
HETATM   14  C   UNL     1      -9.291  13.127  67.049  1.00  0.00    -0.238 A  
HETATM   15  H1  UNL     1      -7.276  13.355  70.334  1.00  0.00     0.000 HD 
BRANCH  11  16
HETATM   16  O   UNL     1      -7.866  19.085  68.407  1.00  0.00    -0.309 OA 
HETATM   17  C   UNL     1      -6.642  19.662  67.981  1.00  0.00    -0.248 C  
ENDBRANCH  11  16
BRANCH  14  18
HETATM   18  N   UNL     1      -9.734  11.923  66.557  1.00  0.00    -0.205 NA 
HETATM   19  C   UNL     1      -8.810  11.061  65.854  1.00  0.00    -0.195 C  
BRANCH  18  20
HETATM   20  C   UNL     1     -11.065  11.440  66.889  1.00  0.00    -0.295 C  
BRANCH  20  21
HETATM   21  C   UNL     1     -11.009  10.228  67.828  1.00  0.00    -0.360 C  
BRANCH  21  22
HETATM   22  C   UNL     1     -11.055  10.629  69.303  1.00  0.00    -0.252 C  
BRANCH  22  23
HETATM   23  N   UNL     1     -11.373  12.031  69.477  1.00  0.00    -0.426 N  
HETATM   24  C   UNL     1     -12.195  12.483  70.482  1.00  0.00    -0.297 C  
HETATM   25  H   UNL     1     -10.972  12.708  68.829  1.00  0.00     0.000 HD 
HETATM   26  O   UNL     1     -12.743  11.741  71.291  1.00  0.00    -0.387 OA 
BRANCH  24  27
HETATM   27  C   UNL     1     -12.378  14.007  70.511  1.00  0.00    -0.367 C  
HETATM   28  C   UNL     1     -12.237  14.522  71.931  1.00  0.00    -0.363 C  
HETATM   29  C   UNL     1     -11.914  15.975  71.713  1.00  0.00    -0.592 C  
HETATM   30  C   UNL     1     -11.084  15.943  70.447  1.00  0.00    -0.370 C  
HETATM   31  O   UNL     1     -11.429  14.748  69.728  1.00  0.00    -0.264 OA 
ENDBRANCH  24  27
ENDBRANCH  22  23
ENDBRANCH  21  22
ENDBRANCH  20  21
ENDBRANCH  18  20
ENDBRANCH  14  18
ENDBRANCH   2   3
TORSDOF 8
ENDMDL
MODEL       35
REMARK 921   NORMALIZED FREE ENERGY PREDICTED BY IDOCK:   -5.90 KCAL/MOL
REMARK 922        TOTAL FREE ENERGY PREDICTED BY IDOCK:  -10.20 KCAL/MOL
REMARK 923 INTER-LIGAND FREE ENERGY PREDICTED BY IDOCK:   -8.75 KCAL/MOL
REMARK 924 INTRA-LIGAND FREE ENERGY PREDICTED BY IDOCK:   -1.46 KCAL/MOL
REMARK 927      BINDING AFFINITY PREDICTED BY RF-SCORE:    0.00 PKD
ROOT
HETATM    1  C   UNL     1     -10.613  16.903  68.498  1.00  0.00    -0.367 C  
HETATM    2  O   UNL     1     -11.772  16.256  67.973  1.00  0.00    -0.127 OA 
ENDROOT
BRANCH   2   3
HETATM    3  C   UNL     1     -11.697  14.889  67.901  1.00  0.00    -0.321 A  
HETATM    4  C   UNL     1     -12.016  14.084  69.009  1.00  0.00    -0.392 A  
HETATM    5  C   UNL     1     -11.841  12.709  69.012  1.00  0.00    -0.294 A  
HETATM    6  C   UNL     1     -11.389  12.101  67.849  1.00  0.00    -0.361 A  
HETATM    7  C   UNL     1     -11.176  12.880  66.687  1.00  0.00    -0.342 A  
HETATM    8  C   UNL     1     -11.174  10.728  67.961  1.00  0.00    -0.307 A  
HETATM    9  N   UNL     1     -10.777   9.954  66.865  1.00  0.00    -0.171 NA 
HETATM   10  N   UNL     1     -11.348  10.050  69.103  1.00  0.00    -0.148 NA 
HETATM   11  C   UNL     1     -11.314  14.273  66.704  1.00  0.00    -0.349 A  
HETATM   12  N   UNL     1     -12.085  12.032  70.136  1.00  0.00    -0.321 NA 
HETATM   13  H2  UNL     1      -9.931  10.373  66.477  1.00  0.00     0.000 HD 
HETATM   14  C   UNL     1     -11.805  10.722  70.167  1.00  0.00    -0.343 A  
HETATM   15  H1  UNL     1     -10.620   8.950  66.947  1.00  0.00     0.000 HD 
BRANCH  11  16
HETATM   16  O   UNL     1     -11.019  14.834  65.493  1.00  0.00    -0.315 OA 
HETATM   17  C   UNL     1     -11.989  14.810  64.458  1.00  0.00    -0.440 C  
ENDBRANCH  11  16
BRANCH  14  18
HETATM   18  N   UNL     1     -12.025  10.028  71.332  1.00  0.00    -0.384 NA 
HETATM   19  C   UNL     1     -13.270  10.216  72.045  1.00  0.00    -0.430 C  
BRANCH  18  20
HETATM   20  C   UNL     1     -11.101   8.988  71.753  1.00  0.00    -0.374 C  
BRANCH  20  21
HETATM   21  C   UNL     1     -11.827   7.844  72.475  1.00  0.00    -0.390 C  
BRANCH  21  22
HETATM   22  C   UNL     1     -12.494   6.871  71.503  1.00  0.00    -0.375 C  
BRANCH  22  23
HETATM   23  N   UNL     1     -12.013   7.038  70.147  1.00  0.00    -0.614 N  
HETATM   24  C   UNL     1     -11.159   6.142  69.550  1.00  0.00    -0.420 C  
HETATM   25  H   UNL     1     -12.320   7.852  69.616  1.00  0.00     0.000 HD 
HETATM   26  O   UNL     1     -10.717   5.149  70.119  1.00  0.00    -0.239 OA 
BRANCH  24  27
HETATM   27  C   UNL     1     -10.795   6.486  68.099  1.00  0.00    -0.295 C  
HETATM   28  C   UNL     1      -9.357   6.966  68.022  1.00  0.00    -0.123 C  
HETATM   29  C   UNL     1      -9.024   6.744  66.572  1.00  0.00    -0.162 C  
HETATM   30  C   UNL     1      -9.803   5.487  66.242  1.00  0.00    -0.145 C  
HETATM   31  O   UNL     1     -10.894   5.393  67.172  1.00  0.00    -0.196 OA 
ENDBRANCH  24  27
ENDBRANCH  22  23
ENDBRANCH  21  22
ENDBRANCH  20  21
ENDBRANCH  18  20
ENDBRANCH  14  18
ENDBRANCH   2   3
TORSDOF 8
ENDMDL
MODEL       36
REMARK 921   NORMALIZED FREE ENERGY PREDICTED BY IDOCK:   -5.89 KCAL/MOL
REMARK 922        TOTAL FREE ENERGY PREDICTED BY IDOCK:  -10.19 KCAL/MOL
REMARK 923 INTER-LIGAND FREE ENERGY PREDICTED BY IDOCK:   -8.53 KCAL/MOL
REMARK 924 INTRA-LIGAND FREE ENERGY PREDICTED BY IDOCK:   -1.65 KCAL/MOL
REMARK 927      BINDING AFFINITY PREDICTED BY RF-SCORE:    0.00 PKD
ROOT
HETATM    1  C   UNL     1     -12.235  13.207  63.380  1.00  0.00    -0.444 C  
HETATM    2  O   UNL     1     -12.026  13.854  64.635  1.00  0.00    -0.379 OA 
ENDROOT
BRANCH   2   3
HETATM    3  C   UNL     1     -11.186  13.200  65.498  1.00  0.00    -0.281 A  
HETATM    4  C   UNL     1     -11.310  11.818  65.727  1.00  0.00    -0.309 A  
HETATM    5  C   UNL     1     -10.558  11.145  66.677  1.00  0.00    -0.264 A  
HETATM    6  C   UNL     1      -9.602  11.858  67.386  1.00  0.00    -0.176 A  
HETATM    7  C   UNL     1      -9.380  13.224  67.085  1.00  0.00    -0.240 A  
HETATM    8  C   UNL     1      -8.941  11.122  68.368  1.00  0.00    -0.165 A  
HETATM    9  N   UNL     1      -7.907  11.675  69.130  1.00  0.00    -0.350 NA 
HETATM   10  N   UNL     1      -9.226   9.842  68.640  1.00  0.00    -0.135 NA 
HETATM   11  C   UNL     1     -10.172  13.906  66.155  1.00  0.00    -0.301 A  
HETATM   12  N   UNL     1     -10.801   9.850  66.891  1.00  0.00    -0.131 NA 
HETATM   13  H2  UNL     1      -8.260  12.529  69.564  1.00  0.00     0.000 HD 
HETATM   14  C   UNL     1     -10.153   9.234  67.888  1.00  0.00    -0.200 A  
HETATM   15  H1  UNL     1      -7.424  11.136  69.849  1.00  0.00     0.000 HD 
BRANCH  11  16
HETATM   16  O   UNL     1      -9.822  15.223  66.049  1.00  0.00    -0.282 OA 
HETATM   17  C   UNL     1     -10.482  16.189  66.852  1.00  0.00    -0.300 C  
ENDBRANCH  11  16
BRANCH  14  18
HETATM   18  N   UNL     1     -10.424   7.909  68.132  1.00  0.00    -0.198 NA 
HETATM   19  C   UNL     1     -10.880   7.067  67.048  1.00  0.00    -0.343 C  
BRANCH  18  20
HETATM   20  C   UNL     1     -10.093   7.316  69.417  1.00  0.00    -0.183 C  
BRANCH  20  21
HETATM   21  C   UNL     1     -11.202   6.377  69.910  1.00  0.00    -0.485 C  
BRANCH  21  22
HETATM   22  C   UNL     1     -12.222   7.092  70.797  1.00  0.00    -0.295 C  
BRANCH  22  23
HETATM   23  N   UNL     1     -11.922   8.500  70.946  1.00  0.00    -0.431 N  
HETATM   24  C   UNL     1     -12.837   9.404  71.432  1.00  0.00    -0.345 C  
HETATM   25  H   UNL     1     -10.996   8.835  70.680  1.00  0.00     0.000 HD 
HETATM   26  O   UNL     1     -13.982   9.099  71.751  1.00  0.00    -0.369 OA 
BRANCH  24  27
HETATM   27  C   UNL     1     -12.310  10.841  71.541  1.00  0.00    -0.276 C  
HETATM   28  C   UNL     1     -12.035  11.403  70.158  1.00  0.00    -0.460 C  
HETATM   29  C   UNL     1     -12.057  12.887  70.406  1.00  0.00    -0.385 C  
HETATM   30  C   UNL     1     -13.115  13.027  71.481  1.00  0.00    -0.310 C  
HETATM   31  O   UNL     1     -13.206  11.771  72.171  1.00  0.00    -0.498 OA 
ENDBRANCH  24  27
ENDBRANCH  22  23
ENDBRANCH  21  22
ENDBRANCH  20  21
ENDBRANCH  18  20
ENDBRANCH  14  18
ENDBRANCH   2   3
TORSDOF 8
ENDMDL
MODEL       37
REMARK 921   NORMALIZED FREE ENERGY PREDICTED BY IDOCK:   -5.85 KCAL/MOL
REMARK 922        TOTAL FREE ENERGY PREDICTED BY IDOCK:  -10.13 KCAL/MOL
REMARK 923 INTER-LIGAND FREE ENERGY PREDICTED BY IDOCK:   -9.29 KCAL/MOL
REMARK 924 INTRA-LIGAND FREE ENERGY PREDICTED BY IDOCK:   -0.84 KCAL/MOL
REMARK 927      BINDING AFFINITY PREDICTED BY RF-SCORE:    0.00 PKD
ROOT
HETATM    1  C   UNL     1      -9.256  17.904  68.502  1.00  0.00    -0.284 C  
HETATM    2  O   UNL     1     -10.643  17.674  68.260  1.00  0.00    -0.374 OA 
ENDROOT
BRANCH   2   3
HETATM    3  C   UNL     1     -11.000  16.359  68.102  1.00  0.00    -0.339 A  
HETATM    4  C   UNL     1     -11.486  15.603  69.183  1.00  0.00    -0.365 A  
HETATM    5  C   UNL     1     -11.744  14.244  69.091  1.00  0.00    -0.320 A  
HETATM    6  C   UNL     1     -11.572  13.623  67.862  1.00  0.00    -0.376 A  
HETATM    7  C   UNL     1     -11.198  14.392  66.734  1.00  0.00    -0.340 A  
HETATM    8  C   UNL     1     -11.785  12.246  67.875  1.00  0.00    -0.347 A  
HETATM    9  N   UNL     1     -11.713  11.479  66.707  1.00  0.00    -0.479 NA 
HETATM   10  N   UNL     1     -12.093  11.563  68.985  1.00  0.00    -0.382 NA 
HETATM   11  C   UNL     1     -10.898  15.755  66.844  1.00  0.00    -0.265 A  
HETATM   12  N   UNL     1     -12.119  13.584  70.189  1.00  0.00    -0.349 NA 
HETATM   13  H2  UNL     1     -10.804  11.651  66.276  1.00  0.00     0.000 HD 
HETATM   14  C   UNL     1     -12.256  12.254  70.120  1.00  0.00    -0.226 A  
HETATM   15  H1  UNL     1     -11.869  10.472  66.717  1.00  0.00     0.000 HD 
BRANCH  11  16
HETATM   16  O   UNL     1     -10.516  16.296  65.648  1.00  0.00    -0.359 OA 
HETATM   17  C   UNL     1     -11.238  15.969  64.471  1.00  0.00    -0.297 C  
ENDBRANCH  11  16
BRANCH  14  18
HETATM   18  N   UNL     1     -12.611  11.568  71.257  1.00  0.00    -0.377 NA 
HETATM   19  C   UNL     1     -13.455  12.212  72.239  1.00  0.00    -0.193 C  
BRANCH  18  20
HETATM   20  C   UNL     1     -12.291  10.156  71.392  1.00  0.00    -0.416 C  
BRANCH  20  21
HETATM   21  C   UNL     1     -13.360   9.409  72.202  1.00  0.00    -0.545 C  
BRANCH  21  22
HETATM   22  C   UNL     1     -13.683   8.035  71.616  1.00  0.00    -0.356 C  
BRANCH  22  23
HETATM   23  N   UNL     1     -12.608   7.528  70.790  1.00  0.00    -0.554 N  
HETATM   24  C   UNL     1     -11.770   6.519  71.203  1.00  0.00    -0.335 C  
HETATM   25  H   UNL     1     -12.466   7.935  69.866  1.00  0.00     0.000 HD 
HETATM   26  O   UNL     1     -11.848   5.988  72.307  1.00  0.00    -0.319 OA 
BRANCH  24  27
HETATM   27  C   UNL     1     -10.717   6.107  70.166  1.00  0.00    -0.302 C  
HETATM   28  C   UNL     1     -11.229   6.383  68.764  1.00  0.00    -0.358 C  
HETATM   29  C   UNL     1      -9.956   6.437  67.964  1.00  0.00    -0.144 C  
HETATM   30  C   UNL     1      -8.977   7.057  68.941  1.00  0.00    -0.129 C  
HETATM   31  O   UNL     1      -9.461   6.796  70.268  1.00  0.00    -0.162 OA 
ENDBRANCH  24  27
ENDBRANCH  22  23
ENDBRANCH  21  22
ENDBRANCH  20  21
ENDBRANCH  18  20
ENDBRANCH  14  18
ENDBRANCH   2   3
TORSDOF 8
ENDMDL
MODEL       38
REMARK 921   NORMALIZED FREE ENERGY PREDICTED BY IDOCK:   -5.85 KCAL/MOL
REMARK 922        TOTAL FREE ENERGY PREDICTED BY IDOCK:  -10.13 KCAL/MOL
REMARK 923 INTER-LIGAND FREE ENERGY PREDICTED BY IDOCK:   -9.57 KCAL/MOL
REMARK 924 INTRA-LIGAND FREE ENERGY PREDICTED BY IDOCK:   -0.55 KCAL/MOL
REMARK 927      BINDING AFFINITY PREDICTED BY RF-SCORE:    0.00 PKD
ROOT
HETATM    1  C   UNL     1      -8.966   5.845  69.046  1.00  0.00    -0.122 C  
HETATM    2  O   UNL     1      -8.997   6.236  70.418  1.00  0.00    -0.151 OA 
ENDROOT
BRANCH   2   3
HETATM    3  C   UNL     1     -10.118   6.925  70.805  1.00  0.00    -0.194 A  
HETATM    4  C   UNL     1     -10.347   8.243  70.371  1.00  0.00    -0.214 A  
HETATM    5  C   UNL     1     -11.404   9.011  70.833  1.00  0.00    -0.293 A  
HETATM    6  C   UNL     1     -12.305   8.429  71.713  1.00  0.00    -0.375 A  
HETATM    7  C   UNL     1     -12.159   7.067  72.068  1.00  0.00    -0.329 A  
HETATM    8  C   UNL     1     -13.296   9.291  72.181  1.00  0.00    -0.468 A  
HETATM    9  N   UNL     1     -14.318   8.847  73.027  1.00  0.00    -1.154 NA 
HETATM   10  N   UNL     1     -13.358  10.586  71.845  1.00  0.00    -0.403 NA 
HETATM   11  C   UNL     1     -11.065   6.310  71.631  1.00  0.00    -0.274 A  
HETATM   12  N   UNL     1     -11.497  10.283  70.436  1.00  0.00    -0.311 NA 
HETATM   13  H2  UNL     1     -13.883   8.402  73.835  1.00  0.00     0.000 HD 
HETATM   14  C   UNL     1     -12.453  11.052  70.974  1.00  0.00    -0.409 A  
HETATM   15  H1  UNL     1     -15.042   9.478  73.368  1.00  0.00     0.000 HD 
BRANCH  11  16
HETATM   16  O   UNL     1     -11.091   5.036  72.124  1.00  0.00    -0.129 OA 
HETATM   17  C   UNL     1     -11.216   4.831  73.523  1.00  0.00    -0.311 C  
ENDBRANCH  11  16
BRANCH  14  18
HETATM   18  N   UNL     1     -12.532  12.369  70.592  1.00  0.00    -0.284 NA 
HETATM   19  C   UNL     1     -12.861  13.375  71.579  1.00  0.00    -0.337 C  
BRANCH  18  20
HETATM   20  C   UNL     1     -12.120  12.773  69.258  1.00  0.00    -0.172 C  
BRANCH  20  21
HETATM   21  C   UNL     1     -11.713  14.252  69.215  1.00  0.00    -0.363 C  
BRANCH  21  22
HETATM   22  C   UNL     1     -10.505  14.500  68.311  1.00  0.00    -0.242 C  
BRANCH  22  23
HETATM   23  N   UNL     1     -10.594  15.768  67.617  1.00  0.00    -0.294 N  
HETATM   24  C   UNL     1      -9.794  16.841  67.931  1.00  0.00    -0.257 C  
HETATM   25  H   UNL     1     -11.277  15.869  66.867  1.00  0.00     0.000 HD 
HETATM   26  O   UNL     1      -8.963  16.821  68.835  1.00  0.00    -0.255 OA 
BRANCH  24  27
HETATM   27  C   UNL     1     -10.025  18.080  67.055  1.00  0.00    -0.329 C  
HETATM   28  C   UNL     1     -10.200  19.309  67.927  1.00  0.00    -0.511 C  
HETATM   29  C   UNL     1      -9.882  20.426  66.971  1.00  0.00    -0.594 C  
HETATM   30  C   UNL     1      -8.804  19.819  66.098  1.00  0.00    -0.336 C  
HETATM   31  O   UNL     1      -8.955  18.391  66.149  1.00  0.00    -0.465 OA 
ENDBRANCH  24  27
ENDBRANCH  22  23
ENDBRANCH  21  22
ENDBRANCH  20  21
ENDBRANCH  18  20
ENDBRANCH  14  18
ENDBRANCH   2   3
TORSDOF 8
ENDMDL
MODEL       39
REMARK 921   NORMALIZED FREE ENERGY PREDICTED BY IDOCK:   -5.85 KCAL/MOL
REMARK 922        TOTAL FREE ENERGY PREDICTED BY IDOCK:  -10.12 KCAL/MOL
REMARK 923 INTER-LIGAND FREE ENERGY PREDICTED BY IDOCK:   -8.67 KCAL/MOL
REMARK 924 INTRA-LIGAND FREE ENERGY PREDICTED BY IDOCK:   -1.44 KCAL/MOL
REMARK 927      BINDING AFFINITY PREDICTED BY RF-SCORE:    0.00 PKD
ROOT
HETATM    1  C   UNL     1     -11.410  13.976  69.219  1.00  0.00    -0.273 C  
HETATM    2  O   UNL     1     -12.236  13.938  68.055  1.00  0.00    -0.326 OA 
ENDROOT
BRANCH   2   3
HETATM    3  C   UNL     1     -11.806  13.100  67.059  1.00  0.00    -0.379 A  
HETATM    4  C   UNL     1     -11.193  11.870  67.358  1.00  0.00    -0.366 A  
HETATM    5  C   UNL     1     -10.641  11.052  66.385  1.00  0.00    -0.251 A  
HETATM    6  C   UNL     1     -10.755  11.439  65.057  1.00  0.00    -0.340 A  
HETATM    7  C   UNL     1     -11.473  12.613  64.728  1.00  0.00    -0.364 A  
HETATM    8  C   UNL     1     -10.112  10.596  64.152  1.00  0.00    -0.334 A  
HETATM    9  N   UNL     1     -10.182  10.809  62.771  1.00  0.00    -0.773 NA 
HETATM   10  N   UNL     1      -9.407   9.521  64.526  1.00  0.00    -0.183 NA 
HETATM   11  C   UNL     1     -11.991  13.456  65.719  1.00  0.00    -0.407 A  
HETATM   12  N   UNL     1      -9.999   9.944  66.764  1.00  0.00    -0.202 NA 
HETATM   13  H2  UNL     1      -9.871  11.763  62.586  1.00  0.00     0.000 HD 
HETATM   14  C   UNL     1      -9.370   9.219  65.830  1.00  0.00    -0.236 A  
HETATM   15  H1  UNL     1      -9.712  10.192  62.109  1.00  0.00     0.000 HD 
BRANCH  11  16
HETATM   16  O   UNL     1     -12.606  14.555  65.188  1.00  0.00    -0.409 OA 
HETATM   17  C   UNL     1     -11.874  15.423  64.337  1.00  0.00    -0.256 C  
ENDBRANCH  11  16
BRANCH  14  18
HETATM   18  N   UNL     1      -8.682   8.095  66.221  1.00  0.00    -0.142 NA 
HETATM   19  C   UNL     1      -8.053   7.264  65.218  1.00  0.00    -0.134 C  
BRANCH  18  20
HETATM   20  C   UNL     1      -8.437   7.837  67.630  1.00  0.00    -0.121 C  
BRANCH  20  21
HETATM   21  C   UNL     1      -9.149   6.563  68.105  1.00  0.00    -0.114 C  
BRANCH  21  22
HETATM   22  C   UNL     1     -10.663   6.743  68.207  1.00  0.00    -0.235 C  
BRANCH  22  23
HETATM   23  N   UNL     1     -11.026   7.798  69.130  1.00  0.00    -0.427 N  
HETATM   24  C   UNL     1     -11.102   7.598  70.488  1.00  0.00    -0.255 C  
HETATM   25  H   UNL     1     -11.232   8.725  68.759  1.00  0.00     0.000 HD 
HETATM   26  O   UNL     1     -10.898   6.512  71.023  1.00  0.00    -0.234 OA 
BRANCH  24  27
HETATM   27  C   UNL     1     -11.471   8.852  71.292  1.00  0.00    -0.299 C  
HETATM   28  C   UNL     1     -11.794   9.999  70.352  1.00  0.00    -0.343 C  
HETATM   29  C   UNL     1     -12.609  10.910  71.228  1.00  0.00    -0.526 C  
HETATM   30  C   UNL     1     -13.368   9.935  72.104  1.00  0.00    -0.399 C  
HETATM   31  O   UNL     1     -12.617   8.711  72.146  1.00  0.00    -0.346 OA 
ENDBRANCH  24  27
ENDBRANCH  22  23
ENDBRANCH  21  22
ENDBRANCH  20  21
ENDBRANCH  18  20
ENDBRANCH  14  18
ENDBRANCH   2   3
TORSDOF 8
ENDMDL
MODEL       40
REMARK 921   NORMALIZED FREE ENERGY PREDICTED BY IDOCK:   -5.81 KCAL/MOL
REMARK 922        TOTAL FREE ENERGY PREDICTED BY IDOCK:  -10.06 KCAL/MOL
REMARK 923 INTER-LIGAND FREE ENERGY PREDICTED BY IDOCK:   -9.16 KCAL/MOL
REMARK 924 INTRA-LIGAND FREE ENERGY PREDICTED BY IDOCK:   -0.90 KCAL/MOL
REMARK 927      BINDING AFFINITY PREDICTED BY RF-SCORE:    0.00 PKD
ROOT
HETATM    1  C   UNL     1      -9.951   6.258  68.190  1.00  0.00    -0.138 C  
HETATM    2  O   UNL     1      -9.655   7.039  69.348  1.00  0.00    -0.155 OA 
ENDROOT
BRANCH   2   3
HETATM    3  C   UNL     1     -10.214   8.291  69.369  1.00  0.00    -0.204 A  
HETATM    4  C   UNL     1     -10.569   8.949  68.177  1.00  0.00    -0.211 A  
HETATM    5  C   UNL     1     -11.026  10.257  68.151  1.00  0.00    -0.274 A  
HETATM    6  C   UNL     1     -11.196  10.919  69.359  1.00  0.00    -0.335 A  
HETATM    7  C   UNL     1     -10.958  10.233  70.574  1.00  0.00    -0.343 A  
HETATM    8  C   UNL     1     -11.591  12.250  69.238  1.00  0.00    -0.324 A  
HETATM    9  N   UNL     1     -11.866  13.041  70.359  1.00  0.00    -0.543 NA 
HETATM   10  N   UNL     1     -11.757  12.860  68.057  1.00  0.00    -0.343 NA 
HETATM   11  C   UNL     1     -10.456   8.927  70.591  1.00  0.00    -0.221 A  
HETATM   12  N   UNL     1     -11.255  10.834  66.970  1.00  0.00    -0.310 NA 
HETATM   13  H2  UNL     1     -11.049  13.011  70.970  1.00  0.00     0.000 HD 
HETATM   14  C   UNL     1     -11.586  12.132  66.946  1.00  0.00    -0.341 A  
HETATM   15  H1  UNL     1     -12.155  14.014  70.270  1.00  0.00     0.000 HD 
BRANCH  11  16
HETATM   16  O   UNL     1     -10.256   8.469  71.864  1.00  0.00    -0.243 OA 
HETATM   17  C   UNL     1     -11.355   7.965  72.605  1.00  0.00    -0.408 C  
ENDBRANCH  11  16
BRANCH  14  18
HETATM   18  N   UNL     1     -11.792  12.738  65.730  1.00  0.00    -0.411 NA 
HETATM   19  C   UNL     1     -11.618  11.971  64.517  1.00  0.00    -0.317 C  
BRANCH  18  20
HETATM   20  C   UNL     1     -12.349  14.079  65.664  1.00  0.00    -0.479 C  
BRANCH  20  21
HETATM   21  C   UNL     1     -11.372  15.066  65.009  1.00  0.00    -0.395 C  
BRANCH  21  22
HETATM   22  C   UNL     1     -10.066  15.202  65.793  1.00  0.00    -0.346 C  
BRANCH  22  23
HETATM   23  N   UNL     1      -9.886  16.537  66.323  1.00  0.00    -0.297 N  
HETATM   24  C   UNL     1     -10.440  16.941  67.515  1.00  0.00    -0.328 C  
HETATM   25  H   UNL     1      -9.326  17.204  65.792  1.00  0.00     0.000 HD 
HETATM   26  O   UNL     1     -11.149  16.218  68.209  1.00  0.00    -0.341 OA 
BRANCH  24  27
HETATM   27  C   UNL     1     -10.101  18.384  67.913  1.00  0.00    -0.362 C  
HETATM   28  C   UNL     1      -8.598  18.593  67.889  1.00  0.00    -0.305 C  
HETATM   29  C   UNL     1      -8.486  20.088  67.769  1.00  0.00    -0.338 C  
HETATM   30  C   UNL     1      -9.678  20.442  66.904  1.00  0.00    -0.426 C  
HETATM   31  O   UNL     1     -10.651  19.396  67.055  1.00  0.00    -0.427 OA 
ENDBRANCH  24  27
ENDBRANCH  22  23
ENDBRANCH  21  22
ENDBRANCH  20  21
ENDBRANCH  18  20
ENDBRANCH  14  18
ENDBRANCH   2   3
TORSDOF 8
ENDMDL
MODEL       41
REMARK 921   NORMALIZED FREE ENERGY PREDICTED BY IDOCK:   -5.76 KCAL/MOL
REMARK 922        TOTAL FREE ENERGY PREDICTED BY IDOCK:   -9.99 KCAL/MOL
REMARK 923 INTER-LIGAND FREE ENERGY PREDICTED BY IDOCK:   -9.17 KCAL/MOL
REMARK 924 INTRA-LIGAND FREE ENERGY PREDICTED BY IDOCK:   -0.82 KCAL/MOL
REMARK 927      BINDING AFFINITY PREDICTED BY RF-SCORE:    0.00 PKD
ROOT
HETATM    1  C   UNL     1     -13.034  11.229  71.544  1.00  0.00    -0.415 C  
HETATM    2  O   UNL     1     -12.172  10.097  71.421  1.00  0.00    -0.357 OA 
ENDROOT
BRANCH   2   3
HETATM    3  C   UNL     1     -11.603   9.926  70.186  1.00  0.00    -0.218 A  
HETATM    4  C   UNL     1     -11.720  10.911  69.189  1.00  0.00    -0.397 A  
HETATM    5  C   UNL     1     -11.261  10.725  67.894  1.00  0.00    -0.318 A  
HETATM    6  C   UNL     1     -10.607   9.540  67.592  1.00  0.00    -0.329 A  
HETATM    7  C   UNL     1     -10.375   8.586  68.612  1.00  0.00    -0.224 A  
HETATM    8  C   UNL     1     -10.242   9.406  66.253  1.00  0.00    -0.214 A  
HETATM    9  N   UNL     1      -9.520   8.298  65.795  1.00  0.00    -0.445 NA 
HETATM   10  N   UNL     1     -10.529  10.323  65.320  1.00  0.00    -0.144 NA 
HETATM   11  C   UNL     1     -10.878   8.763  69.907  1.00  0.00    -0.206 A  
HETATM   12  N   UNL     1     -11.491  11.677  66.987  1.00  0.00    -0.490 NA 
HETATM   13  H2  UNL     1     -10.033   7.458  66.065  1.00  0.00     0.000 HD 
HETATM   14  C   UNL     1     -11.148  11.443  65.714  1.00  0.00    -0.153 A  
HETATM   15  H1  UNL     1      -9.253   8.201  64.816  1.00  0.00     0.000 HD 
BRANCH  11  16
HETATM   16  O   UNL     1     -10.580   7.707  70.722  1.00  0.00    -0.216 OA 
HETATM   17  C   UNL     1     -11.428   6.570  70.730  1.00  0.00    -0.360 C  
ENDBRANCH  11  16
BRANCH  14  18
HETATM   18  N   UNL     1     -11.413  12.408  64.772  1.00  0.00    -0.315 NA 
HETATM   19  C   UNL     1     -10.958  12.215  63.412  1.00  0.00    -0.412 C  
BRANCH  18  20
HETATM   20  C   UNL     1     -12.288  13.524  65.089  1.00  0.00    -0.449 C  
BRANCH  20  21
HETATM   21  C   UNL     1     -11.668  14.865  64.674  1.00  0.00    -0.406 C  
BRANCH  21  22
HETATM   22  C   UNL     1     -10.312  15.112  65.335  1.00  0.00    -0.388 C  
BRANCH  22  23
HETATM   23  N   UNL     1     -10.317  16.300  66.162  1.00  0.00    -0.328 N  
HETATM   24  C   UNL     1     -10.160  16.251  67.527  1.00  0.00    -0.258 C  
HETATM   25  H   UNL     1     -10.443  17.208  65.716  1.00  0.00     0.000 HD 
HETATM   26  O   UNL     1     -10.029  15.204  68.154  1.00  0.00    -0.218 OA 
BRANCH  24  27
HETATM   27  C   UNL     1     -10.163  17.624  68.214  1.00  0.00    -0.374 C  
HETATM   28  C   UNL     1      -8.743  18.048  68.539  1.00  0.00    -0.304 C  
HETATM   29  C   UNL     1      -8.881  19.539  68.687  1.00  0.00    -0.386 C  
HETATM   30  C   UNL     1      -9.943  19.877  67.660  1.00  0.00    -0.419 C  
HETATM   31  O   UNL     1     -10.723  18.692  67.434  1.00  0.00    -0.431 OA 
ENDBRANCH  24  27
ENDBRANCH  22  23
ENDBRANCH  21  22
ENDBRANCH  20  21
ENDBRANCH  18  20
ENDBRANCH  14  18
ENDBRANCH   2   3
TORSDOF 8
ENDMDL
MODEL       42
REMARK 921   NORMALIZED FREE ENERGY PREDICTED BY IDOCK:   -5.76 KCAL/MOL
REMARK 922        TOTAL FREE ENERGY PREDICTED BY IDOCK:   -9.99 KCAL/MOL
REMARK 923 INTER-LIGAND FREE ENERGY PREDICTED BY IDOCK:   -9.26 KCAL/MOL
REMARK 924 INTRA-LIGAND FREE ENERGY PREDICTED BY IDOCK:   -0.73 KCAL/MOL
REMARK 927      BINDING AFFINITY PREDICTED BY RF-SCORE:    0.00 PKD
ROOT
HETATM    1  C   UNL     1     -14.382   8.346  71.945  1.00  0.00    -0.473 C  
HETATM    2  O   UNL     1     -13.189   9.041  72.307  1.00  0.00    -0.401 OA 
ENDROOT
BRANCH   2   3
HETATM    3  C   UNL     1     -12.307   9.265  71.282  1.00  0.00    -0.328 A  
HETATM    4  C   UNL     1     -12.531  10.285  70.340  1.00  0.00    -0.296 A  
HETATM    5  C   UNL     1     -11.727  10.465  69.225  1.00  0.00    -0.140 A  
HETATM    6  C   UNL     1     -10.621   9.640  69.071  1.00  0.00    -0.237 A  
HETATM    7  C   UNL     1     -10.313   8.686  70.070  1.00  0.00    -0.213 A  
HETATM    8  C   UNL     1      -9.909   9.842  67.890  1.00  0.00    -0.143 A  
HETATM    9  N   UNL     1      -8.735   9.136  67.609  1.00  0.00    -0.120 NA 
HETATM   10  N   UNL     1     -10.276  10.730  66.956  1.00  0.00    -0.208 NA 
HETATM   11  C   UNL     1     -11.153   8.482  71.171  1.00  0.00    -0.260 A  
HETATM   12  N   UNL     1     -12.062  11.401  68.334  1.00  0.00    -0.585 NA 
HETATM   13  H2  UNL     1      -8.944   8.140  67.681  1.00  0.00     0.000 HD 
HETATM   14  C   UNL     1     -11.348  11.493  67.205  1.00  0.00    -0.284 A  
HETATM   15  H1  UNL     1      -8.214   9.285  66.745  1.00  0.00     0.000 HD 
BRANCH  11  16
HETATM   16  O   UNL     1     -10.696   7.487  71.989  1.00  0.00    -0.215 OA 
HETATM   17  C   UNL     1      -9.397   7.586  72.551  1.00  0.00    -0.153 C  
ENDBRANCH  11  16
BRANCH  14  18
HETATM   18  N   UNL     1     -11.709  12.435  66.271  1.00  0.00    -0.472 NA 
HETATM   19  C   UNL     1     -11.754  12.066  64.873  1.00  0.00    -0.258 C  
BRANCH  18  20
HETATM   20  C   UNL     1     -12.211  13.732  66.693  1.00  0.00    -0.409 C  
BRANCH  20  21
HETATM   21  C   UNL     1     -11.122  14.561  67.388  1.00  0.00    -0.320 C  
BRANCH  21  22
HETATM   22  C   UNL     1     -10.132  15.173  66.397  1.00  0.00    -0.273 C  
BRANCH  22  23
HETATM   23  N   UNL     1     -10.039  16.611  66.536  1.00  0.00    -0.293 N  
HETATM   24  C   UNL     1     -10.574  17.480  65.615  1.00  0.00    -0.140 C  
HETATM   25  H   UNL     1      -9.558  16.995  67.350  1.00  0.00     0.000 HD 
HETATM   26  O   UNL     1     -11.146  17.111  64.594  1.00  0.00    -1.036 OA 
BRANCH  24  27
HETATM   27  C   UNL     1     -10.395  18.963  65.966  1.00  0.00    -0.429 C  
HETATM   28  C   UNL     1     -10.894  19.230  67.374  1.00  0.00    -0.554 C  
HETATM   29  C   UNL     1     -10.185  20.510  67.726  1.00  0.00    -0.307 C  
HETATM   30  C   UNL     1      -8.853  20.355  67.022  1.00  0.00    -0.292 C  
HETATM   31  O   UNL     1      -9.039  19.436  65.933  1.00  0.00    -0.419 OA 
ENDBRANCH  24  27
ENDBRANCH  22  23
ENDBRANCH  21  22
ENDBRANCH  20  21
ENDBRANCH  18  20
ENDBRANCH  14  18
ENDBRANCH   2   3
TORSDOF 8
ENDMDL
MODEL       43
REMARK 921   NORMALIZED FREE ENERGY PREDICTED BY IDOCK:   -5.75 KCAL/MOL
REMARK 922        TOTAL FREE ENERGY PREDICTED BY IDOCK:   -9.98 KCAL/MOL
REMARK 923 INTER-LIGAND FREE ENERGY PREDICTED BY IDOCK:   -8.22 KCAL/MOL
REMARK 924 INTRA-LIGAND FREE ENERGY PREDICTED BY IDOCK:   -1.76 KCAL/MOL
REMARK 927      BINDING AFFINITY PREDICTED BY RF-SCORE:    0.00 PKD
ROOT
HETATM    1  C   UNL     1      -9.603   7.165  67.513  1.00  0.00    -0.132 C  
HETATM    2  O   UNL     1      -9.585   7.023  68.933  1.00  0.00    -0.141 OA 
ENDROOT
BRANCH   2   3
HETATM    3  C   UNL     1     -10.516   7.770  69.608  1.00  0.00    -0.229 A  
HETATM    4  C   UNL     1     -10.660   9.147  69.363  1.00  0.00    -0.232 A  
HETATM    5  C   UNL     1     -11.505   9.956  70.105  1.00  0.00    -0.248 A  
HETATM    6  C   UNL     1     -12.283   9.367  71.091  1.00  0.00    -0.402 A  
HETATM    7  C   UNL     1     -12.240   7.963  71.273  1.00  0.00    -0.314 A  
HETATM    8  C   UNL     1     -13.050  10.261  71.835  1.00  0.00    -0.463 A  
HETATM    9  N   UNL     1     -13.936   9.824  72.826  1.00  0.00    -0.597 NA 
HETATM   10  N   UNL     1     -13.016  11.587  71.648  1.00  0.00    -0.437 NA 
HETATM   11  C   UNL     1     -11.354   7.159  70.548  1.00  0.00    -0.297 A  
HETATM   12  N   UNL     1     -11.515  11.269  69.864  1.00  0.00    -0.295 NA 
HETATM   13  H2  UNL     1     -13.411   9.243  73.480  1.00  0.00     0.000 HD 
HETATM   14  C   UNL     1     -12.246  12.061  70.660  1.00  0.00    -0.316 A  
HETATM   15  H1  UNL     1     -14.497  10.479  73.370  1.00  0.00     0.000 HD 
BRANCH  11  16
HETATM   16  O   UNL     1     -11.441   5.843  70.908  1.00  0.00    -0.234 OA 
HETATM   17  C   UNL     1     -10.797   5.399  72.092  1.00  0.00    -0.214 C  
ENDBRANCH  11  16
BRANCH  14  18
HETATM   18  N   UNL     1     -12.234  13.416  70.434  1.00  0.00    -0.356 NA 
HETATM   19  C   UNL     1     -13.225  14.251  71.076  1.00  0.00    -0.303 C  
BRANCH  18  20
HETATM   20  C   UNL     1     -11.137  14.028  69.702  1.00  0.00    -0.104 C  
BRANCH  20  21
HETATM   21  C   UNL     1     -11.645  14.906  68.550  1.00  0.00    -0.347 C  
BRANCH  21  22
HETATM   22  C   UNL     1     -12.100  14.083  67.345  1.00  0.00    -0.349 C  
BRANCH  22  23
HETATM   23  N   UNL     1     -11.316  12.877  67.182  1.00  0.00    -0.289 N  
HETATM   24  C   UNL     1     -11.419  12.073  66.071  1.00  0.00    -0.338 C  
HETATM   25  H   UNL     1     -10.663  12.613  67.919  1.00  0.00     0.000 HD 
HETATM   26  O   UNL     1     -12.195  12.295  65.147  1.00  0.00    -0.462 OA 
BRANCH  24  27
HETATM   27  C   UNL     1     -10.478  10.860  66.079  1.00  0.00    -0.225 C  
HETATM   28  C   UNL     1     -10.228  10.384  64.660  1.00  0.00    -0.305 C  
HETATM   29  C   UNL     1      -8.948   9.606  64.804  1.00  0.00    -0.268 C  
HETATM   30  C   UNL     1      -8.206  10.386  65.869  1.00  0.00    -0.150 C  
HETATM   31  O   UNL     1      -9.180  11.102  66.645  1.00  0.00    -0.167 OA 
ENDBRANCH  24  27
ENDBRANCH  22  23
ENDBRANCH  21  22
ENDBRANCH  20  21
ENDBRANCH  18  20
ENDBRANCH  14  18
ENDBRANCH   2   3
TORSDOF 8
ENDMDL
MODEL       44
REMARK 921   NORMALIZED FREE ENERGY PREDICTED BY IDOCK:   -5.72 KCAL/MOL
REMARK 922        TOTAL FREE ENERGY PREDICTED BY IDOCK:   -9.93 KCAL/MOL
REMARK 923 INTER-LIGAND FREE ENERGY PREDICTED BY IDOCK:   -8.21 KCAL/MOL
REMARK 924 INTRA-LIGAND FREE ENERGY PREDICTED BY IDOCK:   -1.72 KCAL/MOL
REMARK 927      BINDING AFFINITY PREDICTED BY RF-SCORE:    0.00 PKD
ROOT
HETATM    1  C   UNL     1     -12.273  14.824  64.272  1.00  0.00    -0.379 C  
HETATM    2  O   UNL     1     -12.913  13.841  65.086  1.00  0.00    -0.738 OA 
ENDROOT
BRANCH   2   3
HETATM    3  C   UNL     1     -12.076  13.108  65.886  1.00  0.00    -0.444 A  
HETATM    4  C   UNL     1     -11.378  11.996  65.383  1.00  0.00    -0.375 A  
HETATM    5  C   UNL     1     -10.616  11.163  66.187  1.00  0.00    -0.248 A  
HETATM    6  C   UNL     1     -10.492  11.479  67.532  1.00  0.00    -0.229 A  
HETATM    7  C   UNL     1     -11.089  12.661  68.032  1.00  0.00    -0.288 A  
HETATM    8  C   UNL     1      -9.768  10.552  68.279  1.00  0.00    -0.154 A  
HETATM    9  N   UNL     1      -9.497  10.752  69.637  1.00  0.00    -0.403 NA 
HETATM   10  N   UNL     1      -9.264   9.425  67.760  1.00  0.00    -0.129 NA 
HETATM   11  C   UNL     1     -11.891  13.474  67.224  1.00  0.00    -0.385 A  
HETATM   12  N   UNL     1     -10.059  10.078  65.643  1.00  0.00    -0.277 NA 
HETATM   13  H2  UNL     1     -10.386  10.912  70.113  1.00  0.00     0.000 HD 
HETATM   14  C   UNL     1      -9.421   9.216  66.446  1.00  0.00    -0.227 A  
HETATM   15  H1  UNL     1      -8.968  10.074  70.184  1.00  0.00     0.000 HD 
BRANCH  11  16
HETATM   16  O   UNL     1     -12.406  14.537  67.914  1.00  0.00    -0.188 OA 
HETATM   17  C   UNL     1     -11.587  15.667  68.167  1.00  0.00    -0.283 C  
ENDBRANCH  11  16
BRANCH  14  18
HETATM   18  N   UNL     1      -8.874   8.083  65.895  1.00  0.00    -0.164 NA 
HETATM   19  C   UNL     1      -8.384   8.121  64.535  1.00  0.00    -0.058 C  
BRANCH  18  20
HETATM   20  C   UNL     1      -8.627   6.911  66.719  1.00  0.00    -0.120 C  
BRANCH  20  21
HETATM   21  C   UNL     1      -9.457   5.707  66.254  1.00  0.00    -0.171 C  
BRANCH  21  22
HETATM   22  C   UNL     1     -10.895   5.754  66.771  1.00  0.00    -0.248 C  
BRANCH  22  23
HETATM   23  N   UNL     1     -11.060   6.720  67.837  1.00  0.00    -0.530 N  
HETATM   24  C   UNL     1     -10.971   6.379  69.166  1.00  0.00    -0.355 C  
HETATM   25  H   UNL     1     -11.249   7.692  67.592  1.00  0.00     0.000 HD 
HETATM   26  O   UNL     1     -10.773   5.232  69.555  1.00  0.00    -0.252 OA 
BRANCH  24  27
HETATM   27  C   UNL     1     -11.145   7.556  70.134  1.00  0.00    -0.231 C  
HETATM   28  C   UNL     1     -12.181   7.215  71.190  1.00  0.00    -0.405 C  
HETATM   29  C   UNL     1     -11.844   8.183  72.292  1.00  0.00    -0.441 C  
HETATM   30  C   UNL     1     -10.336   8.282  72.196  1.00  0.00    -0.300 C  
HETATM   31  O   UNL     1      -9.960   7.930  70.854  1.00  0.00    -0.182 OA 
ENDBRANCH  24  27
ENDBRANCH  22  23
ENDBRANCH  21  22
ENDBRANCH  20  21
ENDBRANCH  18  20
ENDBRANCH  14  18
ENDBRANCH   2   3
TORSDOF 8
ENDMDL
MODEL       45
REMARK 921   NORMALIZED FREE ENERGY PREDICTED BY IDOCK:   -5.71 KCAL/MOL
REMARK 922        TOTAL FREE ENERGY PREDICTED BY IDOCK:   -9.92 KCAL/MOL
REMARK 923 INTER-LIGAND FREE ENERGY PREDICTED BY IDOCK:   -8.61 KCAL/MOL
REMARK 924 INTRA-LIGAND FREE ENERGY PREDICTED BY IDOCK:   -1.31 KCAL/MOL
REMARK 927      BINDING AFFINITY PREDICTED BY RF-SCORE:    0.00 PKD
ROOT
HETATM    1  C   UNL     1     -12.976  13.699  71.703  1.00  0.00    -0.362 C  
HETATM    2  O   UNL     1     -13.460  12.363  71.843  1.00  0.00    -0.423 OA 
ENDROOT
BRANCH   2   3
HETATM    3  C   UNL     1     -12.755  11.410  71.155  1.00  0.00    -0.377 A  
HETATM    4  C   UNL     1     -11.952  11.753  70.053  1.00  0.00    -0.421 A  
HETATM    5  C   UNL     1     -11.319  10.807  69.262  1.00  0.00    -0.286 A  
HETATM    6  C   UNL     1     -11.438   9.470  69.614  1.00  0.00     0.011 A  
HETATM    7  C   UNL     1     -12.143   9.114  70.789  1.00  0.00    -0.200 A  
HETATM    8  C   UNL     1     -10.831   8.583  68.728  1.00  0.00     0.043 A  
HETATM    9  N   UNL     1     -10.805   7.204  68.968  1.00  0.00    -0.371 NA 
HETATM   10  N   UNL     1     -10.215   8.975  67.605  1.00  0.00    -0.226 NA 
HETATM   11  C   UNL     1     -12.815  10.071  71.558  1.00  0.00    -0.432 A  
HETATM   12  N   UNL     1     -10.648  11.215  68.183  1.00  0.00    -0.183 NA 
HETATM   13  H2  UNL     1     -11.767   6.894  69.111  1.00  0.00     0.000 HD 
HETATM   14  C   UNL     1     -10.137  10.290  67.360  1.00  0.00    -0.202 A  
HETATM   15  H1  UNL     1     -10.361   6.556  68.319  1.00  0.00     0.000 HD 
BRANCH  11  16
HETATM   16  O   UNL     1     -13.468   9.511  72.620  1.00  0.00    -0.369 OA 
HETATM   17  C   UNL     1     -14.349   8.421  72.402  1.00  0.00    -0.284 C  
ENDBRANCH  11  16
BRANCH  14  18
HETATM   18  N   UNL     1      -9.473  10.705  66.232  1.00  0.00    -0.172 NA 
HETATM   19  C   UNL     1      -8.308  11.553  66.366  1.00  0.00    -0.118 C  
BRANCH  18  20
HETATM   20  C   UNL     1      -9.825  10.162  64.930  1.00  0.00    -0.319 C  
BRANCH  20  21
HETATM   21  C   UNL     1      -9.469  11.132  63.796  1.00  0.00    -0.258 C  
BRANCH  21  22
HETATM   22  C   UNL     1     -10.663  11.979  63.355  1.00  0.00    -0.417 C  
BRANCH  22  23
HETATM   23  N   UNL     1     -10.785  13.195  64.131  1.00  0.00    -0.474 N  
HETATM   24  C   UNL     1     -11.861  13.445  64.950  1.00  0.00    -0.372 C  
HETATM   25  H   UNL     1     -10.044  13.893  64.068  1.00  0.00     0.000 HD 
HETATM   26  O   UNL     1     -12.810  12.677  65.069  1.00  0.00    -0.765 OA 
BRANCH  24  27
HETATM   27  C   UNL     1     -11.781  14.777  65.709  1.00  0.00    -0.252 C  
HETATM   28  C   UNL     1     -11.062  14.581  67.031  1.00  0.00    -0.324 C  
HETATM   29  C   UNL     1     -10.617  15.980  67.362  1.00  0.00    -0.316 C  
HETATM   30  C   UNL     1     -10.311  16.561  65.997  1.00  0.00    -0.345 C  
HETATM   31  O   UNL     1     -11.072  15.823  65.028  1.00  0.00    -0.393 OA 
ENDBRANCH  24  27
ENDBRANCH  22  23
ENDBRANCH  21  22
ENDBRANCH  20  21
ENDBRANCH  18  20
ENDBRANCH  14  18
ENDBRANCH   2   3
TORSDOF 8
ENDMDL
MODEL       46
REMARK 921   NORMALIZED FREE ENERGY PREDICTED BY IDOCK:   -5.71 KCAL/MOL
REMARK 922        TOTAL FREE ENERGY PREDICTED BY IDOCK:   -9.91 KCAL/MOL
REMARK 923 INTER-LIGAND FREE ENERGY PREDICTED BY IDOCK:   -9.40 KCAL/MOL
REMARK 924 INTRA-LIGAND FREE ENERGY PREDICTED BY IDOCK:   -0.52 KCAL/MOL
REMARK 927      BINDING AFFINITY PREDICTED BY RF-SCORE:    0.00 PKD
ROOT
HETATM    1  C   UNL     1      -6.238  17.641  68.557  1.00  0.00    -0.182 C  
HETATM    2  O   UNL     1      -7.595  18.067  68.671  1.00  0.00    -0.280 OA 
ENDROOT
BRANCH   2   3
HETATM    3  C   UNL     1      -8.469  17.481  67.791  1.00  0.00    -0.225 A  
HETATM    4  C   UNL     1      -8.719  16.098  67.828  1.00  0.00    -0.174 A  
HETATM    5  C   UNL     1      -9.501  15.452  66.884  1.00  0.00    -0.230 A  
HETATM    6  C   UNL     1     -10.110  16.217  65.900  1.00  0.00    -0.381 A  
HETATM    7  C   UNL     1      -9.967  17.625  65.917  1.00  0.00    -0.139 A  
HETATM    8  C   UNL     1     -10.820  15.482  64.952  1.00  0.00    -0.427 A  
HETATM    9  N   UNL     1     -11.543  16.104  63.929  1.00  0.00    -1.469 NA 
HETATM   10  N   UNL     1     -10.883  14.144  64.960  1.00  0.00    -0.373 NA 
HETATM   11  C   UNL     1      -9.141  18.266  66.848  1.00  0.00    -0.282 A  
HETATM   12  N   UNL     1      -9.615  14.123  66.942  1.00  0.00    -0.260 NA 
HETATM   13  H2  UNL     1     -10.906  16.725  63.430  1.00  0.00     0.000 HD 
HETATM   14  C   UNL     1     -10.277  13.494  65.962  1.00  0.00    -0.305 A  
HETATM   15  H1  UNL     1     -12.063  15.566  63.236  1.00  0.00     0.000 HD 
BRANCH  11  16
HETATM   16  O   UNL     1      -9.108  19.619  66.662  1.00  0.00    -0.325 OA 
HETATM   17  C   UNL     1      -7.979  20.212  66.041  1.00  0.00    -0.204 C  
ENDBRANCH  11  16
BRANCH  14  18
HETATM   18  N   UNL     1     -10.369  12.124  66.002  1.00  0.00    -0.231 NA 
HETATM   19  C   UNL     1      -9.746  11.341  64.957  1.00  0.00    -0.251 C  
BRANCH  18  20
HETATM   20  C   UNL     1     -10.929  11.459  67.166  1.00  0.00    -0.285 C  
BRANCH  20  21
HETATM   21  C   UNL     1     -11.954  12.346  67.887  1.00  0.00    -0.260 C  
BRANCH  21  22
HETATM   22  C   UNL     1     -11.710  12.415  69.394  1.00  0.00    -0.322 C  
BRANCH  22  23
HETATM   23  N   UNL     1     -11.259  11.149  69.932  1.00  0.00    -0.413 N  
HETATM   24  C   UNL     1     -12.009  10.413  70.819  1.00  0.00    -0.363 C  
HETATM   25  H   UNL     1     -10.350  10.789  69.641  1.00  0.00     0.000 HD 
HETATM   26  O   UNL     1     -13.100  10.778  71.244  1.00  0.00    -0.371 OA 
BRANCH  24  27
HETATM   27  C   UNL     1     -11.365   9.085  71.242  1.00  0.00    -0.319 C  
HETATM   28  C   UNL     1     -12.305   8.317  72.152  1.00  0.00    -0.410 C  
HETATM   29  C   UNL     1     -11.788   6.909  72.028  1.00  0.00    -0.345 C  
HETATM   30  C   UNL     1     -11.331   6.850  70.585  1.00  0.00    -0.320 C  
HETATM   31  O   UNL     1     -11.047   8.193  70.162  1.00  0.00    -0.250 OA 
ENDBRANCH  24  27
ENDBRANCH  22  23
ENDBRANCH  21  22
ENDBRANCH  20  21
ENDBRANCH  18  20
ENDBRANCH  14  18
ENDBRANCH   2   3
TORSDOF 8
ENDMDL
MODEL       47
REMARK 921   NORMALIZED FREE ENERGY PREDICTED BY IDOCK:   -5.70 KCAL/MOL
REMARK 922        TOTAL FREE ENERGY PREDICTED BY IDOCK:   -9.91 KCAL/MOL
REMARK 923 INTER-LIGAND FREE ENERGY PREDICTED BY IDOCK:   -8.39 KCAL/MOL
REMARK 924 INTRA-LIGAND FREE ENERGY PREDICTED BY IDOCK:   -1.52 KCAL/MOL
REMARK 927      BINDING AFFINITY PREDICTED BY RF-SCORE:    0.00 PKD
ROOT
HETATM    1  C   UNL     1     -12.804  11.855  63.306  1.00  0.00    -0.161 C  
HETATM    2  O   UNL     1     -11.550  12.538  63.300  1.00  0.00    -0.468 OA 
ENDROOT
BRANCH   2   3
HETATM    3  C   UNL     1     -10.955  12.681  64.527  1.00  0.00    -0.332 A  
HETATM    4  C   UNL     1     -11.287  13.751  65.376  1.00  0.00    -0.314 A  
HETATM    5  C   UNL     1     -10.626  13.995  66.569  1.00  0.00    -0.279 A  
HETATM    6  C   UNL     1      -9.636  13.107  66.965  1.00  0.00    -0.241 A  
HETATM    7  C   UNL     1      -9.369  11.958  66.183  1.00  0.00    -0.228 A  
HETATM    8  C   UNL     1      -8.975  13.464  68.139  1.00  0.00    -0.188 A  
HETATM    9  N   UNL     1      -7.993  12.647  68.709  1.00  0.00    -0.323 NA 
HETATM   10  N   UNL     1      -9.238  14.590  68.815  1.00  0.00    -0.186 NA 
HETATM   11  C   UNL     1     -10.012  11.741  64.958  1.00  0.00    -0.254 A  
HETATM   12  N   UNL     1     -10.945  15.084  67.271  1.00  0.00    -0.318 NA 
HETATM   13  H2  UNL     1      -7.286  12.463  67.996  1.00  0.00     0.000 HD 
HETATM   14  C   UNL     1     -10.225  15.375  68.362  1.00  0.00    -0.221 A  
HETATM   15  H1  UNL     1      -7.510  12.909  69.568  1.00  0.00     0.000 HD 
BRANCH  11  16
HETATM   16  O   UNL     1      -9.578  10.600  64.344  1.00  0.00    -0.241 OA 
HETATM   17  C   UNL     1      -8.470  10.662  63.459  1.00  0.00    -0.089 C  
ENDBRANCH  11  16
BRANCH  14  18
HETATM   18  N   UNL     1     -10.531  16.513  69.070  1.00  0.00    -0.282 NA 
HETATM   19  C   UNL     1     -10.386  17.804  68.434  1.00  0.00    -0.376 C  
BRANCH  18  20
HETATM   20  C   UNL     1     -11.158  16.418  70.378  1.00  0.00    -0.233 C  
BRANCH  20  21
HETATM   21  C   UNL     1     -12.429  15.559  70.334  1.00  0.00    -0.443 C  
BRANCH  21  22
HETATM   22  C   UNL     1     -12.406  14.428  71.362  1.00  0.00    -0.360 C  
BRANCH  22  23
HETATM   23  N   UNL     1     -12.129  13.144  70.753  1.00  0.00    -0.503 N  
HETATM   24  C   UNL     1     -12.673  11.971  71.220  1.00  0.00    -0.279 C  
HETATM   25  H   UNL     1     -11.507  13.108  69.946  1.00  0.00     0.000 HD 
HETATM   26  O   UNL     1     -13.410  11.912  72.200  1.00  0.00    -0.503 OA 
BRANCH  24  27
HETATM   27  C   UNL     1     -12.279  10.725  70.414  1.00  0.00    -0.349 C  
HETATM   28  C   UNL     1     -11.828  11.127  69.022  1.00  0.00    -0.418 C  
HETATM   29  C   UNL     1     -11.014   9.935  68.594  1.00  0.00    -0.222 C  
HETATM   30  C   UNL     1     -10.374   9.489  69.892  1.00  0.00    -0.236 C  
HETATM   31  O   UNL     1     -11.200   9.958  70.970  1.00  0.00    -0.340 OA 
ENDBRANCH  24  27
ENDBRANCH  22  23
ENDBRANCH  21  22
ENDBRANCH  20  21
ENDBRANCH  18  20
ENDBRANCH  14  18
ENDBRANCH   2   3
TORSDOF 8
ENDMDL
MODEL       48
REMARK 921   NORMALIZED FREE ENERGY PREDICTED BY IDOCK:   -5.70 KCAL/MOL
REMARK 922        TOTAL FREE ENERGY PREDICTED BY IDOCK:   -9.90 KCAL/MOL
REMARK 923 INTER-LIGAND FREE ENERGY PREDICTED BY IDOCK:   -8.53 KCAL/MOL
REMARK 924 INTRA-LIGAND FREE ENERGY PREDICTED BY IDOCK:   -1.38 KCAL/MOL
REMARK 927      BINDING AFFINITY PREDICTED BY RF-SCORE:    0.00 PKD
ROOT
HETATM    1  C   UNL     1     -12.728  12.134  63.337  1.00  0.00    -0.381 C  
HETATM    2  O   UNL     1     -12.641  13.026  64.449  1.00  0.00    -0.607 OA 
ENDROOT
BRANCH   2   3
HETATM    3  C   UNL     1     -11.650  12.739  65.352  1.00  0.00    -0.358 A  
HETATM    4  C   UNL     1     -11.626  11.513  66.040  1.00  0.00     0.024 A  
HETATM    5  C   UNL     1     -10.711  11.235  67.044  1.00  0.00    -0.260 A  
HETATM    6  C   UNL     1      -9.745  12.187  67.335  1.00  0.00    -0.180 A  
HETATM    7  C   UNL     1      -9.679  13.377  66.572  1.00  0.00    -0.284 A  
HETATM    8  C   UNL     1      -8.911  11.856  68.402  1.00  0.00    -0.163 A  
HETATM    9  N   UNL     1      -7.846  12.678  68.786  1.00  0.00    -0.309 NA 
HETATM   10  N   UNL     1      -9.049  10.733  69.119  1.00  0.00    -0.140 NA 
HETATM   11  C   UNL     1     -10.632  13.669  65.589  1.00  0.00    -0.293 A  
HETATM   12  N   UNL     1     -10.814  10.081  67.706  1.00  0.00    -0.282 NA 
HETATM   13  H2  UNL     1      -8.218  13.612  68.957  1.00  0.00     0.000 HD 
HETATM   14  C   UNL     1     -10.002   9.867  68.749  1.00  0.00    -0.173 A  
HETATM   15  H1  UNL     1      -7.236  12.436  69.566  1.00  0.00     0.000 HD 
BRANCH  11  16
HETATM   16  O   UNL     1     -10.413  14.886  65.005  1.00  0.00    -0.393 OA 
HETATM   17  C   UNL     1     -10.355  16.049  65.816  1.00  0.00    -0.378 C  
ENDBRANCH  11  16
BRANCH  14  18
HETATM   18  N   UNL     1     -10.126   8.694  69.453  1.00  0.00    -0.198 NA 
HETATM   19  C   UNL     1      -9.041   7.737  69.434  1.00  0.00    -0.146 C  
BRANCH  18  20
HETATM   20  C   UNL     1     -11.254   8.490  70.347  1.00  0.00    -0.211 C  
BRANCH  20  21
HETATM   21  C   UNL     1     -11.333   9.586  71.418  1.00  0.00    -0.462 C  
BRANCH  21  22
HETATM   22  C   UNL     1     -12.634  10.385  71.343  1.00  0.00    -0.434 C  
BRANCH  22  23
HETATM   23  N   UNL     1     -12.427  11.715  70.809  1.00  0.00    -0.357 N  
HETATM   24  C   UNL     1     -12.955  12.839  71.399  1.00  0.00    -0.266 C  
HETATM   25  H   UNL     1     -11.868  11.822  69.963  1.00  0.00     0.000 HD 
HETATM   26  O   UNL     1     -13.661  12.806  72.403  1.00  0.00    -0.565 OA 
BRANCH  24  27
HETATM   27  C   UNL     1     -12.591  14.153  70.695  1.00  0.00    -0.351 C  
HETATM   28  C   UNL     1     -12.054  15.153  71.702  1.00  0.00    -0.424 C  
HETATM   29  C   UNL     1     -11.287  16.107  70.826  1.00  0.00    -0.397 C  
HETATM   30  C   UNL     1     -10.734  15.195  69.750  1.00  0.00    -0.274 C  
HETATM   31  O   UNL     1     -11.583  14.039  69.678  1.00  0.00    -0.264 OA 
ENDBRANCH  24  27
ENDBRANCH  22  23
ENDBRANCH  21  22
ENDBRANCH  20  21
ENDBRANCH  18  20
ENDBRANCH  14  18
ENDBRANCH   2   3
TORSDOF 8
ENDMDL
MODEL       49
REMARK 921   NORMALIZED FREE ENERGY PREDICTED BY IDOCK:   -5.67 KCAL/MOL
REMARK 922        TOTAL FREE ENERGY PREDICTED BY IDOCK:   -9.85 KCAL/MOL
REMARK 923 INTER-LIGAND FREE ENERGY PREDICTED BY IDOCK:   -9.25 KCAL/MOL
REMARK 924 INTRA-LIGAND FREE ENERGY PREDICTED BY IDOCK:   -0.60 KCAL/MOL
REMARK 927      BINDING AFFINITY PREDICTED BY RF-SCORE:    0.00 PKD
ROOT
HETATM    1  C   UNL     1      -6.509  17.860  67.938  1.00  0.00    -0.183 C  
HETATM    2  O   UNL     1      -7.763  17.476  68.502  1.00  0.00    -0.252 OA 
ENDROOT
BRANCH   2   3
HETATM    3  C   UNL     1      -8.673  16.966  67.613  1.00  0.00    -0.209 A  
HETATM    4  C   UNL     1      -8.814  15.578  67.432  1.00  0.00    -0.203 A  
HETATM    5  C   UNL     1      -9.636  15.029  66.461  1.00  0.00    -0.277 A  
HETATM    6  C   UNL     1     -10.396  15.887  65.680  1.00  0.00    -0.413 A  
HETATM    7  C   UNL     1     -10.359  17.280  65.928  1.00  0.00    -0.287 A  
HETATM    8  C   UNL     1     -11.140  15.257  64.684  1.00  0.00    -0.332 A  
HETATM    9  N   UNL     1     -12.007  15.971  63.849  1.00  0.00    -1.309 NA 
HETATM   10  N   UNL     1     -11.101  13.936  64.466  1.00  0.00    -0.380 NA 
HETATM   11  C   UNL     1      -9.494  17.831  66.881  1.00  0.00    -0.271 A  
HETATM   12  N   UNL     1      -9.643  13.704  66.298  1.00  0.00    -0.267 NA 
HETATM   13  H2  UNL     1     -11.472  16.721  63.412  1.00  0.00     0.000 HD 
HETATM   14  C   UNL     1     -10.351  13.188  65.285  1.00  0.00    -0.305 A  
HETATM   15  H1  UNL     1     -12.551  15.509  63.121  1.00  0.00     0.000 HD 
BRANCH  11  16
HETATM   16  O   UNL     1      -9.583  19.194  66.929  1.00  0.00    -0.303 OA 
HETATM   17  C   UNL     1     -10.419  19.805  67.899  1.00  0.00    -0.393 C  
ENDBRANCH  11  16
BRANCH  14  18
HETATM   18  N   UNL     1     -10.334  11.827  65.094  1.00  0.00    -0.267 NA 
HETATM   19  C   UNL     1     -10.838  11.278  63.854  1.00  0.00    -0.354 C  
BRANCH  18  20
HETATM   20  C   UNL     1      -9.660  10.961  66.047  1.00  0.00    -0.209 C  
BRANCH  20  21
HETATM   21  C   UNL     1     -10.660  10.113  66.846  1.00  0.00    -0.267 C  
BRANCH  21  22
HETATM   22  C   UNL     1     -10.230   8.649  66.953  1.00  0.00    -0.296 C  
BRANCH  22  23
HETATM   23  N   UNL     1     -10.718   8.025  68.164  1.00  0.00    -0.429 N  
HETATM   24  C   UNL     1     -10.910   6.667  68.271  1.00  0.00    -0.254 C  
HETATM   25  H   UNL     1     -10.927   8.614  68.970  1.00  0.00     0.000 HD 
HETATM   26  O   UNL     1     -10.711   5.883  67.348  1.00  0.00    -0.253 OA 
BRANCH  24  27
HETATM   27  C   UNL     1     -11.402   6.205  69.650  1.00  0.00    -0.372 C  
HETATM   28  C   UNL     1     -10.267   5.554  70.417  1.00  0.00    -0.321 C  
HETATM   29  C   UNL     1     -10.743   5.657  71.841  1.00  0.00    -0.299 C  
HETATM   30  C   UNL     1     -11.485   6.978  71.846  1.00  0.00    -0.268 C  
HETATM   31  O   UNL     1     -11.901   7.250  70.499  1.00  0.00    -0.276 OA 
ENDBRANCH  24  27
ENDBRANCH  22  23
ENDBRANCH  21  22
ENDBRANCH  20  21
ENDBRANCH  18  20
ENDBRANCH  14  18
ENDBRANCH   2   3
TORSDOF 8
ENDMDL
MODEL       50
REMARK 921   NORMALIZED FREE ENERGY PREDICTED BY IDOCK:   -5.66 KCAL/MOL
REMARK 922        TOTAL FREE ENERGY PREDICTED BY IDOCK:   -9.85 KCAL/MOL
REMARK 923 INTER-LIGAND FREE ENERGY PREDICTED BY IDOCK:   -8.09 KCAL/MOL
REMARK 924 INTRA-LIGAND FREE ENERGY PREDICTED BY IDOCK:   -1.76 KCAL/MOL
REMARK 927      BINDING AFFINITY PREDICTED BY RF-SCORE:    0.00 PKD
ROOT
HETATM    1  C   UNL     1      -7.703   6.444  68.234  1.00  0.00    -0.104 C  
HETATM    2  O   UNL     1      -9.006   6.292  68.798  1.00  0.00    -0.125 OA 
ENDROOT
BRANCH   2   3
HETATM    3  C   UNL     1      -9.760   7.436  68.847  1.00  0.00    -0.150 A  
HETATM    4  C   UNL     1      -9.993   8.203  67.692  1.00  0.00    -0.240 A  
HETATM    5  C   UNL     1     -10.649   9.423  67.722  1.00  0.00    -0.258 A  
HETATM    6  C   UNL     1     -11.149   9.872  68.937  1.00  0.00    -0.181 A  
HETATM    7  C   UNL     1     -11.029   9.057  70.088  1.00  0.00    -0.256 A  
HETATM    8  C   UNL     1     -11.731  11.137  68.890  1.00  0.00    -0.337 A  
HETATM    9  N   UNL     1     -12.337  11.710  70.014  1.00  0.00    -0.226 NA 
HETATM   10  N   UNL     1     -11.775  11.883  67.779  1.00  0.00    -0.516 NA 
HETATM   11  C   UNL     1     -10.328   7.846  70.058  1.00  0.00    -0.221 A  
HETATM   12  N   UNL     1     -10.749  10.128  66.593  1.00  0.00    -0.138 NA 
HETATM   13  H2  UNL     1     -11.654  11.707  70.772  1.00  0.00     0.000 HD 
HETATM   14  C   UNL     1     -11.282  11.356  66.651  1.00  0.00    -0.231 A  
HETATM   15  H1  UNL     1     -12.763  12.635  69.979  1.00  0.00     0.000 HD 
BRANCH  11  16
HETATM   16  O   UNL     1     -10.293   7.242  71.284  1.00  0.00    -0.195 OA 
HETATM   17  C   UNL     1     -11.288   6.287  71.619  1.00  0.00    -0.294 C  
ENDBRANCH  11  16
BRANCH  14  18
HETATM   18  N   UNL     1     -11.358  12.097  65.496  1.00  0.00    -0.339 NA 
HETATM   19  C   UNL     1     -10.444  11.814  64.411  1.00  0.00    -0.311 C  
BRANCH  18  20
HETATM   20  C   UNL     1     -12.451  13.033  65.295  1.00  0.00    -0.499 C  
BRANCH  20  21
HETATM   21  C   UNL     1     -11.977  14.318  64.603  1.00  0.00    -0.468 C  
BRANCH  21  22
HETATM   22  C   UNL     1     -11.210  15.242  65.549  1.00  0.00    -0.277 C  
BRANCH  22  23
HETATM   23  N   UNL     1     -11.403  14.882  66.938  1.00  0.00    -0.349 N  
HETATM   24  C   UNL     1     -11.140  15.750  67.971  1.00  0.00    -0.337 C  
HETATM   25  H   UNL     1     -11.747  13.947  67.159  1.00  0.00     0.000 HD 
HETATM   26  O   UNL     1     -10.698  16.883  67.804  1.00  0.00    -0.339 OA 
BRANCH  24  27
HETATM   27  C   UNL     1     -11.441  15.184  69.366  1.00  0.00    -0.306 C  
HETATM   28  C   UNL     1     -11.084  16.204  70.431  1.00  0.00    -0.362 C  
HETATM   29  C   UNL     1     -11.899  15.737  71.606  1.00  0.00    -0.539 C  
HETATM   30  C   UNL     1     -13.153  15.200  70.947  1.00  0.00    -0.441 C  
HETATM   31  O   UNL     1     -12.816  14.839  69.597  1.00  0.00    -0.046 OA 
ENDBRANCH  24  27
ENDBRANCH  22  23
ENDBRANCH  21  22
ENDBRANCH  20  21
ENDBRANCH  18  20
ENDBRANCH  14  18
ENDBRANCH   2   3
TORSDOF 8
ENDMDL
MODEL       51
REMARK 921   NORMALIZED FREE ENERGY PREDICTED BY IDOCK:   -5.65 KCAL/MOL
REMARK 922        TOTAL FREE ENERGY PREDICTED BY IDOCK:   -9.82 KCAL/MOL
REMARK 923 INTER-LIGAND FREE ENERGY PREDICTED BY IDOCK:   -8.29 KCAL/MOL
REMARK 924 INTRA-LIGAND FREE ENERGY PREDICTED BY IDOCK:   -1.54 KCAL/MOL
REMARK 927      BINDING AFFINITY PREDICTED BY RF-SCORE:    0.00 PKD
ROOT
HETATM    1  C   UNL     1     -10.042  20.310  66.885  1.00  0.00    -0.425 C  
HETATM    2  O   UNL     1      -8.752  19.718  66.723  1.00  0.00    -0.309 OA 
ENDROOT
BRANCH   2   3
HETATM    3  C   UNL     1      -8.691  18.371  66.972  1.00  0.00    -0.270 A  
HETATM    4  C   UNL     1      -9.314  17.445  66.117  1.00  0.00    -0.176 A  
HETATM    5  C   UNL     1      -9.374  16.089  66.398  1.00  0.00    -0.298 A  
HETATM    6  C   UNL     1      -8.739  15.625  67.541  1.00  0.00    -0.189 A  
HETATM    7  C   UNL     1      -8.006  16.525  68.351  1.00  0.00    -0.194 A  
HETATM    8  C   UNL     1      -8.908  14.263  67.784  1.00  0.00    -0.185 A  
HETATM    9  N   UNL     1      -8.283  13.624  68.860  1.00  0.00    -0.346 NA 
HETATM   10  N   UNL     1      -9.653  13.467  67.006  1.00  0.00    -0.236 NA 
HETATM   11  C   UNL     1      -7.985  17.899  68.084  1.00  0.00    -0.265 A  
HETATM   12  N   UNL     1     -10.062  15.292  65.577  1.00  0.00    -0.364 NA 
HETATM   13  H2  UNL     1      -8.535  14.127  69.711  1.00  0.00     0.000 HD 
HETATM   14  C   UNL     1     -10.213  14.004  65.914  1.00  0.00    -0.320 A  
HETATM   15  H1  UNL     1      -8.407  12.628  69.037  1.00  0.00     0.000 HD 
BRANCH  11  16
HETATM   16  O   UNL     1      -7.258  18.592  69.011  1.00  0.00    -0.287 OA 
HETATM   17  C   UNL     1      -5.877  18.826  68.783  1.00  0.00    -0.210 C  
ENDBRANCH  11  16
BRANCH  14  18
HETATM   18  N   UNL     1     -10.947  13.188  65.087  1.00  0.00    -0.291 NA 
HETATM   19  C   UNL     1     -12.388  13.175  65.202  1.00  0.00    -0.473 C  
BRANCH  18  20
HETATM   20  C   UNL     1     -10.302  12.479  63.995  1.00  0.00    -0.404 C  
BRANCH  20  21
HETATM   21  C   UNL     1     -10.627  10.980  64.022  1.00  0.00    -0.395 C  
BRANCH  21  22
HETATM   22  C   UNL     1      -9.706  10.200  64.961  1.00  0.00    -0.318 C  
BRANCH  22  23
HETATM   23  N   UNL     1      -9.905  10.567  66.348  1.00  0.00    -0.202 N  
HETATM   24  C   UNL     1     -10.422   9.695  67.277  1.00  0.00    -0.258 C  
HETATM   25  H   UNL     1      -9.650  11.508  66.647  1.00  0.00     0.000 HD 
HETATM   26  O   UNL     1     -10.780   8.553  67.005  1.00  0.00    -0.275 OA 
BRANCH  24  27
HETATM   27  C   UNL     1     -10.521  10.270  68.697  1.00  0.00    -0.193 C  
HETATM   28  C   UNL     1     -11.794  11.083  68.842  1.00  0.00    -0.378 C  
HETATM   29  C   UNL     1     -11.991  11.104  70.334  1.00  0.00    -0.469 C  
HETATM   30  C   UNL     1     -11.480   9.741  70.754  1.00  0.00    -0.342 C  
HETATM   31  O   UNL     1     -10.559   9.291  69.747  1.00  0.00    -0.216 OA 
ENDBRANCH  24  27
ENDBRANCH  22  23
ENDBRANCH  21  22
ENDBRANCH  20  21
ENDBRANCH  18  20
ENDBRANCH  14  18
ENDBRANCH   2   3
TORSDOF 8
ENDMDL
MODEL       52
REMARK 921   NORMALIZED FREE ENERGY PREDICTED BY IDOCK:   -5.65 KCAL/MOL
REMARK 922        TOTAL FREE ENERGY PREDICTED BY IDOCK:   -9.82 KCAL/MOL
REMARK 923 INTER-LIGAND FREE ENERGY PREDICTED BY IDOCK:   -9.42 KCAL/MOL
REMARK 924 INTRA-LIGAND FREE ENERGY PREDICTED BY IDOCK:   -0.40 KCAL/MOL
REMARK 927      BINDING AFFINITY PREDICTED BY RF-SCORE:    0.00 PKD
ROOT
HETATM    1  C   UNL     1     -14.289   8.635  72.635  1.00  0.00    -0.139 C  
HETATM    2  O   UNL     1     -12.945   8.895  73.041  1.00  0.00    -0.297 OA 
ENDROOT
BRANCH   2   3
HETATM    3  C   UNL     1     -12.099   9.297  72.039  1.00  0.00    -0.336 A  
HETATM    4  C   UNL     1     -12.397  10.414  71.240  1.00  0.00    -0.507 A  
HETATM    5  C   UNL     1     -11.629  10.780  70.146  1.00  0.00    -0.337 A  
HETATM    6  C   UNL     1     -10.485  10.045  69.870  1.00  0.00    -0.317 A  
HETATM    7  C   UNL     1     -10.103   8.990  70.734  1.00  0.00    -0.303 A  
HETATM    8  C   UNL     1      -9.810  10.436  68.715  1.00  0.00    -0.185 A  
HETATM    9  N   UNL     1      -8.606   9.838  68.328  1.00  0.00    -0.118 NA 
HETATM   10  N   UNL     1     -10.244  11.414  67.909  1.00  0.00    -0.179 NA 
HETATM   11  C   UNL     1     -10.907   8.600  71.812  1.00  0.00    -0.325 A  
HETATM   12  N   UNL     1     -12.033  11.802  69.388  1.00  0.00    -0.310 NA 
HETATM   13  H2  UNL     1      -8.760   8.831  68.275  1.00  0.00     0.000 HD 
HETATM   14  C   UNL     1     -11.350  12.078  68.270  1.00  0.00    -0.286 A  
HETATM   15  H1  UNL     1      -8.113  10.125  67.483  1.00  0.00     0.000 HD 
BRANCH  11  16
HETATM   16  O   UNL     1     -10.380   7.536  72.488  1.00  0.00    -0.207 OA 
HETATM   17  C   UNL     1      -8.972   7.369  72.538  1.00  0.00    -0.132 C  
ENDBRANCH  11  16
BRANCH  14  18
HETATM   18  N   UNL     1     -11.782  13.109  67.471  1.00  0.00    -0.351 NA 
HETATM   19  C   UNL     1     -11.929  14.432  68.038  1.00  0.00    -0.291 C  
BRANCH  18  20
HETATM   20  C   UNL     1     -11.921  12.918  66.037  1.00  0.00    -0.446 C  
BRANCH  20  21
HETATM   21  C   UNL     1     -11.799  14.245  65.274  1.00  0.00    -0.374 C  
BRANCH  21  22
HETATM   22  C   UNL     1     -10.350  14.592  64.933  1.00  0.00    -0.371 C  
BRANCH  22  23
HETATM   23  N   UNL     1      -9.896  15.780  65.625  1.00  0.00    -0.336 N  
HETATM   24  C   UNL     1     -10.418  17.027  65.374  1.00  0.00    -0.112 C  
HETATM   25  H   UNL     1      -9.161  15.688  66.326  1.00  0.00     0.000 HD 
HETATM   26  O   UNL     1     -11.285  17.238  64.532  1.00  0.00    -1.083 OA 
BRANCH  24  27
HETATM   27  C   UNL     1      -9.823  18.147  66.237  1.00  0.00    -0.310 C  
HETATM   28  C   UNL     1     -10.384  19.490  65.808  1.00  0.00    -0.471 C  
HETATM   29  C   UNL     1     -10.141  20.341  67.025  1.00  0.00    -0.567 C  
HETATM   30  C   UNL     1     -10.336  19.358  68.161  1.00  0.00    -0.415 C  
HETATM   31  O   UNL     1     -10.093  18.040  67.644  1.00  0.00    -0.315 OA 
ENDBRANCH  24  27
ENDBRANCH  22  23
ENDBRANCH  21  22
ENDBRANCH  20  21
ENDBRANCH  18  20
ENDBRANCH  14  18
ENDBRANCH   2   3
TORSDOF 8
ENDMDL
MODEL       53
REMARK 921   NORMALIZED FREE ENERGY PREDICTED BY IDOCK:   -5.63 KCAL/MOL
REMARK 922        TOTAL FREE ENERGY PREDICTED BY IDOCK:   -9.80 KCAL/MOL
REMARK 923 INTER-LIGAND FREE ENERGY PREDICTED BY IDOCK:   -8.50 KCAL/MOL
REMARK 924 INTRA-LIGAND FREE ENERGY PREDICTED BY IDOCK:   -1.30 KCAL/MOL
REMARK 927      BINDING AFFINITY PREDICTED BY RF-SCORE:    0.00 PKD
ROOT
HETATM    1  C   UNL     1      -8.878   6.794  68.155  1.00  0.00    -0.120 C  
HETATM    2  O   UNL     1      -9.749   7.047  69.257  1.00  0.00    -0.157 OA 
ENDROOT
BRANCH   2   3
HETATM    3  C   UNL     1     -10.292   8.305  69.297  1.00  0.00    -0.218 A  
HETATM    4  C   UNL     1     -10.607   9.000  68.116  1.00  0.00    -0.225 A  
HETATM    5  C   UNL     1     -11.045  10.314  68.113  1.00  0.00    -0.264 A  
HETATM    6  C   UNL     1     -11.238  10.946  69.333  1.00  0.00    -0.335 A  
HETATM    7  C   UNL     1     -11.041  10.225  70.535  1.00  0.00    -0.381 A  
HETATM    8  C   UNL     1     -11.612  12.285  69.238  1.00  0.00    -0.324 A  
HETATM    9  N   UNL     1     -11.905  13.049  70.373  1.00  0.00    -0.543 NA 
HETATM   10  N   UNL     1     -11.739  12.929  68.071  1.00  0.00    -0.343 NA 
HETATM   11  C   UNL     1     -10.557   8.911  70.530  1.00  0.00    -0.220 A  
HETATM   12  N   UNL     1     -11.237  10.927  66.942  1.00  0.00    -0.301 NA 
HETATM   13  H2  UNL     1     -11.105  12.992  71.004  1.00  0.00     0.000 HD 
HETATM   14  C   UNL     1     -11.549  12.229  66.946  1.00  0.00    -0.361 A  
HETATM   15  H1  UNL     1     -12.179  14.029  70.303  1.00  0.00     0.000 HD 
BRANCH  11  16
HETATM   16  O   UNL     1     -10.396   8.417  71.794  1.00  0.00    -0.218 OA 
HETATM   17  C   UNL     1     -11.540   8.079  72.563  1.00  0.00    -0.403 C  
ENDBRANCH  11  16
BRANCH  14  18
HETATM   18  N   UNL     1     -11.716  12.870  65.742  1.00  0.00    -0.368 NA 
HETATM   19  C   UNL     1     -11.187  12.267  64.538  1.00  0.00    -0.326 C  
BRANCH  18  20
HETATM   20  C   UNL     1     -12.563  14.048  65.648  1.00  0.00    -0.512 C  
BRANCH  20  21
HETATM   21  C   UNL     1     -12.311  14.825  64.349  1.00  0.00    -0.389 C  
BRANCH  21  22
HETATM   22  C   UNL     1     -11.308  15.964  64.534  1.00  0.00    -0.309 C  
BRANCH  22  23
HETATM   23  N   UNL     1     -10.226  15.598  65.424  1.00  0.00    -0.373 N  
HETATM   24  C   UNL     1      -9.462  16.533  66.082  1.00  0.00    -0.315 C  
HETATM   25  H   UNL     1     -10.022  14.610  65.568  1.00  0.00     0.000 HD 
HETATM   26  O   UNL     1      -9.616  17.743  65.951  1.00  0.00    -0.517 OA 
BRANCH  24  27
HETATM   27  C   UNL     1      -8.387  15.937  67.002  1.00  0.00    -0.223 C  
HETATM   28  C   UNL     1      -8.402  16.642  68.346  1.00  0.00    -0.208 C  
HETATM   29  C   UNL     1      -7.723  15.639  69.239  1.00  0.00    -0.223 C  
HETATM   30  C   UNL     1      -8.186  14.317  68.664  1.00  0.00    -0.139 C  
HETATM   31  O   UNL     1      -8.542  14.539  67.290  1.00  0.00    -0.190 OA 
ENDBRANCH  24  27
ENDBRANCH  22  23
ENDBRANCH  21  22
ENDBRANCH  20  21
ENDBRANCH  18  20
ENDBRANCH  14  18
ENDBRANCH   2   3
TORSDOF 8
ENDMDL
MODEL       54
REMARK 921   NORMALIZED FREE ENERGY PREDICTED BY IDOCK:   -5.62 KCAL/MOL
REMARK 922        TOTAL FREE ENERGY PREDICTED BY IDOCK:   -9.79 KCAL/MOL
REMARK 923 INTER-LIGAND FREE ENERGY PREDICTED BY IDOCK:   -9.07 KCAL/MOL
REMARK 924 INTRA-LIGAND FREE ENERGY PREDICTED BY IDOCK:   -0.72 KCAL/MOL
REMARK 927      BINDING AFFINITY PREDICTED BY RF-SCORE:    0.00 PKD
ROOT
HETATM    1  C   UNL     1      -9.980  17.841  68.947  1.00  0.00    -0.332 C  
HETATM    2  O   UNL     1     -10.907  17.472  67.926  1.00  0.00    -0.374 OA 
ENDROOT
BRANCH   2   3
HETATM    3  C   UNL     1     -11.191  16.133  67.849  1.00  0.00    -0.245 A  
HETATM    4  C   UNL     1     -11.692  15.431  68.960  1.00  0.00    -0.380 A  
HETATM    5  C   UNL     1     -11.879  14.058  68.957  1.00  0.00    -0.354 A  
HETATM    6  C   UNL     1     -11.618  13.361  67.786  1.00  0.00    -0.375 A  
HETATM    7  C   UNL     1     -11.228  14.066  66.622  1.00  0.00    -0.330 A  
HETATM    8  C   UNL     1     -11.765  11.979  67.890  1.00  0.00    -0.323 A  
HETATM    9  N   UNL     1     -11.599  11.135  66.786  1.00  0.00    -0.323 NA 
HETATM   10  N   UNL     1     -12.093  11.361  69.033  1.00  0.00    -0.421 NA 
HETATM   11  C   UNL     1     -10.999  15.446  66.645  1.00  0.00    -0.275 A  
HETATM   12  N   UNL     1     -12.274  13.459  70.083  1.00  0.00    -0.332 NA 
HETATM   13  H2  UNL     1     -10.680  11.323  66.385  1.00  0.00     0.000 HD 
HETATM   14  C   UNL     1     -12.343  12.122  70.106  1.00  0.00    -0.145 A  
HETATM   15  H1  UNL     1     -11.707  10.125  66.863  1.00  0.00     0.000 HD 
BRANCH  11  16
HETATM   16  O   UNL     1     -10.587  15.920  65.431  1.00  0.00    -0.378 OA 
HETATM   17  C   UNL     1     -11.355  15.636  64.273  1.00  0.00    -0.171 C  
ENDBRANCH  11  16
BRANCH  14  18
HETATM   18  N   UNL     1     -12.719  11.501  71.273  1.00  0.00    -0.398 NA 
HETATM   19  C   UNL     1     -13.510  12.229  72.241  1.00  0.00    -0.260 C  
BRANCH  18  20
HETATM   20  C   UNL     1     -12.478  10.080  71.459  1.00  0.00    -0.419 C  
BRANCH  20  21
HETATM   21  C   UNL     1     -13.688   9.379  72.092  1.00  0.00    -0.490 C  
BRANCH  21  22
HETATM   22  C   UNL     1     -13.805   7.916  71.664  1.00  0.00    -0.379 C  
BRANCH  22  23
HETATM   23  N   UNL     1     -12.773   7.090  72.258  1.00  0.00    -0.527 N  
HETATM   24  C   UNL     1     -11.721   6.586  71.531  1.00  0.00    -0.324 C  
HETATM   25  H   UNL     1     -12.830   6.875  73.253  1.00  0.00     0.000 HD 
HETATM   26  O   UNL     1     -11.584   6.770  70.326  1.00  0.00    -0.353 OA 
BRANCH  24  27
HETATM   27  C   UNL     1     -10.721   5.763  72.355  1.00  0.00    -0.235 C  
HETATM   28  C   UNL     1     -10.248   6.564  73.554  1.00  0.00    -0.281 C  
HETATM   29  C   UNL     1      -9.746   5.489  74.479  1.00  0.00    -0.204 C  
HETATM   30  C   UNL     1     -10.700   4.344  74.203  1.00  0.00    -0.252 C  
HETATM   31  O   UNL     1     -11.238   4.532  72.885  1.00  0.00    -0.191 OA 
ENDBRANCH  24  27
ENDBRANCH  22  23
ENDBRANCH  21  22
ENDBRANCH  20  21
ENDBRANCH  18  20
ENDBRANCH  14  18
ENDBRANCH   2   3
TORSDOF 8
ENDMDL
MODEL       55
REMARK 921   NORMALIZED FREE ENERGY PREDICTED BY IDOCK:   -5.61 KCAL/MOL
REMARK 922        TOTAL FREE ENERGY PREDICTED BY IDOCK:   -9.78 KCAL/MOL
REMARK 923 INTER-LIGAND FREE ENERGY PREDICTED BY IDOCK:   -8.08 KCAL/MOL
REMARK 924 INTRA-LIGAND FREE ENERGY PREDICTED BY IDOCK:   -1.69 KCAL/MOL
REMARK 927      BINDING AFFINITY PREDICTED BY RF-SCORE:    0.00 PKD
ROOT
HETATM    1  C   UNL     1     -13.364   9.428  71.883  1.00  0.00    -0.434 C  
HETATM    2  O   UNL     1     -12.164  10.175  71.682  1.00  0.00    -0.382 OA 
ENDROOT
BRANCH   2   3
HETATM    3  C   UNL     1     -11.630  10.096  70.421  1.00  0.00    -0.316 A  
HETATM    4  C   UNL     1     -11.880  11.093  69.462  1.00  0.00    -0.423 A  
HETATM    5  C   UNL     1     -11.456  10.991  68.147  1.00  0.00    -0.302 A  
HETATM    6  C   UNL     1     -10.702   9.884  67.782  1.00  0.00    -0.332 A  
HETATM    7  C   UNL     1     -10.339   8.929  68.762  1.00  0.00    -0.232 A  
HETATM    8  C   UNL     1     -10.378   9.826  66.428  1.00  0.00    -0.177 A  
HETATM    9  N   UNL     1      -9.571   8.808  65.908  1.00  0.00    -0.411 NA 
HETATM   10  N   UNL     1     -10.789  10.736  65.536  1.00  0.00    -0.069 NA 
HETATM   11  C   UNL     1     -10.807   9.018  70.079  1.00  0.00    -0.231 A  
HETATM   12  N   UNL     1     -11.813  11.941  67.280  1.00  0.00    -0.612 NA 
HETATM   13  H2  UNL     1      -9.989   7.914  66.169  1.00  0.00     0.000 HD 
HETATM   14  C   UNL     1     -11.499  11.779  65.988  1.00  0.00    -0.215 A  
HETATM   15  H1  UNL     1      -9.334   8.765  64.917  1.00  0.00     0.000 HD 
BRANCH  11  16
HETATM   16  O   UNL     1     -10.377   7.974  70.849  1.00  0.00    -0.199 OA 
HETATM   17  C   UNL     1     -11.230   6.859  71.053  1.00  0.00    -0.282 C  
ENDBRANCH  11  16
BRANCH  14  18
HETATM   18  N   UNL     1     -11.892  12.740  65.088  1.00  0.00    -0.367 NA 
HETATM   19  C   UNL     1     -12.164  12.360  63.719  1.00  0.00    -0.533 C  
BRANCH  18  20
HETATM   20  C   UNL     1     -12.201  14.086  65.539  1.00  0.00    -0.439 C  
BRANCH  20  21
HETATM   21  C   UNL     1     -11.531  15.148  64.657  1.00  0.00    -0.363 C  
BRANCH  21  22
HETATM   22  C   UNL     1     -10.200  15.631  65.233  1.00  0.00    -0.324 C  
BRANCH  22  23
HETATM   23  N   UNL     1      -9.571  14.629  66.067  1.00  0.00    -0.405 N  
HETATM   24  C   UNL     1      -9.248  14.859  67.384  1.00  0.00    -0.194 C  
HETATM   25  H   UNL     1      -9.358  13.718  65.662  1.00  0.00     0.000 HD 
HETATM   26  O   UNL     1      -9.442  15.931  67.948  1.00  0.00    -0.211 OA 
BRANCH  24  27
HETATM   27  C   UNL     1      -8.618  13.656  68.100  1.00  0.00    -0.176 C  
HETATM   28  C   UNL     1      -8.204  12.605  67.087  1.00  0.00    -0.159 C  
HETATM   29  C   UNL     1      -7.181  11.810  67.852  1.00  0.00    -0.092 C  
HETATM   30  C   UNL     1      -6.511  12.867  68.705  1.00  0.00    -0.087 C  
HETATM   31  O   UNL     1      -7.437  13.953  68.862  1.00  0.00    -0.120 OA 
ENDBRANCH  24  27
ENDBRANCH  22  23
ENDBRANCH  21  22
ENDBRANCH  20  21
ENDBRANCH  18  20
ENDBRANCH  14  18
ENDBRANCH   2   3
TORSDOF 8
ENDMDL
MODEL       56
REMARK 921   NORMALIZED FREE ENERGY PREDICTED BY IDOCK:   -5.58 KCAL/MOL
REMARK 922        TOTAL FREE ENERGY PREDICTED BY IDOCK:   -9.72 KCAL/MOL
REMARK 923 INTER-LIGAND FREE ENERGY PREDICTED BY IDOCK:   -8.53 KCAL/MOL
REMARK 924 INTRA-LIGAND FREE ENERGY PREDICTED BY IDOCK:   -1.19 KCAL/MOL
REMARK 927      BINDING AFFINITY PREDICTED BY RF-SCORE:    0.00 PKD
ROOT
HETATM    1  C   UNL     1     -12.730  12.030  63.710  1.00  0.00    -0.400 C  
HETATM    2  O   UNL     1     -11.366  11.612  63.771  1.00  0.00    -0.397 OA 
ENDROOT
BRANCH   2   3
HETATM    3  C   UNL     1     -10.672  12.038  64.874  1.00  0.00    -0.301 A  
HETATM    4  C   UNL     1     -10.408  13.403  65.085  1.00  0.00    -0.349 A  
HETATM    5  C   UNL     1      -9.611  13.861  66.122  1.00  0.00    -0.229 A  
HETATM    6  C   UNL     1      -9.106  12.934  67.023  1.00  0.00    -0.228 A  
HETATM    7  C   UNL     1      -9.459  11.568  66.896  1.00  0.00    -0.194 A  
HETATM    8  C   UNL     1      -8.260  13.470  67.992  1.00  0.00    -0.163 A  
HETATM    9  N   UNL     1      -7.715  12.681  69.011  1.00  0.00    -0.328 NA 
HETATM   10  N   UNL     1      -7.924  14.766  68.035  1.00  0.00    -0.127 NA 
HETATM   11  C   UNL     1     -10.228  11.108  65.821  1.00  0.00    -0.257 A  
HETATM   12  N   UNL     1      -9.340  15.166  66.198  1.00  0.00    -0.309 NA 
HETATM   13  H2  UNL     1      -7.232  11.896  68.574  1.00  0.00     0.000 HD 
HETATM   14  C   UNL     1      -8.478  15.587  67.133  1.00  0.00    -0.212 A  
HETATM   15  H1  UNL     1      -7.096  13.074  69.719  1.00  0.00     0.000 HD 
BRANCH  11  16
HETATM   16  O   UNL     1     -10.414   9.755  65.864  1.00  0.00    -0.148 OA 
HETATM   17  C   UNL     1      -9.313   8.907  66.148  1.00  0.00    -0.239 C  
ENDBRANCH  11  16
BRANCH  14  18
HETATM   18  N   UNL     1      -8.172  16.925  67.193  1.00  0.00    -0.182 NA 
HETATM   19  C   UNL     1      -7.964  17.660  65.965  1.00  0.00    -0.140 C  
BRANCH  18  20
HETATM   20  C   UNL     1      -8.228  17.635  68.460  1.00  0.00    -0.292 C  
BRANCH  20  21
HETATM   21  C   UNL     1      -9.505  18.478  68.580  1.00  0.00    -0.373 C  
BRANCH  21  22
HETATM   22  C   UNL     1     -10.773  17.625  68.547  1.00  0.00    -0.190 C  
BRANCH  22  23
HETATM   23  N   UNL     1     -10.973  16.896  69.782  1.00  0.00    -0.371 N  
HETATM   24  C   UNL     1     -11.486  15.621  69.813  1.00  0.00    -0.342 C  
HETATM   25  H   UNL     1     -10.724  17.346  70.662  1.00  0.00     0.000 HD 
HETATM   26  O   UNL     1     -11.838  15.011  68.808  1.00  0.00    -0.324 OA 
BRANCH  24  27
HETATM   27  C   UNL     1     -11.588  15.014  71.219  1.00  0.00    -0.335 C  
HETATM   28  C   UNL     1     -11.812  16.110  72.245  1.00  0.00    -0.631 C  
HETATM   29  C   UNL     1     -12.400  15.349  73.402  1.00  0.00    -0.622 C  
HETATM   30  C   UNL     1     -13.219  14.277  72.711  1.00  0.00    -0.522 C  
HETATM   31  O   UNL     1     -12.663  14.080  71.402  1.00  0.00    -0.329 OA 
ENDBRANCH  24  27
ENDBRANCH  22  23
ENDBRANCH  21  22
ENDBRANCH  20  21
ENDBRANCH  18  20
ENDBRANCH  14  18
ENDBRANCH   2   3
TORSDOF 8
ENDMDL
MODEL       57
REMARK 921   NORMALIZED FREE ENERGY PREDICTED BY IDOCK:   -5.58 KCAL/MOL
REMARK 922        TOTAL FREE ENERGY PREDICTED BY IDOCK:   -9.72 KCAL/MOL
REMARK 923 INTER-LIGAND FREE ENERGY PREDICTED BY IDOCK:   -8.09 KCAL/MOL
REMARK 924 INTRA-LIGAND FREE ENERGY PREDICTED BY IDOCK:   -1.63 KCAL/MOL
REMARK 927      BINDING AFFINITY PREDICTED BY RF-SCORE:    0.00 PKD
ROOT
HETATM    1  C   UNL     1      -9.857   5.062  70.049  1.00  0.00    -0.228 C  
HETATM    2  O   UNL     1     -11.046   5.824  70.259  1.00  0.00    -0.311 OA 
ENDROOT
BRANCH   2   3
HETATM    3  C   UNL     1     -10.991   7.125  69.830  1.00  0.00    -0.253 A  
HETATM    4  C   UNL     1     -10.645   7.440  68.504  1.00  0.00    -0.188 A  
HETATM    5  C   UNL     1     -10.465   8.742  68.066  1.00  0.00    -0.204 A  
HETATM    6  C   UNL     1     -10.696   9.776  68.961  1.00  0.00    -0.238 A  
HETATM    7  C   UNL     1     -11.161   9.483  70.266  1.00  0.00    -0.307 A  
HETATM    8  C   UNL     1     -10.424  11.048  68.460  1.00  0.00    -0.189 A  
HETATM    9  N   UNL     1     -10.663  12.202  69.213  1.00  0.00    -0.437 NA 
HETATM   10  N   UNL     1      -9.941  11.262  67.229  1.00  0.00    -0.182 NA 
HETATM   11  C   UNL     1     -11.300   8.164  70.714  1.00  0.00    -0.270 A  
HETATM   12  N   UNL     1     -10.049   8.948  66.814  1.00  0.00    -0.262 NA 
HETATM   13  H2  UNL     1     -10.170  12.104  70.100  1.00  0.00     0.000 HD 
HETATM   14  C   UNL     1      -9.767  10.200  66.431  1.00  0.00    -0.205 A  
HETATM   15  H1  UNL     1     -10.464  13.132  68.845  1.00  0.00     0.000 HD 
BRANCH  11  16
HETATM   16  O   UNL     1     -11.717   8.104  72.015  1.00  0.00    -0.291 OA 
HETATM   17  C   UNL     1     -10.792   7.746  73.029  1.00  0.00    -0.389 C  
ENDBRANCH  11  16
BRANCH  14  18
HETATM   18  N   UNL     1      -9.309  10.412  65.153  1.00  0.00    -0.201 NA 
HETATM   19  C   UNL     1      -7.897  10.270  64.873  1.00  0.00    -0.134 C  
BRANCH  18  20
HETATM   20  C   UNL     1     -10.247  10.603  64.060  1.00  0.00    -0.264 C  
BRANCH  20  21
HETATM   21  C   UNL     1     -10.085  11.984  63.410  1.00  0.00    -0.437 C  
BRANCH  21  22
HETATM   22  C   UNL     1     -11.151  12.977  63.874  1.00  0.00    -0.371 C  
BRANCH  22  23
HETATM   23  N   UNL     1     -10.895  13.466  65.212  1.00  0.00    -0.299 N  
HETATM   24  C   UNL     1     -10.820  14.807  65.508  1.00  0.00    -0.351 C  
HETATM   25  H   UNL     1     -10.766  12.790  65.964  1.00  0.00     0.000 HD 
HETATM   26  O   UNL     1     -10.936  15.691  64.665  1.00  0.00    -0.424 OA 
BRANCH  24  27
HETATM   27  C   UNL     1     -10.573  15.114  66.992  1.00  0.00    -0.300 C  
HETATM   28  C   UNL     1     -10.428  16.610  67.197  1.00  0.00    -0.300 C  
HETATM   29  C   UNL     1     -10.727  16.761  68.664  1.00  0.00    -0.352 C  
HETATM   30  C   UNL     1     -11.778  15.697  68.899  1.00  0.00    -0.384 C  
HETATM   31  O   UNL     1     -11.620  14.695  67.881  1.00  0.00    -0.319 OA 
ENDBRANCH  24  27
ENDBRANCH  22  23
ENDBRANCH  21  22
ENDBRANCH  20  21
ENDBRANCH  18  20
ENDBRANCH  14  18
ENDBRANCH   2   3
TORSDOF 8
ENDMDL
MODEL       58
REMARK 921   NORMALIZED FREE ENERGY PREDICTED BY IDOCK:   -5.57 KCAL/MOL
REMARK 922        TOTAL FREE ENERGY PREDICTED BY IDOCK:   -9.72 KCAL/MOL
REMARK 923 INTER-LIGAND FREE ENERGY PREDICTED BY IDOCK:   -8.07 KCAL/MOL
REMARK 924 INTRA-LIGAND FREE ENERGY PREDICTED BY IDOCK:   -1.65 KCAL/MOL
REMARK 927      BINDING AFFINITY PREDICTED BY RF-SCORE:    0.00 PKD
ROOT
HETATM    1  C   UNL     1     -12.621  12.131  63.375  1.00  0.00    -0.463 C  
HETATM    2  O   UNL     1     -11.385  12.391  64.041  1.00  0.00    -0.338 OA 
ENDROOT
BRANCH   2   3
HETATM    3  C   UNL     1     -11.496  12.757  65.358  1.00  0.00    -0.327 A  
HETATM    4  C   UNL     1     -11.433  11.800  66.386  1.00  0.00    -0.309 A  
HETATM    5  C   UNL     1     -11.658  12.114  67.717  1.00  0.00    -0.342 A  
HETATM    6  C   UNL     1     -11.894  13.441  68.050  1.00  0.00    -0.392 A  
HETATM    7  C   UNL     1     -11.842  14.436  67.044  1.00  0.00    -0.437 A  
HETATM    8  C   UNL     1     -12.178  13.657  69.397  1.00  0.00    -0.259 A  
HETATM    9  N   UNL     1     -12.379  14.944  69.908  1.00  0.00    -0.475 NA 
HETATM   10  N   UNL     1     -12.259  12.669  70.297  1.00  0.00    -0.313 NA 
HETATM   11  C   UNL     1     -11.657  14.105  65.697  1.00  0.00    -0.339 A  
HETATM   12  N   UNL     1     -11.667  11.129  68.618  1.00  0.00    -0.404 NA 
HETATM   13  H2  UNL     1     -13.115  15.388  69.358  1.00  0.00     0.000 HD 
HETATM   14  C   UNL     1     -11.998  11.422  69.883  1.00  0.00    -0.359 A  
HETATM   15  H1  UNL     1     -12.587  15.102  70.894  1.00  0.00     0.000 HD 
BRANCH  11  16
HETATM   16  O   UNL     1     -11.684  15.207  64.888  1.00  0.00    -0.356 OA 
HETATM   17  C   UNL     1     -10.813  16.294  65.159  1.00  0.00    -0.318 C  
ENDBRANCH  11  16
BRANCH  14  18
HETATM   18  N   UNL     1     -12.039  10.406  70.806  1.00  0.00    -0.332 NA 
HETATM   19  C   UNL     1     -12.939  10.508  71.934  1.00  0.00    -0.447 C  
BRANCH  18  20
HETATM   20  C   UNL     1     -11.322   9.165  70.565  1.00  0.00    -0.257 C  
BRANCH  20  21
HETATM   21  C   UNL     1     -10.162   8.980  71.554  1.00  0.00    -0.414 C  
BRANCH  21  22
HETATM   22  C   UNL     1      -8.801   9.261  70.917  1.00  0.00    -0.188 C  
BRANCH  22  23
HETATM   23  N   UNL     1      -8.911   9.560  69.505  1.00  0.00    -0.165 N  
HETATM   24  C   UNL     1      -7.903  10.172  68.798  1.00  0.00    -0.098 C  
HETATM   25  H   UNL     1      -9.769   9.307  69.016  1.00  0.00     0.000 HD 
HETATM   26  O   UNL     1      -6.847  10.535  69.306  1.00  0.00    -0.061 OA 
BRANCH  24  27
HETATM   27  C   UNL     1      -8.206  10.370  67.306  1.00  0.00    -0.121 C  
HETATM   28  C   UNL     1      -6.925  10.289  66.498  1.00  0.00    -0.107 C  
HETATM   29  C   UNL     1      -7.437   9.971  65.119  1.00  0.00    -0.139 C  
HETATM   30  C   UNL     1      -8.636   9.091  65.406  1.00  0.00    -0.177 C  
HETATM   31  O   UNL     1      -9.094   9.397  66.733  1.00  0.00    -0.135 OA 
ENDBRANCH  24  27
ENDBRANCH  22  23
ENDBRANCH  21  22
ENDBRANCH  20  21
ENDBRANCH  18  20
ENDBRANCH  14  18
ENDBRANCH   2   3
TORSDOF 8
ENDMDL
MODEL       59
REMARK 921   NORMALIZED FREE ENERGY PREDICTED BY IDOCK:   -5.56 KCAL/MOL
REMARK 922        TOTAL FREE ENERGY PREDICTED BY IDOCK:   -9.69 KCAL/MOL
REMARK 923 INTER-LIGAND FREE ENERGY PREDICTED BY IDOCK:   -8.69 KCAL/MOL
REMARK 924 INTRA-LIGAND FREE ENERGY PREDICTED BY IDOCK:   -1.01 KCAL/MOL
REMARK 927      BINDING AFFINITY PREDICTED BY RF-SCORE:    0.00 PKD
ROOT
HETATM    1  C   UNL     1     -13.508   9.160  71.429  1.00  0.00    -0.298 C  
HETATM    2  O   UNL     1     -12.620  10.206  71.822  1.00  0.00    -0.395 OA 
ENDROOT
BRANCH   2   3
HETATM    3  C   UNL     1     -12.516  11.249  70.939  1.00  0.00    -0.394 A  
HETATM    4  C   UNL     1     -12.262  11.024  69.574  1.00  0.00    -0.352 A  
HETATM    5  C   UNL     1     -12.034  12.053  68.675  1.00  0.00    -0.235 A  
HETATM    6  C   UNL     1     -12.121  13.360  69.134  1.00  0.00    -0.306 A  
HETATM    7  C   UNL     1     -12.492  13.608  70.477  1.00  0.00    -0.394 A  
HETATM    8  C   UNL     1     -11.809  14.329  68.182  1.00  0.00    -0.339 A  
HETATM    9  N   UNL     1     -11.907  15.696  68.465  1.00  0.00    -0.483 NA 
HETATM   10  N   UNL     1     -11.419  14.033  66.936  1.00  0.00    -0.338 NA 
HETATM   11  C   UNL     1     -12.679  12.564  71.390  1.00  0.00    -0.243 A  
HETATM   12  N   UNL     1     -11.714  11.748  67.415  1.00  0.00    -0.588 NA 
HETATM   13  H2  UNL     1     -11.348  15.884  69.297  1.00  0.00     0.000 HD 
HETATM   14  C   UNL     1     -11.383  12.742  66.581  1.00  0.00    -0.316 A  
HETATM   15  H1  UNL     1     -11.679  16.405  67.768  1.00  0.00     0.000 HD 
BRANCH  11  16
HETATM   16  O   UNL     1     -12.988  13.022  72.640  1.00  0.00    -0.250 OA 
HETATM   17  C   UNL     1     -13.241  14.404  72.834  1.00  0.00    -0.517 C  
ENDBRANCH  11  16
BRANCH  14  18
HETATM   18  N   UNL     1     -11.022  12.429  65.292  1.00  0.00    -0.290 NA 
HETATM   19  C   UNL     1     -11.799  12.953  64.191  1.00  0.00    -0.414 C  
BRANCH  18  20
HETATM   20  C   UNL     1      -9.776  11.729  65.029  1.00  0.00    -0.187 C  
BRANCH  20  21
HETATM   21  C   UNL     1      -9.841  10.930  63.720  1.00  0.00    -0.391 C  
BRANCH  21  22
HETATM   22  C   UNL     1      -8.951   9.687  63.749  1.00  0.00    -0.217 C  
BRANCH  22  23
HETATM   23  N   UNL     1      -9.265   8.818  64.863  1.00  0.00    -0.415 N  
HETATM   24  C   UNL     1      -8.435   8.679  65.950  1.00  0.00    -0.146 C  
HETATM   25  H   UNL     1     -10.136   8.288  64.841  1.00  0.00     0.000 HD 
HETATM   26  O   UNL     1      -7.356   9.256  66.052  1.00  0.00    -0.093 OA 
BRANCH  24  27
HETATM   27  C   UNL     1      -8.966   7.735  67.036  1.00  0.00    -0.129 C  
HETATM   28  C   UNL     1     -10.368   8.147  67.446  1.00  0.00    -0.351 C  
HETATM   29  C   UNL     1     -10.905   6.884  68.062  1.00  0.00    -0.266 C  
HETATM   30  C   UNL     1     -10.258   5.804  67.220  1.00  0.00    -0.205 C  
HETATM   31  O   UNL     1      -9.061   6.355  66.648  1.00  0.00    -0.136 OA 
ENDBRANCH  24  27
ENDBRANCH  22  23
ENDBRANCH  21  22
ENDBRANCH  20  21
ENDBRANCH  18  20
ENDBRANCH  14  18
ENDBRANCH   2   3
TORSDOF 8
ENDMDL
MODEL       60
REMARK 921   NORMALIZED FREE ENERGY PREDICTED BY IDOCK:   -5.55 KCAL/MOL
REMARK 922        TOTAL FREE ENERGY PREDICTED BY IDOCK:   -9.68 KCAL/MOL
REMARK 923 INTER-LIGAND FREE ENERGY PREDICTED BY IDOCK:   -8.88 KCAL/MOL
REMARK 924 INTRA-LIGAND FREE ENERGY PREDICTED BY IDOCK:   -0.80 KCAL/MOL
REMARK 927      BINDING AFFINITY PREDICTED BY RF-SCORE:    0.00 PKD
ROOT
HETATM    1  C   UNL     1     -10.136   8.678  71.946  1.00  0.00    -0.328 C  
HETATM    2  O   UNL     1     -10.853   8.019  70.902  1.00  0.00    -0.223 OA 
ENDROOT
BRANCH   2   3
HETATM    3  C   UNL     1     -10.468   8.349  69.629  1.00  0.00    -0.221 A  
HETATM    4  C   UNL     1     -10.788   9.600  69.073  1.00  0.00    -0.206 A  
HETATM    5  C   UNL     1     -10.520   9.924  67.752  1.00  0.00    -0.242 A  
HETATM    6  C   UNL     1      -9.852   8.994  66.969  1.00  0.00    -0.270 A  
HETATM    7  C   UNL     1      -9.415   7.777  67.544  1.00  0.00    -0.170 A  
HETATM    8  C   UNL     1      -9.685   9.372  65.638  1.00  0.00    -0.266 A  
HETATM    9  N   UNL     1      -8.979   8.576  64.729  1.00  0.00    -0.410 NA 
HETATM   10  N   UNL     1     -10.161  10.520  65.137  1.00  0.00    -0.306 NA 
HETATM   11  C   UNL     1      -9.727   7.438  68.866  1.00  0.00    -0.150 A  
HETATM   12  N   UNL     1     -10.938  11.101  67.281  1.00  0.00    -0.280 NA 
HETATM   13  H2  UNL     1      -9.396   7.645  64.740  1.00  0.00     0.000 HD 
HETATM   14  C   UNL     1     -10.777  11.362  65.977  1.00  0.00    -0.263 A  
HETATM   15  H1  UNL     1      -8.857   8.854  63.756  1.00  0.00     0.000 HD 
BRANCH  11  16
HETATM   16  O   UNL     1      -9.251   6.203  69.207  1.00  0.00    -0.131 OA 
HETATM   17  C   UNL     1      -9.330   5.141  68.270  1.00  0.00    -0.122 C  
ENDBRANCH  11  16
BRANCH  14  18
HETATM   18  N   UNL     1     -11.234  12.559  65.483  1.00  0.00    -0.303 NA 
HETATM   19  C   UNL     1     -11.313  12.752  64.051  1.00  0.00    -0.413 C  
BRANCH  18  20
HETATM   20  C   UNL     1     -11.798  13.556  66.378  1.00  0.00    -0.394 C  
BRANCH  20  21
HETATM   21  C   UNL     1     -10.729  14.536  66.879  1.00  0.00    -0.288 C  
BRANCH  21  22
HETATM   22  C   UNL     1     -11.335  15.804  67.482  1.00  0.00    -0.150 C  
BRANCH  22  23
HETATM   23  N   UNL     1     -12.159  15.517  68.638  1.00  0.00    -0.563 N  
HETATM   24  C   UNL     1     -11.765  15.816  69.920  1.00  0.00    -0.357 C  
HETATM   25  H   UNL     1     -13.067  15.075  68.495  1.00  0.00     0.000 HD 
HETATM   26  O   UNL     1     -10.681  16.323  70.192  1.00  0.00    -0.308 OA 
BRANCH  24  27
HETATM   27  C   UNL     1     -12.797  15.461  70.999  1.00  0.00    -0.463 C  
HETATM   28  C   UNL     1     -12.795  13.964  71.249  1.00  0.00    -0.435 C  
HETATM   29  C   UNL     1     -13.415  13.868  72.617  1.00  0.00    -0.652 C  
HETATM   30  C   UNL     1     -12.900  15.118  73.301  1.00  0.00    -0.523 C  
HETATM   31  O   UNL     1     -12.575  16.073  72.279  1.00  0.00    -0.446 OA 
ENDBRANCH  24  27
ENDBRANCH  22  23
ENDBRANCH  21  22
ENDBRANCH  20  21
ENDBRANCH  18  20
ENDBRANCH  14  18
ENDBRANCH   2   3
TORSDOF 8
ENDMDL
MODEL       61
REMARK 921   NORMALIZED FREE ENERGY PREDICTED BY IDOCK:   -5.54 KCAL/MOL
REMARK 922        TOTAL FREE ENERGY PREDICTED BY IDOCK:   -9.66 KCAL/MOL
REMARK 923 INTER-LIGAND FREE ENERGY PREDICTED BY IDOCK:   -8.96 KCAL/MOL
REMARK 924 INTRA-LIGAND FREE ENERGY PREDICTED BY IDOCK:   -0.71 KCAL/MOL
REMARK 927      BINDING AFFINITY PREDICTED BY RF-SCORE:    0.00 PKD
ROOT
HETATM    1  C   UNL     1     -14.025   8.827  71.701  1.00  0.00    -0.394 C  
HETATM    2  O   UNL     1     -13.009   9.772  72.039  1.00  0.00    -0.400 OA 
ENDROOT
BRANCH   2   3
HETATM    3  C   UNL     1     -12.125  10.066  71.033  1.00  0.00    -0.373 A  
HETATM    4  C   UNL     1     -12.507  10.860  69.938  1.00  0.00    -0.292 A  
HETATM    5  C   UNL     1     -11.681  11.081  68.848  1.00  0.00    -0.330 A  
HETATM    6  C   UNL     1     -10.402  10.544  68.872  1.00  0.00    -0.226 A  
HETATM    7  C   UNL     1      -9.957   9.842  70.018  1.00  0.00    -0.299 A  
HETATM    8  C   UNL     1      -9.664  10.755  67.708  1.00  0.00    -0.162 A  
HETATM    9  N   UNL     1      -8.336  10.331  67.592  1.00  0.00    -0.114 NA 
HETATM   10  N   UNL     1     -10.154  11.388  66.634  1.00  0.00    -0.207 NA 
HETATM   11  C   UNL     1     -10.812   9.586  71.096  1.00  0.00    -0.355 A  
HETATM   12  N   UNL     1     -12.156  11.775  67.810  1.00  0.00    -0.560 NA 
HETATM   13  H2  UNL     1      -8.306   9.333  67.805  1.00  0.00     0.000 HD 
HETATM   14  C   UNL     1     -11.394  11.888  66.714  1.00  0.00    -0.330 A  
HETATM   15  H1  UNL     1      -7.797  10.485  66.741  1.00  0.00     0.000 HD 
BRANCH  11  16
HETATM   16  O   UNL     1     -10.199   8.857  72.076  1.00  0.00    -0.334 OA 
HETATM   17  C   UNL     1      -9.034   8.109  71.765  1.00  0.00    -0.163 C  
ENDBRANCH  11  16
BRANCH  14  18
HETATM   18  N   UNL     1     -11.892  12.574  65.633  1.00  0.00    -0.424 NA 
HETATM   19  C   UNL     1     -11.923  11.931  64.338  1.00  0.00    -0.223 C  
BRANCH  18  20
HETATM   20  C   UNL     1     -12.542  13.861  65.816  1.00  0.00    -0.494 C  
BRANCH  20  21
HETATM   21  C   UNL     1     -11.613  15.023  65.439  1.00  0.00    -0.229 C  
BRANCH  21  22
HETATM   22  C   UNL     1     -10.719  15.456  66.601  1.00  0.00    -0.309 C  
BRANCH  22  23
HETATM   23  N   UNL     1     -10.224  16.807  66.434  1.00  0.00    -0.313 N  
HETATM   24  C   UNL     1     -10.277  17.743  67.439  1.00  0.00    -0.353 C  
HETATM   25  H   UNL     1      -9.821  17.073  65.536  1.00  0.00     0.000 HD 
HETATM   26  O   UNL     1     -10.768  17.522  68.542  1.00  0.00    -0.330 OA 
BRANCH  24  27
HETATM   27  C   UNL     1      -9.671  19.104  67.068  1.00  0.00    -0.325 C  
HETATM   28  C   UNL     1      -8.603  19.491  68.074  1.00  0.00    -0.365 C  
HETATM   29  C   UNL     1      -7.793  20.500  67.307  1.00  0.00    -0.367 C  
HETATM   30  C   UNL     1      -7.855  19.967  65.890  1.00  0.00    -0.302 C  
HETATM   31  O   UNL     1      -9.035  19.155  65.781  1.00  0.00    -0.384 OA 
ENDBRANCH  24  27
ENDBRANCH  22  23
ENDBRANCH  21  22
ENDBRANCH  20  21
ENDBRANCH  18  20
ENDBRANCH  14  18
ENDBRANCH   2   3
TORSDOF 8
ENDMDL
MODEL       62
REMARK 921   NORMALIZED FREE ENERGY PREDICTED BY IDOCK:   -5.52 KCAL/MOL
REMARK 922        TOTAL FREE ENERGY PREDICTED BY IDOCK:   -9.64 KCAL/MOL
REMARK 923 INTER-LIGAND FREE ENERGY PREDICTED BY IDOCK:   -7.97 KCAL/MOL
REMARK 924 INTRA-LIGAND FREE ENERGY PREDICTED BY IDOCK:   -1.68 KCAL/MOL
REMARK 927      BINDING AFFINITY PREDICTED BY RF-SCORE:    0.00 PKD
ROOT
HETATM    1  C   UNL     1     -13.625   9.234  71.967  1.00  0.00    -0.452 C  
HETATM    2  O   UNL     1     -13.313  10.584  72.310  1.00  0.00    -0.384 OA 
ENDROOT
BRANCH   2   3
HETATM    3  C   UNL     1     -12.924  11.379  71.263  1.00  0.00    -0.316 A  
HETATM    4  C   UNL     1     -12.519  10.821  70.037  1.00  0.00    -0.317 A  
HETATM    5  C   UNL     1     -12.009  11.584  68.999  1.00  0.00    -0.311 A  
HETATM    6  C   UNL     1     -11.955  12.961  69.158  1.00  0.00    -0.308 A  
HETATM    7  C   UNL     1     -12.469  13.551  70.338  1.00  0.00    -0.345 A  
HETATM    8  C   UNL     1     -11.365  13.644  68.096  1.00  0.00    -0.288 A  
HETATM    9  N   UNL     1     -11.287  15.041  68.072  1.00  0.00    -0.316 NA 
HETATM   10  N   UNL     1     -10.853  13.028  67.023  1.00  0.00    -0.258 NA 
HETATM   11  C   UNL     1     -12.943  12.772  71.400  1.00  0.00    -0.266 A  
HETATM   12  N   UNL     1     -11.566  10.964  67.902  1.00  0.00    -0.549 NA 
HETATM   13  H2  UNL     1     -10.829  15.344  68.931  1.00  0.00     0.000 HD 
HETATM   14  C   UNL     1     -10.969  11.695  66.951  1.00  0.00    -0.292 A  
HETATM   15  H1  UNL     1     -10.856  15.540  67.294  1.00  0.00     0.000 HD 
BRANCH  11  16
HETATM   16  O   UNL     1     -13.349  13.536  72.458  1.00  0.00    -0.522 OA 
HETATM   17  C   UNL     1     -13.917  14.814  72.219  1.00  0.00    -0.496 C  
ENDBRANCH  11  16
BRANCH  14  18
HETATM   18  N   UNL     1     -10.483  11.057  65.836  1.00  0.00    -0.254 NA 
HETATM   19  C   UNL     1     -10.102  11.839  64.681  1.00  0.00    -0.272 C  
BRANCH  18  20
HETATM   20  C   UNL     1     -10.189   9.634  65.875  1.00  0.00    -0.149 C  
BRANCH  20  21
HETATM   21  C   UNL     1      -8.677   9.369  65.877  1.00  0.00    -0.177 C  
BRANCH  21  22
HETATM   22  C   UNL     1      -8.088   9.352  67.287  1.00  0.00    -0.110 C  
BRANCH  22  23
HETATM   23  N   UNL     1      -9.087   9.048  68.291  1.00  0.00    -0.133 N  
HETATM   24  C   UNL     1      -8.804   8.307  69.415  1.00  0.00    -0.146 C  
HETATM   25  H   UNL     1     -10.036   9.396  68.160  1.00  0.00     0.000 HD 
HETATM   26  O   UNL     1      -7.698   7.826  69.644  1.00  0.00    -0.097 OA 
BRANCH  24  27
HETATM   27  C   UNL     1      -9.993   8.125  70.368  1.00  0.00    -0.188 C  
HETATM   28  C   UNL     1     -10.269   6.649  70.581  1.00  0.00    -0.215 C  
HETATM   29  C   UNL     1     -11.041   6.652  71.872  1.00  0.00    -0.289 C  
HETATM   30  C   UNL     1     -10.402   7.791  72.638  1.00  0.00    -0.292 C  
HETATM   31  O   UNL     1      -9.811   8.683  71.679  1.00  0.00    -0.225 OA 
ENDBRANCH  24  27
ENDBRANCH  22  23
ENDBRANCH  21  22
ENDBRANCH  20  21
ENDBRANCH  18  20
ENDBRANCH  14  18
ENDBRANCH   2   3
TORSDOF 8
ENDMDL
MODEL       63
REMARK 921   NORMALIZED FREE ENERGY PREDICTED BY IDOCK:   -5.50 KCAL/MOL
REMARK 922        TOTAL FREE ENERGY PREDICTED BY IDOCK:   -9.61 KCAL/MOL
REMARK 923 INTER-LIGAND FREE ENERGY PREDICTED BY IDOCK:   -9.11 KCAL/MOL
REMARK 924 INTRA-LIGAND FREE ENERGY PREDICTED BY IDOCK:   -0.50 KCAL/MOL
REMARK 927      BINDING AFFINITY PREDICTED BY RF-SCORE:    0.00 PKD
ROOT
HETATM    1  C   UNL     1     -10.024  19.389  69.071  1.00  0.00    -0.406 C  
HETATM    2  O   UNL     1      -9.035  18.436  68.681  1.00  0.00    -0.317 OA 
ENDROOT
BRANCH   2   3
HETATM    3  C   UNL     1      -9.500  17.377  67.944  1.00  0.00    -0.265 A  
HETATM    4  C   UNL     1      -9.773  16.136  68.546  1.00  0.00    -0.217 A  
HETATM    5  C   UNL     1     -10.131  15.013  67.818  1.00  0.00    -0.234 A  
HETATM    6  C   UNL     1     -10.283  15.139  66.445  1.00  0.00    -0.291 A  
HETATM    7  C   UNL     1     -10.129  16.408  65.836  1.00  0.00    -0.370 A  
HETATM    8  C   UNL     1     -10.575  13.948  65.783  1.00  0.00    -0.297 A  
HETATM    9  N   UNL     1     -10.819  13.912  64.406  1.00  0.00    -0.584 NA 
HETATM   10  N   UNL     1     -10.664  12.766  66.407  1.00  0.00    -0.259 NA 
HETATM   11  C   UNL     1      -9.726  17.528  66.571  1.00  0.00    -0.295 A  
HETATM   12  N   UNL     1     -10.286  13.853  68.460  1.00  0.00    -0.241 NA 
HETATM   13  H2  UNL     1     -10.024  14.344  63.936  1.00  0.00     0.000 HD 
HETATM   14  C   UNL     1     -10.519  12.748  67.738  1.00  0.00    -0.223 A  
HETATM   15  H1  UNL     1     -11.033  13.040  63.922  1.00  0.00     0.000 HD 
BRANCH  11  16
HETATM   16  O   UNL     1      -9.594  18.639  65.786  1.00  0.00    -0.440 OA 
HETATM   17  C   UNL     1     -10.652  19.583  65.727  1.00  0.00    -0.427 C  
ENDBRANCH  11  16
BRANCH  14  18
HETATM   18  N   UNL     1     -10.647  11.547  68.393  1.00  0.00    -0.192 NA 
HETATM   19  C   UNL     1      -9.468  10.750  68.649  1.00  0.00    -0.188 C  
BRANCH  18  20
HETATM   20  C   UNL     1     -11.921  11.163  68.978  1.00  0.00    -0.320 C  
BRANCH  20  21
HETATM   21  C   UNL     1     -12.051  11.653  70.426  1.00  0.00    -0.462 C  
BRANCH  21  22
HETATM   22  C   UNL     1     -12.887  10.709  71.291  1.00  0.00    -0.434 C  
BRANCH  22  23
HETATM   23  N   UNL     1     -12.365   9.358  71.283  1.00  0.00    -0.326 N  
HETATM   24  C   UNL     1     -13.077   8.288  71.771  1.00  0.00    -0.344 C  
HETATM   25  H   UNL     1     -11.434   9.194  70.901  1.00  0.00     0.000 HD 
HETATM   26  O   UNL     1     -14.192   8.392  72.273  1.00  0.00    -0.394 OA 
BRANCH  24  27
HETATM   27  C   UNL     1     -12.358   6.938  71.641  1.00  0.00    -0.371 C  
HETATM   28  C   UNL     1     -11.761   6.797  70.253  1.00  0.00    -0.397 C  
HETATM   29  C   UNL     1     -10.704   5.747  70.465  1.00  0.00    -0.361 C  
HETATM   30  C   UNL     1     -10.216   6.048  71.867  1.00  0.00    -0.200 C  
HETATM   31  O   UNL     1     -11.270   6.738  72.558  1.00  0.00    -0.256 OA 
ENDBRANCH  24  27
ENDBRANCH  22  23
ENDBRANCH  21  22
ENDBRANCH  20  21
ENDBRANCH  18  20
ENDBRANCH  14  18
ENDBRANCH   2   3
TORSDOF 8
ENDMDL
MODEL       64
REMARK 921   NORMALIZED FREE ENERGY PREDICTED BY IDOCK:   -5.48 KCAL/MOL
REMARK 922        TOTAL FREE ENERGY PREDICTED BY IDOCK:   -9.58 KCAL/MOL
REMARK 923 INTER-LIGAND FREE ENERGY PREDICTED BY IDOCK:   -8.82 KCAL/MOL
REMARK 924 INTRA-LIGAND FREE ENERGY PREDICTED BY IDOCK:   -0.76 KCAL/MOL
REMARK 927      BINDING AFFINITY PREDICTED BY RF-SCORE:    0.00 PKD
ROOT
HETATM    1  C   UNL     1      -7.470  15.862  68.950  1.00  0.00    -0.178 C  
HETATM    2  O   UNL     1      -8.895  15.870  69.044  1.00  0.00    -0.212 OA 
ENDROOT
BRANCH   2   3
HETATM    3  C   UNL     1      -9.556  15.359  67.957  1.00  0.00    -0.206 A  
HETATM    4  C   UNL     1      -9.392  14.016  67.571  1.00  0.00    -0.209 A  
HETATM    5  C   UNL     1      -9.949  13.496  66.414  1.00  0.00    -0.295 A  
HETATM    6  C   UNL     1     -10.751  14.322  65.640  1.00  0.00    -0.321 A  
HETATM    7  C   UNL     1     -11.025  15.641  66.075  1.00  0.00    -0.213 A  
HETATM    8  C   UNL     1     -11.213  13.741  64.461  1.00  0.00    -0.373 A  
HETATM    9  N   UNL     1     -12.083  14.418  63.598  1.00  0.00    -0.972 NA 
HETATM   10  N   UNL     1     -10.883  12.501  64.077  1.00  0.00    -0.373 NA 
HETATM   11  C   UNL     1     -10.425  16.173  67.222  1.00  0.00    -0.309 A  
HETATM   12  N   UNL     1      -9.670  12.235  66.076  1.00  0.00    -0.245 NA 
HETATM   13  H2  UNL     1     -11.653  15.311  63.359  1.00  0.00     0.000 HD 
HETATM   14  C   UNL     1     -10.117  11.774  64.901  1.00  0.00    -0.259 A  
HETATM   15  H1  UNL     1     -12.420  13.992  62.736  1.00  0.00     0.000 HD 
BRANCH  11  16
HETATM   16  O   UNL     1     -10.788  17.473  67.438  1.00  0.00    -0.296 OA 
HETATM   17  C   UNL     1      -9.982  18.519  66.918  1.00  0.00    -0.349 C  
ENDBRANCH  11  16
BRANCH  14  18
HETATM   18  N   UNL     1      -9.805  10.486  64.536  1.00  0.00    -0.314 NA 
HETATM   19  C   UNL     1      -9.637  10.168  63.135  1.00  0.00    -0.173 C  
BRANCH  18  20
HETATM   20  C   UNL     1      -9.475   9.496  65.547  1.00  0.00    -0.268 C  
BRANCH  20  21
HETATM   21  C   UNL     1     -10.636   9.279  66.527  1.00  0.00    -0.117 C  
BRANCH  21  22
HETATM   22  C   UNL     1     -10.226   8.450  67.744  1.00  0.00    -0.224 C  
BRANCH  22  23
HETATM   23  N   UNL     1     -10.927   8.859  68.944  1.00  0.00    -0.435 N  
HETATM   24  C   UNL     1     -10.289   9.453  70.007  1.00  0.00    -0.233 C  
HETATM   25  H   UNL     1     -11.933   8.700  69.002  1.00  0.00     0.000 HD 
HETATM   26  O   UNL     1      -9.079   9.660  70.037  1.00  0.00    -0.208 OA 
BRANCH  24  27
HETATM   27  C   UNL     1     -11.217   9.839  71.166  1.00  0.00    -0.374 C  
HETATM   28  C   UNL     1     -12.291  10.795  70.679  1.00  0.00    -0.465 C  
HETATM   29  C   UNL     1     -13.356  10.640  71.730  1.00  0.00    -0.437 C  
HETATM   30  C   UNL     1     -13.246   9.176  72.100  1.00  0.00    -0.458 C  
HETATM   31  O   UNL     1     -11.915   8.743  71.776  1.00  0.00    -0.303 OA 
ENDBRANCH  24  27
ENDBRANCH  22  23
ENDBRANCH  21  22
ENDBRANCH  20  21
ENDBRANCH  18  20
ENDBRANCH  14  18
ENDBRANCH   2   3
TORSDOF 8
ENDMDL
MODEL       65
REMARK 921   NORMALIZED FREE ENERGY PREDICTED BY IDOCK:   -5.47 KCAL/MOL
REMARK 922        TOTAL FREE ENERGY PREDICTED BY IDOCK:   -9.57 KCAL/MOL
REMARK 923 INTER-LIGAND FREE ENERGY PREDICTED BY IDOCK:   -8.98 KCAL/MOL
REMARK 924 INTRA-LIGAND FREE ENERGY PREDICTED BY IDOCK:   -0.59 KCAL/MOL
REMARK 927      BINDING AFFINITY PREDICTED BY RF-SCORE:    0.00 PKD
ROOT
HETATM    1  C   UNL     1      -7.548   6.696  70.607  1.00  0.00    -0.095 C  
HETATM    2  O   UNL     1      -8.289   6.415  71.794  1.00  0.00    -0.119 OA 
ENDROOT
BRANCH   2   3
HETATM    3  C   UNL     1      -9.483   7.078  71.910  1.00  0.00    -0.140 A  
HETATM    4  C   UNL     1      -9.740   8.247  71.172  1.00  0.00    -0.209 A  
HETATM    5  C   UNL     1     -10.884   9.009  71.348  1.00  0.00    -0.330 A  
HETATM    6  C   UNL     1     -11.840   8.561  72.249  1.00  0.00    -0.453 A  
HETATM    7  C   UNL     1     -11.654   7.325  72.913  1.00  0.00    -0.153 A  
HETATM    8  C   UNL     1     -12.924   9.421  72.416  1.00  0.00    -0.351 A  
HETATM    9  N   UNL     1     -14.005   9.091  73.241  1.00  0.00    -1.199 NA 
HETATM   10  N   UNL     1     -13.025  10.603  71.794  1.00  0.00    -0.471 NA 
HETATM   11  C   UNL     1     -10.477   6.583  72.761  1.00  0.00    -0.215 A  
HETATM   12  N   UNL     1     -11.007  10.152  70.670  1.00  0.00    -0.314 NA 
HETATM   13  H2  UNL     1     -13.636   8.869  74.166  1.00  0.00     0.000 HD 
HETATM   14  C   UNL     1     -12.059  10.940  70.929  1.00  0.00    -0.349 A  
HETATM   15  H1  UNL     1     -14.798   9.720  73.363  1.00  0.00     0.000 HD 
BRANCH  11  16
HETATM   16  O   UNL     1     -10.483   5.448  73.523  1.00  0.00    -0.207 OA 
HETATM   17  C   UNL     1     -10.813   4.206  72.923  1.00  0.00    -0.120 C  
ENDBRANCH  11  16
BRANCH  14  18
HETATM   18  N   UNL     1     -12.172  12.132  70.256  1.00  0.00    -0.299 NA 
HETATM   19  C   UNL     1     -11.725  12.216  68.883  1.00  0.00    -0.327 C  
BRANCH  18  20
HETATM   20  C   UNL     1     -12.891  13.246  70.851  1.00  0.00    -0.181 C  
BRANCH  20  21
HETATM   21  C   UNL     1     -11.954  14.419  71.171  1.00  0.00    -0.383 C  
BRANCH  21  22
HETATM   22  C   UNL     1     -12.234  15.645  70.301  1.00  0.00    -0.386 C  
BRANCH  22  23
HETATM   23  N   UNL     1     -11.820  15.445  68.928  1.00  0.00    -0.476 N  
HETATM   24  C   UNL     1     -10.850  16.213  68.329  1.00  0.00    -0.326 C  
HETATM   25  H   UNL     1     -12.265  14.706  68.384  1.00  0.00     0.000 HD 
HETATM   26  O   UNL     1     -10.279  17.141  68.895  1.00  0.00    -0.299 OA 
BRANCH  24  27
HETATM   27  C   UNL     1     -10.537  15.819  66.879  1.00  0.00    -0.317 C  
HETATM   28  C   UNL     1     -11.524  14.772  66.399  1.00  0.00    -0.319 C  
HETATM   29  C   UNL     1     -11.424  14.901  64.903  1.00  0.00    -0.407 C  
HETATM   30  C   UNL     1     -11.186  16.385  64.714  1.00  0.00    -0.212 C  
HETATM   31  O   UNL     1     -10.608  16.892  65.928  1.00  0.00    -0.322 OA 
ENDBRANCH  24  27
ENDBRANCH  22  23
ENDBRANCH  21  22
ENDBRANCH  20  21
ENDBRANCH  18  20
ENDBRANCH  14  18
ENDBRANCH   2   3
TORSDOF 8
ENDMDL
MODEL       66
REMARK 921   NORMALIZED FREE ENERGY PREDICTED BY IDOCK:   -5.45 KCAL/MOL
REMARK 922        TOTAL FREE ENERGY PREDICTED BY IDOCK:   -9.54 KCAL/MOL
REMARK 923 INTER-LIGAND FREE ENERGY PREDICTED BY IDOCK:   -8.76 KCAL/MOL
REMARK 924 INTRA-LIGAND FREE ENERGY PREDICTED BY IDOCK:   -0.78 KCAL/MOL
REMARK 927      BINDING AFFINITY PREDICTED BY RF-SCORE:    0.00 PKD
ROOT
HETATM    1  C   UNL     1      -8.235   3.940  70.966  1.00  0.00    -0.067 C  
HETATM    2  O   UNL     1      -8.162   4.976  71.945  1.00  0.00    -0.112 OA 
ENDROOT
BRANCH   2   3
HETATM    3  C   UNL     1      -9.198   5.873  71.928  1.00  0.00    -0.147 A  
HETATM    4  C   UNL     1      -9.263   6.891  70.960  1.00  0.00    -0.156 A  
HETATM    5  C   UNL     1     -10.229   7.884  70.981  1.00  0.00    -0.197 A  
HETATM    6  C   UNL     1     -11.206   7.833  71.965  1.00  0.00    -0.327 A  
HETATM    7  C   UNL     1     -11.227   6.749  72.876  1.00  0.00    -0.234 A  
HETATM    8  C   UNL     1     -12.094   8.907  71.955  1.00  0.00    -0.371 A  
HETATM    9  N   UNL     1     -13.174   8.976  72.842  1.00  0.00    -0.791 NA 
HETATM   10  N   UNL     1     -11.997   9.930  71.096  1.00  0.00    -0.353 NA 
HETATM   11  C   UNL     1     -10.224   5.773  72.875  1.00  0.00    -0.190 A  
HETATM   12  N   UNL     1     -10.165   8.863  70.075  1.00  0.00    -0.192 NA 
HETATM   13  H2  UNL     1     -12.807   8.882  73.790  1.00  0.00     0.000 HD 
HETATM   14  C   UNL     1     -11.031   9.880  70.170  1.00  0.00    -0.301 A  
HETATM   15  H1  UNL     1     -13.823   9.762  72.835  1.00  0.00     0.000 HD 
BRANCH  11  16
HETATM   16  O   UNL     1     -10.408   4.845  73.862  1.00  0.00    -0.195 OA 
HETATM   17  C   UNL     1     -11.011   3.601  73.546  1.00  0.00    -0.239 C  
ENDBRANCH  11  16
BRANCH  14  18
HETATM   18  N   UNL     1     -10.948  10.905  69.259  1.00  0.00    -0.227 NA 
HETATM   19  C   UNL     1      -9.805  10.976  68.374  1.00  0.00    -0.182 C  
BRANCH  18  20
HETATM   20  C   UNL     1     -12.071  11.806  69.062  1.00  0.00    -0.214 C  
BRANCH  20  21
HETATM   21  C   UNL     1     -11.842  13.156  69.754  1.00  0.00    -0.386 C  
BRANCH  21  22
HETATM   22  C   UNL     1     -12.159  14.342  68.842  1.00  0.00    -0.279 C  
BRANCH  22  23
HETATM   23  N   UNL     1     -12.219  13.956  67.448  1.00  0.00    -0.491 N  
HETATM   24  C   UNL     1     -11.621  14.689  66.451  1.00  0.00    -0.339 C  
HETATM   25  H   UNL     1     -12.725  13.107  67.196  1.00  0.00     0.000 HD 
HETATM   26  O   UNL     1     -11.015  15.736  66.655  1.00  0.00    -0.286 OA 
BRANCH  24  27
HETATM   27  C   UNL     1     -11.776  14.091  65.046  1.00  0.00    -0.364 C  
HETATM   28  C   UNL     1     -10.565  13.243  64.704  1.00  0.00    -0.421 C  
HETATM   29  C   UNL     1     -11.095  12.355  63.611  1.00  0.00    -0.535 C  
HETATM   30  C   UNL     1     -12.533  12.134  64.033  1.00  0.00    -0.440 C  
HETATM   31  O   UNL     1     -12.916  13.235  64.872  1.00  0.00    -0.727 OA 
ENDBRANCH  24  27
ENDBRANCH  22  23
ENDBRANCH  21  22
ENDBRANCH  20  21
ENDBRANCH  18  20
ENDBRANCH  14  18
ENDBRANCH   2   3
TORSDOF 8
ENDMDL
MODEL       67
REMARK 921   NORMALIZED FREE ENERGY PREDICTED BY IDOCK:   -5.45 KCAL/MOL
REMARK 922        TOTAL FREE ENERGY PREDICTED BY IDOCK:   -9.53 KCAL/MOL
REMARK 923 INTER-LIGAND FREE ENERGY PREDICTED BY IDOCK:   -7.92 KCAL/MOL
REMARK 924 INTRA-LIGAND FREE ENERGY PREDICTED BY IDOCK:   -1.61 KCAL/MOL
REMARK 927      BINDING AFFINITY PREDICTED BY RF-SCORE:    0.00 PKD
ROOT
HETATM    1  C   UNL     1     -10.272  17.802  68.830  1.00  0.00    -0.373 C  
HETATM    2  O   UNL     1     -10.943  16.940  69.749  1.00  0.00    -0.231 OA 
ENDROOT
BRANCH   2   3
HETATM    3  C   UNL     1     -11.096  15.644  69.330  1.00  0.00    -0.303 A  
HETATM    4  C   UNL     1     -10.874  15.281  67.990  1.00  0.00    -0.288 A  
HETATM    5  C   UNL     1     -11.131  14.008  67.506  1.00  0.00    -0.298 A  
HETATM    6  C   UNL     1     -11.567  13.040  68.398  1.00  0.00    -0.370 A  
HETATM    7  C   UNL     1     -11.682  13.355  69.774  1.00  0.00    -0.355 A  
HETATM    8  C   UNL     1     -11.869  11.810  67.816  1.00  0.00    -0.196 A  
HETATM    9  N   UNL     1     -12.263  10.709  68.584  1.00  0.00    -0.814 NA 
HETATM   10  N   UNL     1     -11.785  11.583  66.499  1.00  0.00    -0.406 NA 
HETATM   11  C   UNL     1     -11.462  14.653  70.248  1.00  0.00    -0.246 A  
HETATM   12  N   UNL     1     -10.977  13.773  66.200  1.00  0.00    -0.291 NA 
HETATM   13  H2  UNL     1     -13.064  10.992  69.148  1.00  0.00     0.000 HD 
HETATM   14  C   UNL     1     -11.336  12.575  65.720  1.00  0.00    -0.336 A  
HETATM   15  H1  UNL     1     -12.483   9.809  68.158  1.00  0.00     0.000 HD 
BRANCH  11  16
HETATM   16  O   UNL     1     -11.670  14.750  71.596  1.00  0.00    -0.348 OA 
HETATM   17  C   UNL     1     -12.913  14.339  72.142  1.00  0.00    -0.373 C  
ENDBRANCH  11  16
BRANCH  14  18
HETATM   18  N   UNL     1     -11.208  12.341  64.372  1.00  0.00    -0.316 NA 
HETATM   19  C   UNL     1     -12.329  12.604  63.497  1.00  0.00    -0.496 C  
BRANCH  18  20
HETATM   20  C   UNL     1      -9.913  12.001  63.805  1.00  0.00    -0.343 C  
BRANCH  20  21
HETATM   21  C   UNL     1      -9.840  10.521  63.407  1.00  0.00    -0.323 C  
BRANCH  21  22
HETATM   22  C   UNL     1      -9.235   9.649  64.507  1.00  0.00    -0.218 C  
BRANCH  22  23
HETATM   23  N   UNL     1      -8.639  10.440  65.564  1.00  0.00    -0.163 N  
HETATM   24  C   UNL     1      -8.032   9.873  66.659  1.00  0.00    -0.113 C  
HETATM   25  H   UNL     1      -8.670  11.457  65.492  1.00  0.00     0.000 HD 
HETATM   26  O   UNL     1      -7.969   8.662  66.844  1.00  0.00    -0.094 OA 
BRANCH  24  27
HETATM   27  C   UNL     1      -7.435  10.886  67.646  1.00  0.00    -0.095 C  
HETATM   28  C   UNL     1      -6.245  11.587  67.018  1.00  0.00    -0.134 C  
HETATM   29  C   UNL     1      -6.138  12.839  67.846  1.00  0.00    -0.116 C  
HETATM   30  C   UNL     1      -7.586  13.155  68.157  1.00  0.00    -0.141 C  
HETATM   31  O   UNL     1      -8.330  11.929  68.062  1.00  0.00    -0.143 OA 
ENDBRANCH  24  27
ENDBRANCH  22  23
ENDBRANCH  21  22
ENDBRANCH  20  21
ENDBRANCH  18  20
ENDBRANCH  14  18
ENDBRANCH   2   3
TORSDOF 8
ENDMDL
MODEL       68
REMARK 921   NORMALIZED FREE ENERGY PREDICTED BY IDOCK:   -5.44 KCAL/MOL
REMARK 922        TOTAL FREE ENERGY PREDICTED BY IDOCK:   -9.52 KCAL/MOL
REMARK 923 INTER-LIGAND FREE ENERGY PREDICTED BY IDOCK:   -8.76 KCAL/MOL
REMARK 924 INTRA-LIGAND FREE ENERGY PREDICTED BY IDOCK:   -0.76 KCAL/MOL
REMARK 927      BINDING AFFINITY PREDICTED BY RF-SCORE:    0.00 PKD
ROOT
HETATM    1  C   UNL     1     -14.383   8.515  71.963  1.00  0.00    -0.447 C  
HETATM    2  O   UNL     1     -13.162   8.903  72.595  1.00  0.00    -0.427 OA 
ENDROOT
BRANCH   2   3
HETATM    3  C   UNL     1     -12.145   9.244  71.742  1.00  0.00    -0.387 A  
HETATM    4  C   UNL     1     -12.384  10.034  70.603  1.00  0.00    -0.342 A  
HETATM    5  C   UNL     1     -11.406  10.301  69.658  1.00  0.00    -0.257 A  
HETATM    6  C   UNL     1     -10.126   9.816  69.880  1.00  0.00    -0.288 A  
HETATM    7  C   UNL     1      -9.837   9.120  71.078  1.00  0.00    -0.366 A  
HETATM    8  C   UNL     1      -9.224  10.069  68.847  1.00  0.00    -0.169 A  
HETATM    9  N   UNL     1      -7.877   9.701  68.940  1.00  0.00    -0.079 NA 
HETATM   10  N   UNL     1      -9.566  10.694  67.713  1.00  0.00    -0.156 NA 
HETATM   11  C   UNL     1     -10.839   8.818  72.008  1.00  0.00    -0.358 A  
HETATM   12  N   UNL     1     -11.741  10.986  68.562  1.00  0.00    -0.459 NA 
HETATM   13  H2  UNL     1      -7.840   8.704  69.150  1.00  0.00     0.000 HD 
HETATM   14  C   UNL     1     -10.823  11.142  67.599  1.00  0.00    -0.247 A  
HETATM   15  H1  UNL     1      -7.218   9.887  68.184  1.00  0.00     0.000 HD 
BRANCH  11  16
HETATM   16  O   UNL     1     -10.357   8.103  73.069  1.00  0.00    -0.321 OA 
HETATM   17  C   UNL     1      -9.052   7.550  73.003  1.00  0.00    -0.172 C  
ENDBRANCH  11  16
BRANCH  14  18
HETATM   18  N   UNL     1     -11.174  11.819  66.456  1.00  0.00    -0.318 NA 
HETATM   19  C   UNL     1     -10.596  11.423  65.191  1.00  0.00    -0.293 C  
BRANCH  18  20
HETATM   20  C   UNL     1     -12.242  12.804  66.486  1.00  0.00    -0.128 C  
BRANCH  20  21
HETATM   21  C   UNL     1     -11.695  14.236  66.408  1.00  0.00    -0.403 C  
BRANCH  21  22
HETATM   22  C   UNL     1     -11.426  14.834  67.789  1.00  0.00    -0.345 C  
BRANCH  22  23
HETATM   23  N   UNL     1     -10.798  16.137  67.706  1.00  0.00    -0.327 N  
HETATM   24  C   UNL     1     -10.631  16.948  68.803  1.00  0.00    -0.355 C  
HETATM   25  H   UNL     1     -10.468  16.464  66.799  1.00  0.00     0.000 HD 
HETATM   26  O   UNL     1     -11.019  16.650  69.928  1.00  0.00    -0.347 OA 
BRANCH  24  27
HETATM   27  C   UNL     1      -9.914  18.272  68.507  1.00  0.00    -0.393 C  
HETATM   28  C   UNL     1      -8.554  18.003  67.889  1.00  0.00    -0.258 C  
HETATM   29  C   UNL     1      -8.251  19.307  67.203  1.00  0.00    -0.292 C  
HETATM   30  C   UNL     1      -9.619  19.764  66.741  1.00  0.00    -0.388 C  
HETATM   31  O   UNL     1     -10.597  19.140  67.588  1.00  0.00    -0.434 OA 
ENDBRANCH  24  27
ENDBRANCH  22  23
ENDBRANCH  21  22
ENDBRANCH  20  21
ENDBRANCH  18  20
ENDBRANCH  14  18
ENDBRANCH   2   3
TORSDOF 8
ENDMDL
MODEL       69
REMARK 921   NORMALIZED FREE ENERGY PREDICTED BY IDOCK:   -5.41 KCAL/MOL
REMARK 922        TOTAL FREE ENERGY PREDICTED BY IDOCK:   -9.48 KCAL/MOL
REMARK 923 INTER-LIGAND FREE ENERGY PREDICTED BY IDOCK:   -8.84 KCAL/MOL
REMARK 924 INTRA-LIGAND FREE ENERGY PREDICTED BY IDOCK:   -0.65 KCAL/MOL
REMARK 927      BINDING AFFINITY PREDICTED BY RF-SCORE:    0.00 PKD
ROOT
HETATM    1  C   UNL     1      -8.768   8.071  73.771  1.00  0.00    -0.265 C  
HETATM    2  O   UNL     1     -10.080   8.006  73.212  1.00  0.00    -0.310 OA 
ENDROOT
BRANCH   2   3
HETATM    3  C   UNL     1     -10.133   8.008  71.842  1.00  0.00    -0.203 A  
HETATM    4  C   UNL     1     -10.042   9.206  71.112  1.00  0.00    -0.384 A  
HETATM    5  C   UNL     1     -10.209   9.261  69.737  1.00  0.00    -0.211 A  
HETATM    6  C   UNL     1     -10.413   8.072  69.051  1.00  0.00    -0.212 A  
HETATM    7  C   UNL     1     -10.388   6.844  69.754  1.00  0.00    -0.224 A  
HETATM    8  C   UNL     1     -10.641   8.225  67.684  1.00  0.00    -0.194 A  
HETATM    9  N   UNL     1     -10.803   7.123  66.838  1.00  0.00    -0.541 NA 
HETATM   10  N   UNL     1     -10.699   9.419  67.080  1.00  0.00    -0.221 NA 
HETATM   11  C   UNL     1     -10.262   6.800  71.147  1.00  0.00    -0.193 A  
HETATM   12  N   UNL     1     -10.195  10.452  69.134  1.00  0.00    -0.210 NA 
HETATM   13  H2  UNL     1     -11.554   6.546  67.217  1.00  0.00     0.000 HD 
HETATM   14  C   UNL     1     -10.471  10.509  67.825  1.00  0.00    -0.224 A  
HETATM   15  H1  UNL     1     -10.970   7.236  65.838  1.00  0.00     0.000 HD 
BRANCH  11  16
HETATM   16  O   UNL     1     -10.307   5.521  71.628  1.00  0.00    -0.205 OA 
HETATM   17  C   UNL     1     -11.284   5.173  72.595  1.00  0.00    -0.209 C  
ENDBRANCH  11  16
BRANCH  14  18
HETATM   18  N   UNL     1     -10.489  11.737  67.207  1.00  0.00    -0.209 NA 
HETATM   19  C   UNL     1      -9.369  12.132  66.383  1.00  0.00    -0.224 C  
BRANCH  18  20
HETATM   20  C   UNL     1     -11.690  12.555  67.236  1.00  0.00    -0.362 C  
BRANCH  20  21
HETATM   21  C   UNL     1     -11.547  13.801  66.351  1.00  0.00    -0.380 C  
BRANCH  21  22
HETATM   22  C   UNL     1     -11.361  15.080  67.167  1.00  0.00    -0.320 C  
BRANCH  22  23
HETATM   23  N   UNL     1     -12.197  15.098  68.349  1.00  0.00    -0.556 N  
HETATM   24  C   UNL     1     -11.684  15.251  69.616  1.00  0.00    -0.334 C  
HETATM   25  H   UNL     1     -13.205  14.994  68.238  1.00  0.00     0.000 HD 
HETATM   26  O   UNL     1     -10.484  15.357  69.849  1.00  0.00    -0.276 OA 
BRANCH  24  27
HETATM   27  C   UNL     1     -12.742  15.276  70.728  1.00  0.00    -0.433 C  
HETATM   28  C   UNL     1     -13.055  13.862  71.181  1.00  0.00    -0.351 C  
HETATM   29  C   UNL     1     -13.646  14.089  72.546  1.00  0.00    -0.670 C  
HETATM   30  C   UNL     1     -12.859  15.278  73.055  1.00  0.00    -0.469 C  
HETATM   31  O   UNL     1     -12.361  15.993  71.913  1.00  0.00    -0.447 OA 
ENDBRANCH  24  27
ENDBRANCH  22  23
ENDBRANCH  21  22
ENDBRANCH  20  21
ENDBRANCH  18  20
ENDBRANCH  14  18
ENDBRANCH   2   3
TORSDOF 8
ENDMDL
MODEL       70
REMARK 921   NORMALIZED FREE ENERGY PREDICTED BY IDOCK:   -5.41 KCAL/MOL
REMARK 922        TOTAL FREE ENERGY PREDICTED BY IDOCK:   -9.47 KCAL/MOL
REMARK 923 INTER-LIGAND FREE ENERGY PREDICTED BY IDOCK:   -7.95 KCAL/MOL
REMARK 924 INTRA-LIGAND FREE ENERGY PREDICTED BY IDOCK:   -1.52 KCAL/MOL
REMARK 927      BINDING AFFINITY PREDICTED BY RF-SCORE:    0.00 PKD
ROOT
HETATM    1  C   UNL     1     -13.037  10.833  71.708  1.00  0.00    -0.468 C  
HETATM    2  O   UNL     1     -13.184  12.126  72.296  1.00  0.00    -0.460 OA 
ENDROOT
BRANCH   2   3
HETATM    3  C   UNL     1     -12.748  13.172  71.525  1.00  0.00    -0.269 A  
HETATM    4  C   UNL     1     -12.657  13.057  70.127  1.00  0.00    -0.047 A  
HETATM    5  C   UNL     1     -12.112  14.049  69.327  1.00  0.00    -0.338 A  
HETATM    6  C   UNL     1     -11.696  15.227  69.931  1.00  0.00    -0.349 A  
HETATM    7  C   UNL     1     -11.889  15.409  71.322  1.00  0.00    -0.437 A  
HETATM    8  C   UNL     1     -11.097  16.141  69.066  1.00  0.00    -0.336 A  
HETATM    9  N   UNL     1     -10.678  17.402  69.502  1.00  0.00    -0.307 NA 
HETATM   10  N   UNL     1     -10.899  15.896  67.764  1.00  0.00    -0.319 NA 
HETATM   11  C   UNL     1     -12.401  14.386  72.129  1.00  0.00    -0.212 A  
HETATM   12  N   UNL     1     -11.983  13.822  68.018  1.00  0.00    -0.371 NA 
HETATM   13  H2  UNL     1     -10.051  17.266  70.296  1.00  0.00     0.000 HD 
HETATM   14  C   UNL     1     -11.351  14.736  67.269  1.00  0.00    -0.357 A  
HETATM   15  H1  UNL     1     -10.240  18.070  68.869  1.00  0.00     0.000 HD 
BRANCH  11  16
HETATM   16  O   UNL     1     -12.464  14.752  73.444  1.00  0.00    -0.419 OA 
HETATM   17  C   UNL     1     -12.891  16.061  73.786  1.00  0.00    -0.572 C  
ENDBRANCH  11  16
BRANCH  14  18
HETATM   18  N   UNL     1     -11.189  14.491  65.927  1.00  0.00    -0.326 NA 
HETATM   19  C   UNL     1     -10.468  15.446  65.114  1.00  0.00    -0.411 C  
BRANCH  18  20
HETATM   20  C   UNL     1     -11.578  13.210  65.362  1.00  0.00    -0.333 C  
BRANCH  20  21
HETATM   21  C   UNL     1     -10.356  12.365  64.978  1.00  0.00    -0.319 C  
BRANCH  21  22
HETATM   22  C   UNL     1      -9.617  11.817  66.199  1.00  0.00    -0.232 C  
BRANCH  22  23
HETATM   23  N   UNL     1      -8.877  12.847  66.896  1.00  0.00    -0.291 N  
HETATM   24  C   UNL     1      -7.642  12.620  67.456  1.00  0.00    -0.160 C  
HETATM   25  H   UNL     1      -9.287  13.777  66.975  1.00  0.00     0.000 HD 
HETATM   26  O   UNL     1      -7.082  11.528  67.434  1.00  0.00    -0.101 OA 
BRANCH  24  27
HETATM   27  C   UNL     1      -7.013  13.852  68.121  1.00  0.00    -0.120 C  
HETATM   28  C   UNL     1      -7.581  15.121  67.512  1.00  0.00    -0.216 C  
HETATM   29  C   UNL     1      -7.294  16.143  68.578  1.00  0.00    -0.161 C  
HETATM   30  C   UNL     1      -7.458  15.344  69.855  1.00  0.00    -0.017 C  
HETATM   31  O   UNL     1      -7.238  13.961  69.535  1.00  0.00    -0.002 OA 
ENDBRANCH  24  27
ENDBRANCH  22  23
ENDBRANCH  21  22
ENDBRANCH  20  21
ENDBRANCH  18  20
ENDBRANCH  14  18
ENDBRANCH   2   3
TORSDOF 8
ENDMDL
MODEL       71
REMARK 921   NORMALIZED FREE ENERGY PREDICTED BY IDOCK:   -5.41 KCAL/MOL
REMARK 922        TOTAL FREE ENERGY PREDICTED BY IDOCK:   -9.47 KCAL/MOL
REMARK 923 INTER-LIGAND FREE ENERGY PREDICTED BY IDOCK:   -7.90 KCAL/MOL
REMARK 924 INTRA-LIGAND FREE ENERGY PREDICTED BY IDOCK:   -1.57 KCAL/MOL
REMARK 927      BINDING AFFINITY PREDICTED BY RF-SCORE:    0.00 PKD
ROOT
HETATM    1  C   UNL     1     -11.569   8.373  72.320  1.00  0.00    -0.383 C  
HETATM    2  O   UNL     1     -12.413   9.522  72.399  1.00  0.00    -0.279 OA 
ENDROOT
BRANCH   2   3
HETATM    3  C   UNL     1     -12.340  10.376  71.329  1.00  0.00    -0.401 A  
HETATM    4  C   UNL     1     -11.854   9.941  70.083  1.00  0.00    -0.191 A  
HETATM    5  C   UNL     1     -11.656  10.801  69.015  1.00  0.00    -0.299 A  
HETATM    6  C   UNL     1     -12.012  12.133  69.167  1.00  0.00    -0.311 A  
HETATM    7  C   UNL     1     -12.615  12.565  70.373  1.00  0.00    -0.099 A  
HETATM    8  C   UNL     1     -11.715  12.941  68.070  1.00  0.00    -0.356 A  
HETATM    9  N   UNL     1     -12.065  14.295  68.038  1.00  0.00    -0.565 NA 
HETATM   10  N   UNL     1     -11.101  12.486  66.971  1.00  0.00    -0.267 NA 
HETATM   11  C   UNL     1     -12.772  11.700  71.463  1.00  0.00    -0.318 A  
HETATM   12  N   UNL     1     -11.106  10.322  67.896  1.00  0.00    -0.297 NA 
HETATM   13  H2  UNL     1     -11.673  14.739  68.868  1.00  0.00     0.000 HD 
HETATM   14  C   UNL     1     -10.812  11.179  66.910  1.00  0.00    -0.279 A  
HETATM   15  H1  UNL     1     -11.848  14.885  67.235  1.00  0.00     0.000 HD 
BRANCH  11  16
HETATM   16  O   UNL     1     -13.332  12.327  72.541  1.00  0.00    -0.358 OA 
HETATM   17  C   UNL     1     -13.942  13.597  72.370  1.00  0.00    -0.548 C  
ENDBRANCH  11  16
BRANCH  14  18
HETATM   18  N   UNL     1     -10.218  10.694  65.770  1.00  0.00    -0.260 NA 
HETATM   19  C   UNL     1     -10.577  11.259  64.488  1.00  0.00    -0.336 C  
BRANCH  18  20
HETATM   20  C   UNL     1      -9.116   9.750  65.861  1.00  0.00    -0.168 C  
BRANCH  20  21
HETATM   21  C   UNL     1      -7.763  10.435  65.623  1.00  0.00    -0.150 C  
BRANCH  21  22
HETATM   22  C   UNL     1      -7.304  11.257  66.827  1.00  0.00    -0.146 C  
BRANCH  22  23
HETATM   23  N   UNL     1      -7.846  12.600  66.808  1.00  0.00    -0.396 N  
HETATM   24  C   UNL     1      -7.651  13.491  67.837  1.00  0.00    -0.151 C  
HETATM   25  H   UNL     1      -8.394  12.896  66.001  1.00  0.00     0.000 HD 
HETATM   26  O   UNL     1      -7.029  13.215  68.859  1.00  0.00    -0.101 OA 
BRANCH  24  27
HETATM   27  C   UNL     1      -8.281  14.871  67.607  1.00  0.00    -0.172 C  
HETATM   28  C   UNL     1      -7.211  15.875  67.223  1.00  0.00    -0.251 C  
HETATM   29  C   UNL     1      -8.013  16.953  66.544  1.00  0.00    -0.329 C  
HETATM   30  C   UNL     1      -9.107  16.165  65.854  1.00  0.00    -0.233 C  
HETATM   31  O   UNL     1      -9.263  14.924  66.560  1.00  0.00    -0.258 OA 
ENDBRANCH  24  27
ENDBRANCH  22  23
ENDBRANCH  21  22
ENDBRANCH  20  21
ENDBRANCH  18  20
ENDBRANCH  14  18
ENDBRANCH   2   3
TORSDOF 8
ENDMDL
MODEL       72
REMARK 921   NORMALIZED FREE ENERGY PREDICTED BY IDOCK:   -5.40 KCAL/MOL
REMARK 922        TOTAL FREE ENERGY PREDICTED BY IDOCK:   -9.46 KCAL/MOL
REMARK 923 INTER-LIGAND FREE ENERGY PREDICTED BY IDOCK:   -9.23 KCAL/MOL
REMARK 924 INTRA-LIGAND FREE ENERGY PREDICTED BY IDOCK:   -0.23 KCAL/MOL
REMARK 927      BINDING AFFINITY PREDICTED BY RF-SCORE:    0.00 PKD
ROOT
HETATM    1  C   UNL     1      -6.304  17.934  65.994  1.00  0.00    -0.253 C  
HETATM    2  O   UNL     1      -7.669  18.194  65.664  1.00  0.00    -0.532 OA 
ENDROOT
BRANCH   2   3
HETATM    3  C   UNL     1      -8.592  17.498  66.400  1.00  0.00    -0.240 A  
HETATM    4  C   UNL     1      -8.920  16.168  66.085  1.00  0.00    -0.372 A  
HETATM    5  C   UNL     1      -9.930  15.472  66.730  1.00  0.00    -0.249 A  
HETATM    6  C   UNL     1     -10.601  16.099  67.771  1.00  0.00    -0.309 A  
HETATM    7  C   UNL     1     -10.204  17.394  68.181  1.00  0.00    -0.350 A  
HETATM    8  C   UNL     1     -11.646  15.356  68.317  1.00  0.00    -0.348 A  
HETATM    9  N   UNL     1     -12.383  15.817  69.413  1.00  0.00    -0.514 NA 
HETATM   10  N   UNL     1     -12.007  14.151  67.856  1.00  0.00    -0.363 NA 
HETATM   11  C   UNL     1      -9.212  18.107  67.497  1.00  0.00    -0.257 A  
HETATM   12  N   UNL     1     -10.236  14.243  66.308  1.00  0.00    -0.291 NA 
HETATM   13  H2  UNL     1     -12.745  16.742  69.178  1.00  0.00     0.000 HD 
HETATM   14  C   UNL     1     -11.287  13.620  66.859  1.00  0.00    -0.327 A  
HETATM   15  H1  UNL     1     -13.147  15.273  69.812  1.00  0.00     0.000 HD 
BRANCH  11  16
HETATM   16  O   UNL     1      -9.014  19.351  68.027  1.00  0.00    -0.305 OA 
HETATM   17  C   UNL     1      -9.861  20.419  67.635  1.00  0.00    -0.398 C  
ENDBRANCH  11  16
BRANCH  14  18
HETATM   18  N   UNL     1     -11.624  12.368  66.405  1.00  0.00    -0.373 NA 
HETATM   19  C   UNL     1     -12.264  12.229  65.116  1.00  0.00    -0.276 C  
BRANCH  18  20
HETATM   20  C   UNL     1     -11.187  11.184  67.126  1.00  0.00    -0.249 C  
BRANCH  20  21
HETATM   21  C   UNL     1     -10.818  11.510  68.580  1.00  0.00    -0.254 C  
BRANCH  21  22
HETATM   22  C   UNL     1     -11.970  11.243  69.549  1.00  0.00    -0.351 C  
BRANCH  22  23
HETATM   23  N   UNL     1     -11.720  10.088  70.387  1.00  0.00    -0.284 N  
HETATM   24  C   UNL     1     -12.507   9.777  71.471  1.00  0.00    -0.403 C  
HETATM   25  H   UNL     1     -10.931   9.483  70.164  1.00  0.00     0.000 HD 
HETATM   26  O   UNL     1     -13.460  10.461  71.830  1.00  0.00    -0.372 OA 
BRANCH  24  27
HETATM   27  C   UNL     1     -12.092   8.496  72.206  1.00  0.00    -0.387 C  
HETATM   28  C   UNL     1     -12.874   7.311  71.670  1.00  0.00    -0.415 C  
HETATM   29  C   UNL     1     -12.010   6.148  72.079  1.00  0.00    -0.310 C  
HETATM   30  C   UNL     1     -10.611   6.714  71.953  1.00  0.00    -0.211 C  
HETATM   31  O   UNL     1     -10.706   8.143  72.077  1.00  0.00    -0.239 OA 
ENDBRANCH  24  27
ENDBRANCH  22  23
ENDBRANCH  21  22
ENDBRANCH  20  21
ENDBRANCH  18  20
ENDBRANCH  14  18
ENDBRANCH   2   3
TORSDOF 8
ENDMDL
MODEL       73
REMARK 921   NORMALIZED FREE ENERGY PREDICTED BY IDOCK:   -5.40 KCAL/MOL
REMARK 922        TOTAL FREE ENERGY PREDICTED BY IDOCK:   -9.46 KCAL/MOL
REMARK 923 INTER-LIGAND FREE ENERGY PREDICTED BY IDOCK:   -8.30 KCAL/MOL
REMARK 924 INTRA-LIGAND FREE ENERGY PREDICTED BY IDOCK:   -1.16 KCAL/MOL
REMARK 927      BINDING AFFINITY PREDICTED BY RF-SCORE:    0.00 PKD
ROOT
HETATM    1  C   UNL     1     -11.577  15.890  69.576  1.00  0.00    -0.335 C  
HETATM    2  O   UNL     1     -12.543  14.917  69.976  1.00  0.00    -0.294 OA 
ENDROOT
BRANCH   2   3
HETATM    3  C   UNL     1     -12.116  13.615  69.928  1.00  0.00    -0.341 A  
HETATM    4  C   UNL     1     -11.165  13.196  68.981  1.00  0.00    -0.309 A  
HETATM    5  C   UNL     1     -10.797  11.869  68.825  1.00  0.00    -0.231 A  
HETATM    6  C   UNL     1     -11.349  10.928  69.683  1.00  0.00    -0.362 A  
HETATM    7  C   UNL     1     -12.217  11.347  70.720  1.00  0.00    -0.475 A  
HETATM    8  C   UNL     1     -10.980   9.612  69.412  1.00  0.00    -0.190 A  
HETATM    9  N   UNL     1     -11.399   8.549  70.220  1.00  0.00    -0.420 NA 
HETATM   10  N   UNL     1     -10.190   9.269  68.386  1.00  0.00    -0.195 NA 
HETATM   11  C   UNL     1     -12.617  12.683  70.844  1.00  0.00    -0.249 A  
HETATM   12  N   UNL     1      -9.953  11.546  67.843  1.00  0.00    -0.179 NA 
HETATM   13  H2  UNL     1     -12.418   8.583  70.277  1.00  0.00     0.000 HD 
HETATM   14  C   UNL     1      -9.691  10.251  67.624  1.00  0.00    -0.164 A  
HETATM   15  H1  UNL     1     -11.129   7.586  70.021  1.00  0.00     0.000 HD 
BRANCH  11  16
HETATM   16  O   UNL     1     -13.490  12.865  71.880  1.00  0.00    -0.451 OA 
HETATM   17  C   UNL     1     -13.453  14.074  72.620  1.00  0.00    -0.547 C  
ENDBRANCH  11  16
BRANCH  14  18
HETATM   18  N   UNL     1      -8.848   9.913  66.594  1.00  0.00    -0.134 NA 
HETATM   19  C   UNL     1      -7.709  10.757  66.304  1.00  0.00    -0.146 C  
BRANCH  18  20
HETATM   20  C   UNL     1      -8.992   8.636  65.916  1.00  0.00    -0.200 C  
BRANCH  20  21
HETATM   21  C   UNL     1      -8.072   8.538  64.691  1.00  0.00    -0.153 C  
BRANCH  21  22
HETATM   22  C   UNL     1      -8.769   8.967  63.400  1.00  0.00    -0.082 C  
BRANCH  22  23
HETATM   23  N   UNL     1      -9.759   9.998  63.633  1.00  0.00    -0.491 N  
HETATM   24  C   UNL     1      -9.633  11.272  63.129  1.00  0.00    -0.374 C  
HETATM   25  H   UNL     1     -10.581   9.771  64.191  1.00  0.00     0.000 HD 
HETATM   26  O   UNL     1      -8.667  11.643  62.469  1.00  0.00    -0.259 OA 
BRANCH  24  27
HETATM   27  C   UNL     1     -10.806  12.203  63.463  1.00  0.00    -0.458 C  
HETATM   28  C   UNL     1     -11.692  11.567  64.519  1.00  0.00    -0.089 C  
HETATM   29  C   UNL     1     -12.417  12.758  65.086  1.00  0.00    -0.565 C  
HETATM   30  C   UNL     1     -11.369  13.849  65.014  1.00  0.00    -0.334 C  
HETATM   31  O   UNL     1     -10.432  13.487  63.986  1.00  0.00    -0.273 OA 
ENDBRANCH  24  27
ENDBRANCH  22  23
ENDBRANCH  21  22
ENDBRANCH  20  21
ENDBRANCH  18  20
ENDBRANCH  14  18
ENDBRANCH   2   3
TORSDOF 8
ENDMDL
MODEL       74
REMARK 921   NORMALIZED FREE ENERGY PREDICTED BY IDOCK:   -5.39 KCAL/MOL
REMARK 922        TOTAL FREE ENERGY PREDICTED BY IDOCK:   -9.45 KCAL/MOL
REMARK 923 INTER-LIGAND FREE ENERGY PREDICTED BY IDOCK:   -7.96 KCAL/MOL
REMARK 924 INTRA-LIGAND FREE ENERGY PREDICTED BY IDOCK:   -1.49 KCAL/MOL
REMARK 927      BINDING AFFINITY PREDICTED BY RF-SCORE:    0.00 PKD
ROOT
HETATM    1  C   UNL     1     -12.814   9.705  71.519  1.00  0.00    -0.392 C  
HETATM    2  O   UNL     1     -11.680  10.465  71.102  1.00  0.00    -0.352 OA 
ENDROOT
BRANCH   2   3
HETATM    3  C   UNL     1     -11.119  10.075  69.913  1.00  0.00    -0.288 A  
HETATM    4  C   UNL     1     -11.210  10.884  68.766  1.00  0.00    -0.329 A  
HETATM    5  C   UNL     1     -10.760  10.473  67.522  1.00  0.00    -0.276 A  
HETATM    6  C   UNL     1     -10.141   9.236  67.421  1.00  0.00    -0.280 A  
HETATM    7  C   UNL     1      -9.934   8.459  68.586  1.00  0.00    -0.197 A  
HETATM    8  C   UNL     1      -9.783   8.871  66.124  1.00  0.00    -0.268 A  
HETATM    9  N   UNL     1      -9.095   7.683  65.858  1.00  0.00    -0.354 NA 
HETATM   10  N   UNL     1     -10.046   9.629  65.052  1.00  0.00     0.031 NA 
HETATM   11  C   UNL     1     -10.428   8.861  69.832  1.00  0.00    -0.214 A  
HETATM   12  N   UNL     1     -10.965  11.268  66.468  1.00  0.00    -0.272 NA 
HETATM   13  H2  UNL     1      -9.630   6.914  66.262  1.00  0.00     0.000 HD 
HETATM   14  C   UNL     1     -10.632  10.816  65.252  1.00  0.00    -0.160 A  
HETATM   15  H1  UNL     1      -8.833   7.417  64.909  1.00  0.00     0.000 HD 
BRANCH  11  16
HETATM   16  O   UNL     1     -10.159   7.948  70.812  1.00  0.00    -0.192 OA 
HETATM   17  C   UNL     1     -10.102   6.568  70.485  1.00  0.00    -0.185 C  
ENDBRANCH  11  16
BRANCH  14  18
HETATM   18  N   UNL     1     -10.871  11.619  64.163  1.00  0.00    -0.346 NA 
HETATM   19  C   UNL     1      -9.811  11.848  63.205  1.00  0.00    -0.325 C  
BRANCH  18  20
HETATM   20  C   UNL     1     -12.216  12.089  63.878  1.00  0.00    -0.453 C  
BRANCH  20  21
HETATM   21  C   UNL     1     -12.276  13.621  63.800  1.00  0.00    -0.413 C  
BRANCH  21  22
HETATM   22  C   UNL     1     -12.508  14.266  65.167  1.00  0.00    -0.416 C  
BRANCH  22  23
HETATM   23  N   UNL     1     -11.281  14.394  65.925  1.00  0.00    -0.318 N  
HETATM   24  C   UNL     1     -10.363  15.389  65.683  1.00  0.00    -0.372 C  
HETATM   25  H   UNL     1     -11.091  13.721  66.666  1.00  0.00     0.000 HD 
HETATM   26  O   UNL     1     -10.494  16.226  64.796  1.00  0.00    -0.607 OA 
BRANCH  24  27
HETATM   27  C   UNL     1      -9.146  15.367  66.619  1.00  0.00    -0.279 C  
HETATM   28  C   UNL     1      -9.560  15.770  68.022  1.00  0.00    -0.210 C  
HETATM   29  C   UNL     1      -8.448  15.199  68.859  1.00  0.00    -0.199 C  
HETATM   30  C   UNL     1      -8.098  13.925  68.119  1.00  0.00    -0.150 C  
HETATM   31  O   UNL     1      -8.505  14.089  66.751  1.00  0.00    -0.141 OA 
ENDBRANCH  24  27
ENDBRANCH  22  23
ENDBRANCH  21  22
ENDBRANCH  20  21
ENDBRANCH  18  20
ENDBRANCH  14  18
ENDBRANCH   2   3
TORSDOF 8
ENDMDL
MODEL       75
REMARK 921   NORMALIZED FREE ENERGY PREDICTED BY IDOCK:   -5.39 KCAL/MOL
REMARK 922        TOTAL FREE ENERGY PREDICTED BY IDOCK:   -9.45 KCAL/MOL
REMARK 923 INTER-LIGAND FREE ENERGY PREDICTED BY IDOCK:   -8.04 KCAL/MOL
REMARK 924 INTRA-LIGAND FREE ENERGY PREDICTED BY IDOCK:   -1.40 KCAL/MOL
REMARK 927      BINDING AFFINITY PREDICTED BY RF-SCORE:    0.00 PKD
ROOT
HETATM    1  C   UNL     1      -6.539  18.876  67.355  1.00  0.00    -0.194 C  
HETATM    2  O   UNL     1      -7.290  18.460  66.215  1.00  0.00    -0.229 OA 
ENDROOT
BRANCH   2   3
HETATM    3  C   UNL     1      -8.226  17.487  66.455  1.00  0.00    -0.270 A  
HETATM    4  C   UNL     1      -7.844  16.181  66.809  1.00  0.00    -0.296 A  
HETATM    5  C   UNL     1      -8.754  15.145  66.943  1.00  0.00    -0.259 A  
HETATM    6  C   UNL     1     -10.103  15.427  66.780  1.00  0.00    -0.266 A  
HETATM    7  C   UNL     1     -10.516  16.760  66.541  1.00  0.00    -0.258 A  
HETATM    8  C   UNL     1     -10.941  14.316  66.863  1.00  0.00    -0.304 A  
HETATM    9  N   UNL     1     -12.332  14.437  66.782  1.00  0.00    -0.534 NA 
HETATM   10  N   UNL     1     -10.488  13.069  67.045  1.00  0.00    -0.246 NA 
HETATM   11  C   UNL     1      -9.589  17.793  66.364  1.00  0.00    -0.283 A  
HETATM   12  N   UNL     1      -8.297  13.916  67.195  1.00  0.00    -0.185 NA 
HETATM   13  H2  UNL     1     -12.553  14.931  65.917  1.00  0.00     0.000 HD 
HETATM   14  C   UNL     1      -9.170  12.900  67.211  1.00  0.00    -0.208 A  
HETATM   15  H1  UNL     1     -12.944  13.624  66.843  1.00  0.00     0.000 HD 
BRANCH  11  16
HETATM   16  O   UNL     1     -10.195  18.989  66.100  1.00  0.00    -0.408 OA 
HETATM   17  C   UNL     1     -10.262  19.978  67.115  1.00  0.00    -0.441 C  
ENDBRANCH  11  16
BRANCH  14  18
HETATM   18  N   UNL     1      -8.698  11.629  67.438  1.00  0.00    -0.150 NA 
HETATM   19  C   UNL     1      -7.306  11.440  67.780  1.00  0.00    -0.098 C  
BRANCH  18  20
HETATM   20  C   UNL     1      -9.619  10.506  67.509  1.00  0.00    -0.160 C  
BRANCH  20  21
HETATM   21  C   UNL     1      -9.871  10.072  68.959  1.00  0.00    -0.203 C  
BRANCH  21  22
HETATM   22  C   UNL     1     -11.337  10.224  69.368  1.00  0.00    -0.221 C  
BRANCH  22  23
HETATM   23  N   UNL     1     -11.611  11.524  69.942  1.00  0.00    -0.388 N  
HETATM   24  C   UNL     1     -12.558  11.717  70.919  1.00  0.00    -0.313 C  
HETATM   25  H   UNL     1     -11.080  12.329  69.608  1.00  0.00     0.000 HD 
HETATM   26  O   UNL     1     -13.261  10.815  71.363  1.00  0.00    -0.364 OA 
BRANCH  24  27
HETATM   27  C   UNL     1     -12.670  13.165  71.415  1.00  0.00    -0.297 C  
HETATM   28  C   UNL     1     -11.951  14.100  70.460  1.00  0.00    -0.393 C  
HETATM   29  C   UNL     1     -12.586  15.427  70.774  1.00  0.00    -0.497 C  
HETATM   30  C   UNL     1     -14.015  15.041  71.098  1.00  0.00    -0.374 C  
HETATM   31  O   UNL     1     -14.011  13.669  71.522  1.00  0.00    -0.204 OA 
ENDBRANCH  24  27
ENDBRANCH  22  23
ENDBRANCH  21  22
ENDBRANCH  20  21
ENDBRANCH  18  20
ENDBRANCH  14  18
ENDBRANCH   2   3
TORSDOF 8
ENDMDL
MODEL       76
REMARK 921   NORMALIZED FREE ENERGY PREDICTED BY IDOCK:   -5.38 KCAL/MOL
REMARK 922        TOTAL FREE ENERGY PREDICTED BY IDOCK:   -9.44 KCAL/MOL
REMARK 923 INTER-LIGAND FREE ENERGY PREDICTED BY IDOCK:   -7.37 KCAL/MOL
REMARK 924 INTRA-LIGAND FREE ENERGY PREDICTED BY IDOCK:   -2.07 KCAL/MOL
REMARK 927      BINDING AFFINITY PREDICTED BY RF-SCORE:    0.00 PKD
ROOT
HETATM    1  C   UNL     1     -12.455  15.483  70.559  1.00  0.00    -0.427 C  
HETATM    2  O   UNL     1     -12.276  16.082  69.275  1.00  0.00    -0.226 OA 
ENDROOT
BRANCH   2   3
HETATM    3  C   UNL     1     -11.031  15.922  68.724  1.00  0.00    -0.301 A  
HETATM    4  C   UNL     1     -10.398  14.667  68.709  1.00  0.00    -0.248 A  
HETATM    5  C   UNL     1      -9.096  14.489  68.268  1.00  0.00    -0.196 A  
HETATM    6  C   UNL     1      -8.415  15.589  67.765  1.00  0.00    -0.159 A  
HETATM    7  C   UNL     1      -9.077  16.836  67.662  1.00  0.00    -0.218 A  
HETATM    8  C   UNL     1      -7.091  15.337  67.410  1.00  0.00    -0.191 A  
HETATM    9  N   UNL     1      -6.285  16.322  66.830  1.00  0.00    -0.315 NA 
HETATM   10  N   UNL     1      -6.503  14.145  67.574  1.00  0.00    -0.310 NA 
HETATM   11  C   UNL     1     -10.377  17.017  68.148  1.00  0.00    -0.347 A  
HETATM   12  N   UNL     1      -8.541  13.279  68.370  1.00  0.00    -0.161 NA 
HETATM   13  H2  UNL     1      -6.294  17.136  67.446  1.00  0.00     0.000 HD 
HETATM   14  C   UNL     1      -7.248  13.139  68.050  1.00  0.00    -0.125 A  
HETATM   15  H1  UNL     1      -5.317  16.137  66.571  1.00  0.00     0.000 HD 
BRANCH  11  16
HETATM   16  O   UNL     1     -10.810  18.304  67.991  1.00  0.00    -0.321 OA 
HETATM   17  C   UNL     1     -10.150  19.352  68.683  1.00  0.00    -0.428 C  
ENDBRANCH  11  16
BRANCH  14  18
HETATM   18  N   UNL     1      -6.666  11.902  68.185  1.00  0.00    -0.058 NA 
HETATM   19  C   UNL     1      -6.037  11.547  69.438  1.00  0.00    -0.085 C  
BRANCH  18  20
HETATM   20  C   UNL     1      -6.831  10.896  67.148  1.00  0.00    -0.093 C  
BRANCH  20  21
HETATM   21  C   UNL     1      -7.592   9.669  67.667  1.00  0.00    -0.091 C  
BRANCH  21  22
HETATM   22  C   UNL     1      -9.093   9.928  67.807  1.00  0.00    -0.131 C  
BRANCH  22  23
HETATM   23  N   UNL     1      -9.587  10.833  66.791  1.00  0.00    -0.169 N  
HETATM   24  C   UNL     1     -10.872  11.321  66.796  1.00  0.00    -0.282 C  
HETATM   25  H   UNL     1      -8.956  11.121  66.042  1.00  0.00     0.000 HD 
HETATM   26  O   UNL     1     -11.707  11.011  67.640  1.00  0.00    -0.576 OA 
BRANCH  24  27
HETATM   27  C   UNL     1     -11.185  12.291  65.649  1.00  0.00    -0.333 C  
HETATM   28  C   UNL     1     -12.244  13.287  66.083  1.00  0.00    -0.466 C  
HETATM   29  C   UNL     1     -12.040  14.415  65.109  1.00  0.00    -0.395 C  
HETATM   30  C   UNL     1     -10.541  14.399  64.893  1.00  0.00    -0.434 C  
HETATM   31  O   UNL     1     -10.071  13.076  65.196  1.00  0.00    -0.279 OA 
ENDBRANCH  24  27
ENDBRANCH  22  23
ENDBRANCH  21  22
ENDBRANCH  20  21
ENDBRANCH  18  20
ENDBRANCH  14  18
ENDBRANCH   2   3
TORSDOF 8
ENDMDL
MODEL       77
REMARK 921   NORMALIZED FREE ENERGY PREDICTED BY IDOCK:   -5.38 KCAL/MOL
REMARK 922        TOTAL FREE ENERGY PREDICTED BY IDOCK:   -9.43 KCAL/MOL
REMARK 923 INTER-LIGAND FREE ENERGY PREDICTED BY IDOCK:   -8.92 KCAL/MOL
REMARK 924 INTRA-LIGAND FREE ENERGY PREDICTED BY IDOCK:   -0.51 KCAL/MOL
REMARK 927      BINDING AFFINITY PREDICTED BY RF-SCORE:    0.00 PKD
ROOT
HETATM    1  C   UNL     1      -7.474  17.232  66.297  1.00  0.00    -0.319 C  
HETATM    2  O   UNL     1      -8.691  16.595  65.909  1.00  0.00    -0.483 OA 
ENDROOT
BRANCH   2   3
HETATM    3  C   UNL     1      -9.523  16.245  66.941  1.00  0.00    -0.230 A  
HETATM    4  C   UNL     1      -9.579  14.922  67.413  1.00  0.00    -0.206 A  
HETATM    5  C   UNL     1     -10.490  14.506  68.372  1.00  0.00    -0.246 A  
HETATM    6  C   UNL     1     -11.337  15.452  68.929  1.00  0.00    -0.322 A  
HETATM    7  C   UNL     1     -11.214  16.812  68.554  1.00  0.00    -0.176 A  
HETATM    8  C   UNL     1     -12.266  14.937  69.832  1.00  0.00    -0.309 A  
HETATM    9  N   UNL     1     -13.152  15.765  70.529  1.00  0.00    -0.753 NA 
HETATM   10  N   UNL     1     -12.366  13.632  70.115  1.00  0.00    -0.326 NA 
HETATM   11  C   UNL     1     -10.322  17.217  67.554  1.00  0.00    -0.341 A  
HETATM   12  N   UNL     1     -10.534  13.212  68.698  1.00  0.00    -0.249 NA 
HETATM   13  H2  UNL     1     -13.660  16.326  69.844  1.00  0.00     0.000 HD 
HETATM   14  C   UNL     1     -11.491  12.797  69.539  1.00  0.00    -0.225 A  
HETATM   15  H1  UNL     1     -13.831  15.388  71.189  1.00  0.00     0.000 HD 
BRANCH  11  16
HETATM   16  O   UNL     1     -10.394  18.561  67.315  1.00  0.00    -0.359 OA 
HETATM   17  C   UNL     1      -9.826  19.468  68.246  1.00  0.00    -0.416 C  
ENDBRANCH  11  16
BRANCH  14  18
HETATM   18  N   UNL     1     -11.559  11.461  69.853  1.00  0.00    -0.315 NA 
HETATM   19  C   UNL     1     -10.555  10.559  69.335  1.00  0.00    -0.240 C  
BRANCH  18  20
HETATM   20  C   UNL     1     -12.522  10.986  70.833  1.00  0.00    -0.410 C  
BRANCH  20  21
HETATM   21  C   UNL     1     -12.364   9.482  71.098  1.00  0.00    -0.410 C  
BRANCH  21  22
HETATM   22  C   UNL     1     -12.547   9.127  72.574  1.00  0.00    -0.241 C  
BRANCH  22  23
HETATM   23  N   UNL     1     -11.946   7.852  72.906  1.00  0.00    -0.619 N  
HETATM   24  C   UNL     1     -10.585   7.668  72.963  1.00  0.00    -0.375 C  
HETATM   25  H   UNL     1     -12.557   7.060  73.105  1.00  0.00     0.000 HD 
HETATM   26  O   UNL     1      -9.774   8.555  72.713  1.00  0.00    -0.257 OA 
BRANCH  24  27
HETATM   27  C   UNL     1     -10.154   6.251  73.365  1.00  0.00    -0.203 C  
HETATM   28  C   UNL     1     -11.270   5.265  73.071  1.00  0.00    -0.387 C  
HETATM   29  C   UNL     1     -10.530   3.956  73.009  1.00  0.00    -0.253 C  
HETATM   30  C   UNL     1      -9.201   4.355  72.402  1.00  0.00    -0.121 C  
HETATM   31  O   UNL     1      -8.997   5.750  72.677  1.00  0.00    -0.132 OA 
ENDBRANCH  24  27
ENDBRANCH  22  23
ENDBRANCH  21  22
ENDBRANCH  20  21
ENDBRANCH  18  20
ENDBRANCH  14  18
ENDBRANCH   2   3
TORSDOF 8
ENDMDL
MODEL       78
REMARK 921   NORMALIZED FREE ENERGY PREDICTED BY IDOCK:   -5.33 KCAL/MOL
REMARK 922        TOTAL FREE ENERGY PREDICTED BY IDOCK:   -9.35 KCAL/MOL
REMARK 923 INTER-LIGAND FREE ENERGY PREDICTED BY IDOCK:   -8.78 KCAL/MOL
REMARK 924 INTRA-LIGAND FREE ENERGY PREDICTED BY IDOCK:   -0.58 KCAL/MOL
REMARK 927      BINDING AFFINITY PREDICTED BY RF-SCORE:    0.00 PKD
ROOT
HETATM    1  C   UNL     1     -10.163  20.018  66.872  1.00  0.00    -0.462 C  
HETATM    2  O   UNL     1      -8.770  19.770  66.678  1.00  0.00    -0.321 OA 
ENDROOT
BRANCH   2   3
HETATM    3  C   UNL     1      -8.386  18.460  66.800  1.00  0.00    -0.259 A  
HETATM    4  C   UNL     1      -9.151  17.422  66.237  1.00  0.00    -0.232 A  
HETATM    5  C   UNL     1      -8.860  16.083  66.438  1.00  0.00    -0.328 A  
HETATM    6  C   UNL     1      -7.730  15.758  67.176  1.00  0.00    -0.255 A  
HETATM    7  C   UNL     1      -6.882  16.788  67.650  1.00  0.00    -0.158 A  
HETATM    8  C   UNL     1      -7.551  14.392  67.389  1.00  0.00    -0.172 A  
HETATM    9  N   UNL     1      -6.430  13.894  68.061  1.00  0.00    -0.128 NA 
HETATM   10  N   UNL     1      -8.413  13.464  66.956  1.00  0.00    -0.169 NA 
HETATM   11  C   UNL     1      -7.205  18.139  67.479  1.00  0.00    -0.200 A  
HETATM   12  N   UNL     1      -9.689  15.162  65.941  1.00  0.00    -0.331 NA 
HETATM   13  H2  UNL     1      -6.374  14.361  68.966  1.00  0.00     0.000 HD 
HETATM   14  C   UNL     1      -9.466  13.874  66.236  1.00  0.00    -0.215 A  
HETATM   15  H1  UNL     1      -6.299  12.894  68.216  1.00  0.00     0.000 HD 
BRANCH  11  16
HETATM   16  O   UNL     1      -6.279  18.966  68.049  1.00  0.00    -0.210 OA 
HETATM   17  C   UNL     1      -5.846  18.719  69.377  1.00  0.00    -0.238 C  
ENDBRANCH  11  16
BRANCH  14  18
HETATM   18  N   UNL     1     -10.335  12.927  65.752  1.00  0.00    -0.280 NA 
HETATM   19  C   UNL     1     -10.673  12.926  64.346  1.00  0.00    -0.386 C  
BRANCH  18  20
HETATM   20  C   UNL     1     -10.774  11.832  66.601  1.00  0.00    -0.263 C  
BRANCH  20  21
HETATM   21  C   UNL     1     -11.565  12.338  67.815  1.00  0.00    -0.416 C  
BRANCH  21  22
HETATM   22  C   UNL     1     -12.149  13.733  67.592  1.00  0.00    -0.298 C  
BRANCH  22  23
HETATM   23  N   UNL     1     -12.637  14.323  68.821  1.00  0.00    -0.411 N  
HETATM   24  C   UNL     1     -11.821  15.017  69.683  1.00  0.00    -0.324 C  
HETATM   25  H   UNL     1     -13.624  14.221  69.056  1.00  0.00     0.000 HD 
HETATM   26  O   UNL     1     -10.617  15.169  69.497  1.00  0.00    -0.248 OA 
BRANCH  24  27
HETATM   27  C   UNL     1     -12.541  15.590  70.912  1.00  0.00    -0.456 C  
HETATM   28  C   UNL     1     -13.017  14.463  71.809  1.00  0.00    -0.419 C  
HETATM   29  C   UNL     1     -13.191  15.159  73.131  1.00  0.00    -0.603 C  
HETATM   30  C   UNL     1     -12.073  16.181  73.117  1.00  0.00    -0.518 C  
HETATM   31  O   UNL     1     -11.738  16.441  71.744  1.00  0.00    -0.478 OA 
ENDBRANCH  24  27
ENDBRANCH  22  23
ENDBRANCH  21  22
ENDBRANCH  20  21
ENDBRANCH  18  20
ENDBRANCH  14  18
ENDBRANCH   2   3
TORSDOF 8
ENDMDL
MODEL       79
REMARK 921   NORMALIZED FREE ENERGY PREDICTED BY IDOCK:   -5.29 KCAL/MOL
REMARK 922        TOTAL FREE ENERGY PREDICTED BY IDOCK:   -9.30 KCAL/MOL
REMARK 923 INTER-LIGAND FREE ENERGY PREDICTED BY IDOCK:   -8.80 KCAL/MOL
REMARK 924 INTRA-LIGAND FREE ENERGY PREDICTED BY IDOCK:   -0.50 KCAL/MOL
REMARK 927      BINDING AFFINITY PREDICTED BY RF-SCORE:    0.00 PKD
ROOT
HETATM    1  C   UNL     1     -10.142   6.922  68.562  1.00  0.00    -0.161 C  
HETATM    2  O   UNL     1     -10.306   7.150  69.962  1.00  0.00    -0.199 OA 
ENDROOT
BRANCH   2   3
HETATM    3  C   UNL     1     -10.988   8.293  70.293  1.00  0.00    -0.232 A  
HETATM    4  C   UNL     1     -11.011   9.402  69.429  1.00  0.00    -0.165 A  
HETATM    5  C   UNL     1     -11.588  10.613  69.779  1.00  0.00    -0.309 A  
HETATM    6  C   UNL     1     -12.222  10.708  71.010  1.00  0.00    -0.498 A  
HETATM    7  C   UNL     1     -12.313   9.567  71.843  1.00  0.00    -0.450 A  
HETATM    8  C   UNL     1     -12.713  11.978  71.311  1.00  0.00    -0.279 A  
HETATM    9  N   UNL     1     -13.431  12.230  72.484  1.00  0.00    -0.563 NA 
HETATM   10  N   UNL     1     -12.556  13.034  70.502  1.00  0.00    -0.204 NA 
HETATM   11  C   UNL     1     -11.690   8.361  71.501  1.00  0.00    -0.290 A  
HETATM   12  N   UNL     1     -11.488  11.642  68.934  1.00  0.00    -0.259 NA 
HETATM   13  H2  UNL     1     -12.861  11.920  73.272  1.00  0.00     0.000 HD 
HETATM   14  C   UNL     1     -11.946  12.837  69.326  1.00  0.00    -0.246 A  
HETATM   15  H1  UNL     1     -13.790  13.158  72.704  1.00  0.00     0.000 HD 
BRANCH  11  16
HETATM   16  O   UNL     1     -11.863   7.403  72.462  1.00  0.00    -0.263 OA 
HETATM   17  C   UNL     1     -10.829   7.166  73.404  1.00  0.00    -0.319 C  
ENDBRANCH  11  16
BRANCH  14  18
HETATM   18  N   UNL     1     -11.816  13.906  68.472  1.00  0.00    -0.351 NA 
HETATM   19  C   UNL     1     -11.981  13.701  67.049  1.00  0.00    -0.406 C  
BRANCH  18  20
HETATM   20  C   UNL     1     -11.690  15.255  68.997  1.00  0.00    -0.347 C  
BRANCH  20  21
HETATM   21  C   UNL     1     -11.140  16.225  67.942  1.00  0.00    -0.270 C  
BRANCH  21  22
HETATM   22  C   UNL     1     -10.254  17.311  68.552  1.00  0.00    -0.358 C  
BRANCH  22  23
HETATM   23  N   UNL     1      -9.580  18.097  67.539  1.00  0.00    -0.275 N  
HETATM   24  C   UNL     1      -8.759  19.155  67.849  1.00  0.00    -0.305 C  
HETATM   25  H   UNL     1      -9.721  17.856  66.558  1.00  0.00     0.000 HD 
HETATM   26  O   UNL     1      -8.551  19.533  68.997  1.00  0.00    -0.340 OA 
BRANCH  24  27
HETATM   27  C   UNL     1      -8.117  19.834  66.631  1.00  0.00    -0.315 C  
HETATM   28  C   UNL     1      -6.922  20.662  67.066  1.00  0.00    -0.365 C  
HETATM   29  C   UNL     1      -6.143  20.795  65.786  1.00  0.00    -0.272 C  
HETATM   30  C   UNL     1      -6.395  19.465  65.106  1.00  0.00    -0.274 C  
HETATM   31  O   UNL     1      -7.627  18.937  65.623  1.00  0.00    -0.485 OA 
ENDBRANCH  24  27
ENDBRANCH  22  23
ENDBRANCH  21  22
ENDBRANCH  20  21
ENDBRANCH  18  20
ENDBRANCH  14  18
ENDBRANCH   2   3
TORSDOF 8
ENDMDL
MODEL       80
REMARK 921   NORMALIZED FREE ENERGY PREDICTED BY IDOCK:   -5.25 KCAL/MOL
REMARK 922        TOTAL FREE ENERGY PREDICTED BY IDOCK:   -9.24 KCAL/MOL
REMARK 923 INTER-LIGAND FREE ENERGY PREDICTED BY IDOCK:   -8.43 KCAL/MOL
REMARK 924 INTRA-LIGAND FREE ENERGY PREDICTED BY IDOCK:   -0.81 KCAL/MOL
REMARK 927      BINDING AFFINITY PREDICTED BY RF-SCORE:    0.00 PKD
ROOT
HETATM    1  C   UNL     1     -11.305   7.403  69.976  1.00  0.00    -0.127 C  
HETATM    2  O   UNL     1     -10.702   8.440  70.749  1.00  0.00    -0.204 OA 
ENDROOT
BRANCH   2   3
HETATM    3  C   UNL     1     -11.182   9.702  70.510  1.00  0.00    -0.297 A  
HETATM    4  C   UNL     1     -10.735  10.455  69.410  1.00  0.00    -0.277 A  
HETATM    5  C   UNL     1     -11.107  11.773  69.203  1.00  0.00    -0.238 A  
HETATM    6  C   UNL     1     -12.007  12.350  70.088  1.00  0.00    -0.376 A  
HETATM    7  C   UNL     1     -12.560  11.572  71.133  1.00  0.00    -0.463 A  
HETATM    8  C   UNL     1     -12.272  13.697  69.847  1.00  0.00    -0.304 A  
HETATM    9  N   UNL     1     -13.203  14.412  70.609  1.00  0.00    -0.450 NA 
HETATM   10  N   UNL     1     -11.683  14.396  68.868  1.00  0.00    -0.303 NA 
HETATM   11  C   UNL     1     -12.147  10.254  71.361  1.00  0.00    -0.362 A  
HETATM   12  N   UNL     1     -10.567  12.442  68.181  1.00  0.00    -0.209 NA 
HETATM   13  H2  UNL     1     -12.942  14.315  71.591  1.00  0.00     0.000 HD 
HETATM   14  C   UNL     1     -10.842  13.746  68.053  1.00  0.00    -0.249 A  
HETATM   15  H1  UNL     1     -13.396  15.397  70.432  1.00  0.00     0.000 HD 
BRANCH  11  16
HETATM   16  O   UNL     1     -12.770   9.700  72.444  1.00  0.00    -0.312 OA 
HETATM   17  C   UNL     1     -13.992   9.001  72.265  1.00  0.00    -0.455 C  
ENDBRANCH  11  16
BRANCH  14  18
HETATM   18  N   UNL     1     -10.262  14.445  67.022  1.00  0.00    -0.260 NA 
HETATM   19  C   UNL     1     -11.104  15.155  66.085  1.00  0.00    -0.311 C  
BRANCH  18  20
HETATM   20  C   UNL     1      -8.819  14.616  66.971  1.00  0.00    -0.241 C  
BRANCH  20  21
HETATM   21  C   UNL     1      -8.185  14.496  68.363  1.00  0.00    -0.150 C  
BRANCH  21  22
HETATM   22  C   UNL     1      -8.345  15.772  69.190  1.00  0.00    -0.249 C  
BRANCH  22  23
HETATM   23  N   UNL     1      -8.186  16.966  68.386  1.00  0.00    -0.223 N  
HETATM   24  C   UNL     1      -9.205  17.868  68.191  1.00  0.00    -0.278 C  
HETATM   25  H   UNL     1      -7.283  17.144  67.947  1.00  0.00     0.000 HD 
HETATM   26  O   UNL     1     -10.331  17.724  68.657  1.00  0.00    -0.363 OA 
BRANCH  24  27
HETATM   27  C   UNL     1      -8.820  19.082  67.334  1.00  0.00    -0.287 C  
HETATM   28  C   UNL     1      -7.808  19.940  68.069  1.00  0.00    -0.317 C  
HETATM   29  C   UNL     1      -7.174  20.717  66.947  1.00  0.00    -0.350 C  
HETATM   30  C   UNL     1      -7.177  19.717  65.809  1.00  0.00    -0.318 C  
HETATM   31  O   UNL     1      -8.221  18.765  66.068  1.00  0.00    -0.458 OA 
ENDBRANCH  24  27
ENDBRANCH  22  23
ENDBRANCH  21  22
ENDBRANCH  20  21
ENDBRANCH  18  20
ENDBRANCH  14  18
ENDBRANCH   2   3
TORSDOF 8
ENDMDL
MODEL       81
REMARK 921   NORMALIZED FREE ENERGY PREDICTED BY IDOCK:   -5.22 KCAL/MOL
REMARK 922        TOTAL FREE ENERGY PREDICTED BY IDOCK:   -9.20 KCAL/MOL
REMARK 923 INTER-LIGAND FREE ENERGY PREDICTED BY IDOCK:   -8.09 KCAL/MOL
REMARK 924 INTRA-LIGAND FREE ENERGY PREDICTED BY IDOCK:   -1.10 KCAL/MOL
REMARK 927      BINDING AFFINITY PREDICTED BY RF-SCORE:    0.00 PKD
ROOT
HETATM    1  C   UNL     1     -11.729  14.815  71.799  1.00  0.00    -0.243 C  
HETATM    2  O   UNL     1     -12.372  15.656  70.842  1.00  0.00    -0.381 OA 
ENDROOT
BRANCH   2   3
HETATM    3  C   UNL     1     -11.851  15.607  69.575  1.00  0.00    -0.372 A  
HETATM    4  C   UNL     1     -12.151  14.543  68.706  1.00  0.00    -0.256 A  
HETATM    5  C   UNL     1     -11.552  14.398  67.464  1.00  0.00    -0.373 A  
HETATM    6  C   UNL     1     -10.667  15.379  67.042  1.00  0.00    -0.321 A  
HETATM    7  C   UNL     1     -10.443  16.518  67.852  1.00  0.00    -0.313 A  
HETATM    8  C   UNL     1     -10.059  15.119  65.815  1.00  0.00    -0.346 A  
HETATM    9  N   UNL     1      -9.187  16.036  65.218  1.00  0.00    -0.019 NA 
HETATM   10  N   UNL     1     -10.275  14.000  65.113  1.00  0.00    -0.378 NA 
HETATM   11  C   UNL     1     -11.018  16.637  69.123  1.00  0.00    -0.276 A  
HETATM   12  N   UNL     1     -11.829  13.311  66.740  1.00  0.00    -0.383 NA 
HETATM   13  H2  UNL     1      -8.452  16.253  65.891  1.00  0.00     0.000 HD 
HETATM   14  C   UNL     1     -11.161  13.119  65.595  1.00  0.00    -0.283 A  
HETATM   15  H1  UNL     1      -8.742  15.846  64.320  1.00  0.00     0.000 HD 
BRANCH  11  16
HETATM   16  O   UNL     1     -10.638  17.788  69.754  1.00  0.00     0.169 OA 
HETATM   17  C   UNL     1     -10.072  18.845  68.996  1.00  0.00    -0.250 C  
ENDBRANCH  11  16
BRANCH  14  18
HETATM   18  N   UNL     1     -11.420  11.986  64.862  1.00  0.00    -0.316 NA 
HETATM   19  C   UNL     1     -12.482  12.003  63.881  1.00  0.00    -0.436 C  
BRANCH  18  20
HETATM   20  C   UNL     1     -10.529  10.840  64.943  1.00  0.00    -0.254 C  
BRANCH  20  21
HETATM   21  C   UNL     1      -9.655  10.891  66.204  1.00  0.00    -0.239 C  
BRANCH  21  22
HETATM   22  C   UNL     1      -9.919   9.716  67.146  1.00  0.00    -0.194 C  
BRANCH  22  23
HETATM   23  N   UNL     1     -10.561  10.136  68.374  1.00  0.00    -0.204 N  
HETATM   24  C   UNL     1     -10.396   9.464  69.562  1.00  0.00    -0.214 C  
HETATM   25  H   UNL     1     -11.159  10.962  68.357  1.00  0.00     0.000 HD 
HETATM   26  O   UNL     1      -9.718   8.447  69.673  1.00  0.00    -0.170 OA 
BRANCH  24  27
HETATM   27  C   UNL     1     -11.137  10.091  70.752  1.00  0.00    -0.334 C  
HETATM   28  C   UNL     1     -12.042  11.209  70.271  1.00  0.00    -0.462 C  
HETATM   29  C   UNL     1     -13.029  11.328  71.401  1.00  0.00    -0.482 C  
HETATM   30  C   UNL     1     -13.173   9.894  71.867  1.00  0.00    -0.458 C  
HETATM   31  O   UNL     1     -11.981   9.190  71.485  1.00  0.00    -0.305 OA 
ENDBRANCH  24  27
ENDBRANCH  22  23
ENDBRANCH  21  22
ENDBRANCH  20  21
ENDBRANCH  18  20
ENDBRANCH  14  18
ENDBRANCH   2   3
TORSDOF 8
ENDMDL
MODEL       82
REMARK 921   NORMALIZED FREE ENERGY PREDICTED BY IDOCK:   -5.20 KCAL/MOL
REMARK 922        TOTAL FREE ENERGY PREDICTED BY IDOCK:   -9.18 KCAL/MOL
REMARK 923 INTER-LIGAND FREE ENERGY PREDICTED BY IDOCK:   -7.53 KCAL/MOL
REMARK 924 INTRA-LIGAND FREE ENERGY PREDICTED BY IDOCK:   -1.65 KCAL/MOL
REMARK 927      BINDING AFFINITY PREDICTED BY RF-SCORE:    0.00 PKD
ROOT
HETATM    1  C   UNL     1      -6.363   6.632  66.877  1.00  0.00    -0.042 C  
HETATM    2  O   UNL     1      -7.573   6.292  67.554  1.00  0.00    -0.093 OA 
ENDROOT
BRANCH   2   3
HETATM    3  C   UNL     1      -8.536   7.268  67.559  1.00  0.00    -0.122 A  
HETATM    4  C   UNL     1      -8.848   7.988  66.391  1.00  0.00    -0.183 A  
HETATM    5  C   UNL     1      -9.728   9.058  66.383  1.00  0.00    -0.268 A  
HETATM    6  C   UNL     1     -10.372   9.390  67.567  1.00  0.00    -0.314 A  
HETATM    7  C   UNL     1     -10.161   8.602  68.724  1.00  0.00    -0.224 A  
HETATM    8  C   UNL     1     -11.184  10.519  67.486  1.00  0.00    -0.224 A  
HETATM    9  N   UNL     1     -11.951  10.953  68.573  1.00  0.00    -0.762 NA 
HETATM   10  N   UNL     1     -11.309  11.254  66.374  1.00  0.00    -0.279 NA 
HETATM   11  C   UNL     1      -9.239   7.550  68.736  1.00  0.00    -0.145 A  
HETATM   12  N   UNL     1      -9.900   9.742  65.250  1.00  0.00    -0.313 NA 
HETATM   13  H2  UNL     1     -11.324  11.074  69.369  1.00  0.00     0.000 HD 
HETATM   14  C   UNL     1     -10.662  10.843  65.276  1.00  0.00    -0.124 A  
HETATM   15  H1  UNL     1     -12.545  11.779  68.514  1.00  0.00     0.000 HD 
BRANCH  11  16
HETATM   16  O   UNL     1      -9.156   6.951  69.961  1.00  0.00    -0.145 OA 
HETATM   17  C   UNL     1     -10.192   6.077  70.383  1.00  0.00    -0.204 C  
ENDBRANCH  11  16
BRANCH  14  18
HETATM   18  N   UNL     1     -10.815  11.567  64.118  1.00  0.00    -0.353 NA 
HETATM   19  C   UNL     1      -9.699  11.690  63.206  1.00  0.00    -0.368 C  
BRANCH  18  20
HETATM   20  C   UNL     1     -12.126  12.055  63.725  1.00  0.00    -0.499 C  
BRANCH  20  21
HETATM   21  C   UNL     1     -12.129  13.577  63.531  1.00  0.00    -0.425 C  
BRANCH  21  22
HETATM   22  C   UNL     1     -12.392  14.332  64.834  1.00  0.00    -0.425 C  
BRANCH  22  23
HETATM   23  N   UNL     1     -11.185  14.508  65.615  1.00  0.00    -0.327 N  
HETATM   24  C   UNL     1     -11.174  14.428  66.987  1.00  0.00    -0.328 C  
HETATM   25  H   UNL     1     -10.309  14.697  65.128  1.00  0.00     0.000 HD 
HETATM   26  O   UNL     1     -12.181  14.230  67.660  1.00  0.00    -0.337 OA 
BRANCH  24  27
HETATM   27  C   UNL     1      -9.788  14.612  67.620  1.00  0.00    -0.218 C  
HETATM   28  C   UNL     1      -8.849  13.519  67.146  1.00  0.00    -0.231 C  
HETATM   29  C   UNL     1      -7.496  14.126  67.402  1.00  0.00    -0.155 C  
HETATM   30  C   UNL     1      -7.734  15.595  67.122  1.00  0.00    -0.223 C  
HETATM   31  O   UNL     1      -9.136  15.853  67.305  1.00  0.00    -0.199 OA 
ENDBRANCH  24  27
ENDBRANCH  22  23
ENDBRANCH  21  22
ENDBRANCH  20  21
ENDBRANCH  18  20
ENDBRANCH  14  18
ENDBRANCH   2   3
TORSDOF 8
ENDMDL
MODEL       83
REMARK 921   NORMALIZED FREE ENERGY PREDICTED BY IDOCK:   -5.18 KCAL/MOL
REMARK 922        TOTAL FREE ENERGY PREDICTED BY IDOCK:   -9.14 KCAL/MOL
REMARK 923 INTER-LIGAND FREE ENERGY PREDICTED BY IDOCK:   -7.98 KCAL/MOL
REMARK 924 INTRA-LIGAND FREE ENERGY PREDICTED BY IDOCK:   -1.15 KCAL/MOL
REMARK 927      BINDING AFFINITY PREDICTED BY RF-SCORE:    0.00 PKD
ROOT
HETATM    1  C   UNL     1     -13.022   9.525  72.362  1.00  0.00    -0.317 C  
HETATM    2  O   UNL     1     -11.687   9.031  72.250  1.00  0.00    -0.334 OA 
ENDROOT
BRANCH   2   3
HETATM    3  C   UNL     1     -11.356   8.509  71.026  1.00  0.00    -0.271 A  
HETATM    4  C   UNL     1     -10.669   9.278  70.070  1.00  0.00    -0.259 A  
HETATM    5  C   UNL     1     -10.421   8.827  68.783  1.00  0.00    -0.191 A  
HETATM    6  C   UNL     1     -10.817   7.539  68.450  1.00  0.00    -0.035 A  
HETATM    7  C   UNL     1     -11.403   6.708  69.434  1.00  0.00    -0.331 A  
HETATM    8  C   UNL     1     -10.594   7.192  67.118  1.00  0.00    -0.347 A  
HETATM    9  N   UNL     1     -10.879   5.911  66.634  1.00  0.00    -0.612 NA 
HETATM   10  N   UNL     1     -10.076   8.038  66.218  1.00  0.00    -0.096 NA 
HETATM   11  C   UNL     1     -11.688   7.185  70.719  1.00  0.00    -0.323 A  
HETATM   12  N   UNL     1      -9.840   9.654  67.912  1.00  0.00    -0.149 NA 
HETATM   13  H2  UNL     1     -11.854   5.705  66.852  1.00  0.00     0.000 HD 
HETATM   14  C   UNL     1      -9.708   9.254  66.640  1.00  0.00    -0.219 A  
HETATM   15  H1  UNL     1     -10.715   5.657  65.660  1.00  0.00     0.000 HD 
BRANCH  11  16
HETATM   16  O   UNL     1     -12.293   6.238  71.497  1.00  0.00    -0.197 OA 
HETATM   17  C   UNL     1     -11.576   5.658  72.575  1.00  0.00    -0.246 C  
ENDBRANCH  11  16
BRANCH  14  18
HETATM   18  N   UNL     1      -9.140  10.116  65.733  1.00  0.00    -0.163 NA 
HETATM   19  C   UNL     1      -8.180  11.096  66.192  1.00  0.00    -0.128 C  
BRANCH  18  20
HETATM   20  C   UNL     1      -9.362   9.934  64.309  1.00  0.00    -0.253 C  
BRANCH  20  21
HETATM   21  C   UNL     1      -9.211  11.253  63.539  1.00  0.00    -0.154 C  
BRANCH  21  22
HETATM   22  C   UNL     1     -10.550  11.954  63.311  1.00  0.00    -0.365 C  
BRANCH  22  23
HETATM   23  N   UNL     1     -10.724  13.093  64.188  1.00  0.00    -0.474 N  
HETATM   24  C   UNL     1     -11.457  13.028  65.349  1.00  0.00    -0.312 C  
HETATM   25  H   UNL     1     -10.286  13.978  63.934  1.00  0.00     0.000 HD 
HETATM   26  O   UNL     1     -12.041  12.015  65.722  1.00  0.00    -0.536 OA 
BRANCH  24  27
HETATM   27  C   UNL     1     -11.492  14.337  66.150  1.00  0.00    -0.355 C  
HETATM   28  C   UNL     1     -12.022  14.079  67.548  1.00  0.00    -0.430 C  
HETATM   29  C   UNL     1     -11.503  15.268  68.310  1.00  0.00    -0.359 C  
HETATM   30  C   UNL     1     -10.163  15.524  67.651  1.00  0.00    -0.255 C  
HETATM   31  O   UNL     1     -10.217  14.975  66.325  1.00  0.00    -0.271 OA 
ENDBRANCH  24  27
ENDBRANCH  22  23
ENDBRANCH  21  22
ENDBRANCH  20  21
ENDBRANCH  18  20
ENDBRANCH  14  18
ENDBRANCH   2   3
TORSDOF 8
ENDMDL
MODEL       84
REMARK 921   NORMALIZED FREE ENERGY PREDICTED BY IDOCK:   -5.18 KCAL/MOL
REMARK 922        TOTAL FREE ENERGY PREDICTED BY IDOCK:   -9.13 KCAL/MOL
REMARK 923 INTER-LIGAND FREE ENERGY PREDICTED BY IDOCK:   -7.33 KCAL/MOL
REMARK 924 INTRA-LIGAND FREE ENERGY PREDICTED BY IDOCK:   -1.80 KCAL/MOL
REMARK 927      BINDING AFFINITY PREDICTED BY RF-SCORE:    0.00 PKD
ROOT
HETATM    1  C   UNL     1     -10.083   4.946  65.632  1.00  0.00    -0.127 C  
HETATM    2  O   UNL     1     -10.706   5.142  66.902  1.00  0.00    -0.230 OA 
ENDROOT
BRANCH   2   3
HETATM    3  C   UNL     1     -10.329   6.279  67.569  1.00  0.00    -0.200 A  
HETATM    4  C   UNL     1     -10.811   7.542  67.184  1.00  0.00    -0.298 A  
HETATM    5  C   UNL     1     -10.363   8.722  67.757  1.00  0.00    -0.237 A  
HETATM    6  C   UNL     1      -9.446   8.643  68.795  1.00  0.00    -0.143 A  
HETATM    7  C   UNL     1      -9.040   7.375  69.277  1.00  0.00    -0.135 A  
HETATM    8  C   UNL     1      -8.997   9.876  69.265  1.00  0.00    -0.178 A  
HETATM    9  N   UNL     1      -8.118   9.974  70.349  1.00  0.00    -0.411 NA 
HETATM   10  N   UNL     1      -9.383  11.045  68.739  1.00  0.00    -0.192 NA 
HETATM   11  C   UNL     1      -9.463   6.190  68.665  1.00  0.00    -0.124 A  
HETATM   12  N   UNL     1     -10.808   9.883  67.270  1.00  0.00    -0.246 NA 
HETATM   13  H2  UNL     1      -7.299   9.401  70.140  1.00  0.00     0.000 HD 
HETATM   14  C   UNL     1     -10.286  11.019  67.750  1.00  0.00    -0.183 A  
HETATM   15  H1  UNL     1      -7.790  10.876  70.693  1.00  0.00     0.000 HD 
BRANCH  11  16
HETATM   16  O   UNL     1      -8.920   5.083  69.256  1.00  0.00    -0.093 OA 
HETATM   17  C   UNL     1      -9.654   4.394  70.255  1.00  0.00    -0.193 C  
ENDBRANCH  11  16
BRANCH  14  18
HETATM   18  N   UNL     1     -10.718  12.215  67.230  1.00  0.00    -0.223 NA 
HETATM   19  C   UNL     1     -11.444  12.223  65.979  1.00  0.00    -0.381 C  
BRANCH  18  20
HETATM   20  C   UNL     1     -10.605  13.438  68.007  1.00  0.00    -0.243 C  
BRANCH  20  21
HETATM   21  C   UNL     1     -11.931  13.801  68.688  1.00  0.00    -0.401 C  
BRANCH  21  22
HETATM   22  C   UNL     1     -12.028  13.248  70.110  1.00  0.00    -0.318 C  
BRANCH  22  23
HETATM   23  N   UNL     1     -11.946  11.803  70.140  1.00  0.00    -0.342 N  
HETATM   24  C   UNL     1     -12.557  11.047  71.113  1.00  0.00    -0.418 C  
HETATM   25  H   UNL     1     -11.415  11.327  69.411  1.00  0.00     0.000 HD 
HETATM   26  O   UNL     1     -13.194  11.532  72.043  1.00  0.00    -0.509 OA 
BRANCH  24  27
HETATM   27  C   UNL     1     -12.374   9.533  70.945  1.00  0.00    -0.228 C  
HETATM   28  C   UNL     1     -11.368   9.013  71.955  1.00  0.00    -0.438 C  
HETATM   29  C   UNL     1     -11.703   7.548  72.014  1.00  0.00    -0.333 C  
HETATM   30  C   UNL     1     -13.206   7.544  71.830  1.00  0.00    -0.316 C  
HETATM   31  O   UNL     1     -13.564   8.752  71.139  1.00  0.00    -0.192 OA 
ENDBRANCH  24  27
ENDBRANCH  22  23
ENDBRANCH  21  22
ENDBRANCH  20  21
ENDBRANCH  18  20
ENDBRANCH  14  18
ENDBRANCH   2   3
TORSDOF 8
ENDMDL
MODEL       85
REMARK 921   NORMALIZED FREE ENERGY PREDICTED BY IDOCK:   -5.17 KCAL/MOL
REMARK 922        TOTAL FREE ENERGY PREDICTED BY IDOCK:   -9.13 KCAL/MOL
REMARK 923 INTER-LIGAND FREE ENERGY PREDICTED BY IDOCK:   -8.25 KCAL/MOL
REMARK 924 INTRA-LIGAND FREE ENERGY PREDICTED BY IDOCK:   -0.87 KCAL/MOL
REMARK 927      BINDING AFFINITY PREDICTED BY RF-SCORE:    0.00 PKD
ROOT
HETATM    1  C   UNL     1     -12.715  12.229  63.211  1.00  0.00    -0.232 C  
HETATM    2  O   UNL     1     -12.051  13.475  63.419  1.00  0.00    -0.521 OA 
ENDROOT
BRANCH   2   3
HETATM    3  C   UNL     1     -11.085  13.469  64.392  1.00  0.00    -0.380 A  
HETATM    4  C   UNL     1     -10.574  12.262  64.902  1.00  0.00    -0.329 A  
HETATM    5  C   UNL     1      -9.687  12.214  65.965  1.00  0.00    -0.244 A  
HETATM    6  C   UNL     1      -9.241  13.411  66.505  1.00  0.00    -0.182 A  
HETATM    7  C   UNL     1      -9.651  14.637  65.928  1.00  0.00    -0.303 A  
HETATM    8  C   UNL     1      -8.407  13.271  67.613  1.00  0.00    -0.181 A  
HETATM    9  N   UNL     1      -7.822  14.378  68.238  1.00  0.00    -0.129 NA 
HETATM   10  N   UNL     1      -8.089  12.084  68.145  1.00  0.00    -0.151 NA 
HETATM   11  C   UNL     1     -10.581  14.679  64.882  1.00  0.00    -0.422 A  
HETATM   12  N   UNL     1      -9.320  11.022  66.443  1.00  0.00    -0.178 NA 
HETATM   13  H2  UNL     1      -8.569  15.026  68.489  1.00  0.00     0.000 HD 
HETATM   14  C   UNL     1      -8.554  10.982  67.541  1.00  0.00    -0.128 A  
HETATM   15  H1  UNL     1      -7.212  14.274  69.049  1.00  0.00     0.000 HD 
BRANCH  11  16
HETATM   16  O   UNL     1     -10.873  15.959  64.505  1.00  0.00    -0.532 OA 
HETATM   17  C   UNL     1     -10.600  17.029  65.395  1.00  0.00    -0.134 C  
ENDBRANCH  11  16
BRANCH  14  18
HETATM   18  N   UNL     1      -8.200   9.758  68.055  1.00  0.00    -0.109 NA 
HETATM   19  C   UNL     1      -6.843   9.286  67.893  1.00  0.00    -0.072 C  
BRANCH  18  20
HETATM   20  C   UNL     1      -9.125   9.022  68.901  1.00  0.00    -0.140 C  
BRANCH  20  21
HETATM   21  C   UNL     1      -9.410   9.769  70.211  1.00  0.00    -0.236 C  
BRANCH  21  22
HETATM   22  C   UNL     1     -10.892   9.745  70.587  1.00  0.00    -0.329 C  
BRANCH  22  23
HETATM   23  N   UNL     1     -11.492  11.061  70.520  1.00  0.00    -0.446 N  
HETATM   24  C   UNL     1     -12.559  11.429  71.306  1.00  0.00    -0.374 C  
HETATM   25  H   UNL     1     -11.109  11.742  69.864  1.00  0.00     0.000 HD 
HETATM   26  O   UNL     1     -13.102  10.670  72.103  1.00  0.00    -0.460 OA 
BRANCH  24  27
HETATM   27  C   UNL     1     -13.024  12.877  71.103  1.00  0.00    -0.174 C  
HETATM   28  C   UNL     1     -13.818  13.343  72.310  1.00  0.00    -0.671 C  
HETATM   29  C   UNL     1     -13.724  14.840  72.194  1.00  0.00    -0.543 C  
HETATM   30  C   UNL     1     -12.336  15.042  71.622  1.00  0.00    -0.342 C  
HETATM   31  O   UNL     1     -11.969  13.836  70.933  1.00  0.00    -0.312 OA 
ENDBRANCH  24  27
ENDBRANCH  22  23
ENDBRANCH  21  22
ENDBRANCH  20  21
ENDBRANCH  18  20
ENDBRANCH  14  18
ENDBRANCH   2   3
TORSDOF 8
ENDMDL
MODEL       86
REMARK 921   NORMALIZED FREE ENERGY PREDICTED BY IDOCK:   -5.16 KCAL/MOL
REMARK 922        TOTAL FREE ENERGY PREDICTED BY IDOCK:   -9.10 KCAL/MOL
REMARK 923 INTER-LIGAND FREE ENERGY PREDICTED BY IDOCK:   -7.06 KCAL/MOL
REMARK 924 INTRA-LIGAND FREE ENERGY PREDICTED BY IDOCK:   -2.05 KCAL/MOL
REMARK 927      BINDING AFFINITY PREDICTED BY RF-SCORE:    0.00 PKD
ROOT
HETATM    1  C   UNL     1     -11.479  15.615  70.596  1.00  0.00    -0.375 C  
HETATM    2  O   UNL     1     -12.582  14.803  70.195  1.00  0.00    -0.324 OA 
ENDROOT
BRANCH   2   3
HETATM    3  C   UNL     1     -12.247  13.595  69.639  1.00  0.00    -0.270 A  
HETATM    4  C   UNL     1     -12.241  12.418  70.409  1.00  0.00    -0.370 A  
HETATM    5  C   UNL     1     -11.797  11.202  69.914  1.00  0.00    -0.363 A  
HETATM    6  C   UNL     1     -11.400  11.136  68.586  1.00  0.00    -0.342 A  
HETATM    7  C   UNL     1     -11.511  12.283  67.764  1.00  0.00    -0.392 A  
HETATM    8  C   UNL     1     -10.902   9.896  68.192  1.00  0.00    -0.234 A  
HETATM    9  N   UNL     1     -10.516   9.644  66.870  1.00  0.00    -0.233 NA 
HETATM   10  N   UNL     1     -10.776   8.857  69.028  1.00  0.00    -0.176 NA 
HETATM   11  C   UNL     1     -11.921  13.518  68.281  1.00  0.00    -0.342 A  
HETATM   12  N   UNL     1     -11.741  10.153  70.739  1.00  0.00    -0.329 NA 
HETATM   13  H2  UNL     1      -9.834  10.354  66.604  1.00  0.00     0.000 HD 
HETATM   14  C   UNL     1     -11.204   9.012  70.288  1.00  0.00    -0.205 A  
HETATM   15  H1  UNL     1     -10.153   8.736  66.582  1.00  0.00     0.000 HD 
BRANCH  11  16
HETATM   16  O   UNL     1     -11.916  14.500  67.331  1.00  0.00    -0.394 OA 
HETATM   17  C   UNL     1     -11.711  14.155  65.970  1.00  0.00    -0.382 C  
ENDBRANCH  11  16
BRANCH  14  18
HETATM   18  N   UNL     1     -11.116   7.941  71.143  1.00  0.00    -0.251 NA 
HETATM   19  C   UNL     1     -10.893   8.175  72.553  1.00  0.00    -0.361 C  
BRANCH  18  20
HETATM   20  C   UNL     1     -11.419   6.599  70.673  1.00  0.00    -0.364 C  
BRANCH  20  21
HETATM   21  C   UNL     1     -10.537   5.546  71.359  1.00  0.00    -0.310 C  
BRANCH  21  22
HETATM   22  C   UNL     1      -9.245   5.276  70.589  1.00  0.00    -0.148 C  
BRANCH  22  23
HETATM   23  N   UNL     1      -8.588   6.500  70.180  1.00  0.00    -0.138 N  
HETATM   24  C   UNL     1      -7.669   7.147  70.973  1.00  0.00    -0.090 C  
HETATM   25  H   UNL     1      -8.815   6.898  69.269  1.00  0.00     0.000 HD 
HETATM   26  O   UNL     1      -7.352   6.758  72.093  1.00  0.00    -0.086 OA 
BRANCH  24  27
HETATM   27  C   UNL     1      -7.066   8.409  70.341  1.00  0.00    -0.037 C  
HETATM   28  C   UNL     1      -7.319   8.415  68.845  1.00  0.00    -0.090 C  
HETATM   29  C   UNL     1      -7.164   9.871  68.501  1.00  0.00    -0.076 C  
HETATM   30  C   UNL     1      -7.716  10.562  69.731  1.00  0.00    -0.067 C  
HETATM   31  O   UNL     1      -7.598   9.648  70.834  1.00  0.00    -0.309 OA 
ENDBRANCH  24  27
ENDBRANCH  22  23
ENDBRANCH  21  22
ENDBRANCH  20  21
ENDBRANCH  18  20
ENDBRANCH  14  18
ENDBRANCH   2   3
TORSDOF 8
ENDMDL
MODEL       87
REMARK 921   NORMALIZED FREE ENERGY PREDICTED BY IDOCK:   -5.14 KCAL/MOL
REMARK 922        TOTAL FREE ENERGY PREDICTED BY IDOCK:   -9.09 KCAL/MOL
REMARK 923 INTER-LIGAND FREE ENERGY PREDICTED BY IDOCK:   -8.44 KCAL/MOL
REMARK 924 INTRA-LIGAND FREE ENERGY PREDICTED BY IDOCK:   -0.65 KCAL/MOL
REMARK 927      BINDING AFFINITY PREDICTED BY RF-SCORE:    0.00 PKD
ROOT
HETATM    1  C   UNL     1     -11.751   6.615  71.908  1.00  0.00    -0.313 C  
HETATM    2  O   UNL     1     -10.426   7.062  71.624  1.00  0.00    -0.201 OA 
ENDROOT
BRANCH   2   3
HETATM    3  C   UNL     1     -10.239   7.582  70.369  1.00  0.00    -0.202 A  
HETATM    4  C   UNL     1     -10.701   8.868  70.038  1.00  0.00    -0.241 A  
HETATM    5  C   UNL     1     -10.637   9.380  68.752  1.00  0.00    -0.208 A  
HETATM    6  C   UNL     1     -10.035   8.610  67.767  1.00  0.00    -0.240 A  
HETATM    7  C   UNL     1      -9.457   7.363  68.106  1.00  0.00    -0.141 A  
HETATM    8  C   UNL     1     -10.075   9.169  66.491  1.00  0.00    -0.287 A  
HETATM    9  N   UNL     1      -9.460   8.550  65.397  1.00  0.00    -0.412 NA 
HETATM   10  N   UNL     1     -10.677  10.334  66.220  1.00  0.00    -0.067 NA 
HETATM   11  C   UNL     1      -9.564   6.834  69.398  1.00  0.00    -0.146 A  
HETATM   12  N   UNL     1     -11.179  10.575  68.507  1.00  0.00    -0.273 NA 
HETATM   13  H2  UNL     1      -9.821   7.598  65.333  1.00  0.00     0.000 HD 
HETATM   14  C   UNL     1     -11.215  11.013  67.242  1.00  0.00    -0.258 A  
HETATM   15  H1  UNL     1      -9.490   8.960  64.464  1.00  0.00     0.000 HD 
BRANCH  11  16
HETATM   16  O   UNL     1      -8.979   5.603  69.500  1.00  0.00    -0.117 OA 
HETATM   17  C   UNL     1      -9.778   4.438  69.374  1.00  0.00    -0.197 C  
ENDBRANCH  11  16
BRANCH  14  18
HETATM   18  N   UNL     1     -11.801  12.228  66.981  1.00  0.00    -0.574 NA 
HETATM   19  C   UNL     1     -12.253  12.525  65.640  1.00  0.00    -0.335 C  
BRANCH  18  20
HETATM   20  C   UNL     1     -12.124  13.136  68.070  1.00  0.00    -0.197 C  
BRANCH  20  21
HETATM   21  C   UNL     1     -11.890  14.600  67.675  1.00  0.00    -0.366 C  
BRANCH  21  22
HETATM   22  C   UNL     1     -10.452  15.052  67.931  1.00  0.00    -0.247 C  
BRANCH  22  23
HETATM   23  N   UNL     1     -10.249  16.444  67.589  1.00  0.00    -0.265 N  
HETATM   24  C   UNL     1     -10.190  16.886  66.289  1.00  0.00    -0.329 C  
HETATM   25  H   UNL     1     -10.146  17.123  68.343  1.00  0.00     0.000 HD 
HETATM   26  O   UNL     1     -10.278  16.139  65.318  1.00  0.00    -0.520 OA 
BRANCH  24  27
HETATM   27  C   UNL     1     -10.001  18.402  66.144  1.00  0.00    -0.319 C  
HETATM   28  C   UNL     1     -10.611  19.120  67.333  1.00  0.00    -0.577 C  
HETATM   29  C   UNL     1      -9.901  20.446  67.305  1.00  0.00    -0.597 C  
HETATM   30  C   UNL     1      -8.518  20.069  66.814  1.00  0.00    -0.324 C  
HETATM   31  O   UNL     1      -8.635  18.841  66.079  1.00  0.00    -0.481 OA 
ENDBRANCH  24  27
ENDBRANCH  22  23
ENDBRANCH  21  22
ENDBRANCH  20  21
ENDBRANCH  18  20
ENDBRANCH  14  18
ENDBRANCH   2   3
TORSDOF 8
ENDMDL
MODEL       88
REMARK 921   NORMALIZED FREE ENERGY PREDICTED BY IDOCK:   -5.14 KCAL/MOL
REMARK 922        TOTAL FREE ENERGY PREDICTED BY IDOCK:   -9.09 KCAL/MOL
REMARK 923 INTER-LIGAND FREE ENERGY PREDICTED BY IDOCK:   -8.46 KCAL/MOL
REMARK 924 INTRA-LIGAND FREE ENERGY PREDICTED BY IDOCK:   -0.63 KCAL/MOL
REMARK 927      BINDING AFFINITY PREDICTED BY RF-SCORE:    0.00 PKD
ROOT
HETATM    1  C   UNL     1     -10.672  19.790  67.239  1.00  0.00    -0.403 C  
HETATM    2  O   UNL     1      -9.497  19.050  67.571  1.00  0.00    -0.297 OA 
ENDROOT
BRANCH   2   3
HETATM    3  C   UNL     1      -9.593  17.692  67.406  1.00  0.00    -0.267 A  
HETATM    4  C   UNL     1     -10.441  16.919  68.219  1.00  0.00    -0.352 A  
HETATM    5  C   UNL     1     -10.477  15.535  68.161  1.00  0.00    -0.259 A  
HETATM    6  C   UNL     1      -9.687  14.895  67.217  1.00  0.00    -0.228 A  
HETATM    7  C   UNL     1      -8.918  15.662  66.309  1.00  0.00    -0.377 A  
HETATM    8  C   UNL     1      -9.731  13.503  67.273  1.00  0.00    -0.236 A  
HETATM    9  N   UNL     1      -9.041  12.707  66.353  1.00  0.00    -0.398 NA 
HETATM   10  N   UNL     1     -10.444  12.829  68.186  1.00  0.00    -0.229 NA 
HETATM   11  C   UNL     1      -8.853  17.058  66.402  1.00  0.00    -0.278 A  
HETATM   12  N   UNL     1     -11.246  14.874  69.030  1.00  0.00    -0.250 NA 
HETATM   13  H2  UNL     1      -8.061  12.990  66.368  1.00  0.00     0.000 HD 
HETATM   14  C   UNL     1     -11.190  13.536  69.044  1.00  0.00    -0.269 A  
HETATM   15  H1  UNL     1      -9.074  11.689  66.395  1.00  0.00     0.000 HD 
BRANCH  11  16
HETATM   16  O   UNL     1      -8.021  17.598  65.463  1.00  0.00    -0.378 OA 
HETATM   17  C   UNL     1      -6.703  17.973  65.830  1.00  0.00    -0.288 C  
ENDBRANCH  11  16
BRANCH  14  18
HETATM   18  N   UNL     1     -11.955  12.854  69.959  1.00  0.00    -0.340 NA 
HETATM   19  C   UNL     1     -12.528  13.569  71.078  1.00  0.00    -0.369 C  
BRANCH  18  20
HETATM   20  C   UNL     1     -12.333  11.472  69.715  1.00  0.00    -0.155 C  
BRANCH  20  21
HETATM   21  C   UNL     1     -11.695  10.521  70.737  1.00  0.00    -0.454 C  
BRANCH  21  22
HETATM   22  C   UNL     1     -12.678   9.469  71.249  1.00  0.00    -0.332 C  
BRANCH  22  23
HETATM   23  N   UNL     1     -12.237   8.122  70.954  1.00  0.00    -0.489 N  
HETATM   24  C   UNL     1     -11.621   7.323  71.888  1.00  0.00    -0.277 C  
HETATM   25  H   UNL     1     -12.390   7.751  70.016  1.00  0.00     0.000 HD 
HETATM   26  O   UNL     1     -11.372   7.693  73.032  1.00  0.00    -0.372 OA 
BRANCH  24  27
HETATM   27  C   UNL     1     -11.262   5.919  71.382  1.00  0.00    -0.218 C  
HETATM   28  C   UNL     1     -10.348   6.018  70.175  1.00  0.00    -0.284 C  
HETATM   29  C   UNL     1      -9.698   4.661  70.154  1.00  0.00    -0.285 C  
HETATM   30  C   UNL     1      -9.573   4.332  71.627  1.00  0.00    -0.161 C  
HETATM   31  O   UNL     1     -10.571   5.091  72.330  1.00  0.00    -0.211 OA 
ENDBRANCH  24  27
ENDBRANCH  22  23
ENDBRANCH  21  22
ENDBRANCH  20  21
ENDBRANCH  18  20
ENDBRANCH  14  18
ENDBRANCH   2   3
TORSDOF 8
ENDMDL
MODEL       89
REMARK 921   NORMALIZED FREE ENERGY PREDICTED BY IDOCK:   -5.13 KCAL/MOL
REMARK 922        TOTAL FREE ENERGY PREDICTED BY IDOCK:   -9.07 KCAL/MOL
REMARK 923 INTER-LIGAND FREE ENERGY PREDICTED BY IDOCK:   -8.34 KCAL/MOL
REMARK 924 INTRA-LIGAND FREE ENERGY PREDICTED BY IDOCK:   -0.73 KCAL/MOL
REMARK 927      BINDING AFFINITY PREDICTED BY RF-SCORE:    0.00 PKD
ROOT
HETATM    1  C   UNL     1     -10.164  20.516  67.513  1.00  0.00    -0.197 C  
HETATM    2  O   UNL     1      -9.847  19.900  66.265  1.00  0.00    -0.404 OA 
ENDROOT
BRANCH   2   3
HETATM    3  C   UNL     1      -9.361  18.620  66.350  1.00  0.00    -0.297 A  
HETATM    4  C   UNL     1     -10.225  17.511  66.322  1.00  0.00    -0.356 A  
HETATM    5  C   UNL     1      -9.784  16.213  66.523  1.00  0.00    -0.263 A  
HETATM    6  C   UNL     1      -8.425  15.999  66.700  1.00  0.00    -0.323 A  
HETATM    7  C   UNL     1      -7.526  17.089  66.612  1.00  0.00    -0.300 A  
HETATM    8  C   UNL     1      -8.077  14.676  66.965  1.00  0.00    -0.120 A  
HETATM    9  N   UNL     1      -6.743  14.280  67.108  1.00  0.00    -0.365 NA 
HETATM   10  N   UNL     1      -8.977  13.691  67.082  1.00  0.00    -0.223 NA 
HETATM   11  C   UNL     1      -7.983  18.403  66.451  1.00  0.00    -0.262 A  
HETATM   12  N   UNL     1     -10.684  15.228  66.568  1.00  0.00    -0.308 NA 
HETATM   13  H2  UNL     1      -6.318  14.866  67.827  1.00  0.00     0.000 HD 
HETATM   14  C   UNL     1     -10.266  13.993  66.877  1.00  0.00    -0.260 A  
HETATM   15  H1  UNL     1      -6.489  13.312  67.302  1.00  0.00     0.000 HD 
BRANCH  11  16
HETATM   16  O   UNL     1      -6.957  19.306  66.437  1.00  0.00    -0.202 OA 
HETATM   17  C   UNL     1      -6.302  19.600  65.213  1.00  0.00    -0.263 C  
ENDBRANCH  11  16
BRANCH  14  18
HETATM   18  N   UNL     1     -11.194  12.983  66.956  1.00  0.00    -0.278 NA 
HETATM   19  C   UNL     1     -11.779  12.462  65.740  1.00  0.00    -0.414 C  
BRANCH  18  20
HETATM   20  C   UNL     1     -11.456  12.323  68.224  1.00  0.00    -0.315 C  
BRANCH  20  21
HETATM   21  C   UNL     1     -11.892  13.324  69.303  1.00  0.00    -0.383 C  
BRANCH  21  22
HETATM   22  C   UNL     1     -12.274  12.639  70.615  1.00  0.00    -0.285 C  
BRANCH  22  23
HETATM   23  N   UNL     1     -11.678  11.325  70.738  1.00  0.00    -0.393 N  
HETATM   24  C   UNL     1     -12.420  10.197  70.998  1.00  0.00    -0.375 C  
HETATM   25  H   UNL     1     -10.668  11.233  70.627  1.00  0.00     0.000 HD 
HETATM   26  O   UNL     1     -13.635  10.215  71.172  1.00  0.00    -0.284 OA 
BRANCH  24  27
HETATM   27  C   UNL     1     -11.601   8.901  71.057  1.00  0.00    -0.293 C  
HETATM   28  C   UNL     1     -12.528   7.700  71.108  1.00  0.00    -0.273 C  
HETATM   29  C   UNL     1     -11.633   6.587  70.636  1.00  0.00    -0.442 C  
HETATM   30  C   UNL     1     -10.754   7.279  69.615  1.00  0.00    -0.236 C  
HETATM   31  O   UNL     1     -10.732   8.679  69.935  1.00  0.00    -0.227 OA 
ENDBRANCH  24  27
ENDBRANCH  22  23
ENDBRANCH  21  22
ENDBRANCH  20  21
ENDBRANCH  18  20
ENDBRANCH  14  18
ENDBRANCH   2   3
TORSDOF 8
ENDMDL
MODEL       90
REMARK 921   NORMALIZED FREE ENERGY PREDICTED BY IDOCK:   -5.11 KCAL/MOL
REMARK 922        TOTAL FREE ENERGY PREDICTED BY IDOCK:   -9.04 KCAL/MOL
REMARK 923 INTER-LIGAND FREE ENERGY PREDICTED BY IDOCK:   -8.19 KCAL/MOL
REMARK 924 INTRA-LIGAND FREE ENERGY PREDICTED BY IDOCK:   -0.85 KCAL/MOL
REMARK 927      BINDING AFFINITY PREDICTED BY RF-SCORE:    0.00 PKD
ROOT
HETATM    1  C   UNL     1      -7.095   6.025  69.898  1.00  0.00    -0.072 C  
HETATM    2  O   UNL     1      -8.159   6.092  70.847  1.00  0.00    -0.116 OA 
ENDROOT
BRANCH   2   3
HETATM    3  C   UNL     1      -9.063   7.102  70.643  1.00  0.00    -0.158 A  
HETATM    4  C   UNL     1      -9.202   7.710  69.383  1.00  0.00    -0.149 A  
HETATM    5  C   UNL     1     -10.017   8.810  69.167  1.00  0.00    -0.191 A  
HETATM    6  C   UNL     1     -10.773   9.288  70.228  1.00  0.00    -0.284 A  
HETATM    7  C   UNL     1     -10.737   8.615  71.474  1.00  0.00    -0.352 A  
HETATM    8  C   UNL     1     -11.510  10.436  69.943  1.00  0.00    -0.297 A  
HETATM    9  N   UNL     1     -12.371  11.010  70.885  1.00  0.00    -0.381 NA 
HETATM   10  N   UNL     1     -11.469  11.057  68.757  1.00  0.00    -0.279 NA 
HETATM   11  C   UNL     1      -9.879   7.532  71.696  1.00  0.00    -0.161 A  
HETATM   12  N   UNL     1     -10.023   9.380  67.960  1.00  0.00    -0.168 NA 
HETATM   13  H2  UNL     1     -11.833  11.186  71.733  1.00  0.00     0.000 HD 
HETATM   14  C   UNL     1     -10.724  10.508  67.789  1.00  0.00    -0.272 A  
HETATM   15  H1  UNL     1     -12.910  11.850  70.675  1.00  0.00     0.000 HD 
BRANCH  11  16
HETATM   16  O   UNL     1      -9.968   7.059  72.975  1.00  0.00    -0.170 OA 
HETATM   17  C   UNL     1      -8.995   7.448  73.932  1.00  0.00    -0.236 C  
ENDBRANCH  11  16
BRANCH  14  18
HETATM   18  N   UNL     1     -10.706  11.116  66.556  1.00  0.00    -0.267 NA 
HETATM   19  C   UNL     1      -9.783  10.644  65.547  1.00  0.00    -0.237 C  
BRANCH  18  20
HETATM   20  C   UNL     1     -11.717  12.100  66.208  1.00  0.00    -0.320 C  
BRANCH  20  21
HETATM   21  C   UNL     1     -11.941  12.169  64.691  1.00  0.00    -0.398 C  
BRANCH  21  22
HETATM   22  C   UNL     1     -11.561  13.529  64.105  1.00  0.00    -0.376 C  
BRANCH  22  23
HETATM   23  N   UNL     1     -10.930  14.387  65.086  1.00  0.00    -0.350 N  
HETATM   24  C   UNL     1     -10.963  15.759  64.998  1.00  0.00    -0.417 C  
HETATM   25  H   UNL     1     -10.441  13.958  65.871  1.00  0.00     0.000 HD 
HETATM   26  O   UNL     1     -11.503  16.363  64.076  1.00  0.00    -1.048 OA 
BRANCH  24  27
HETATM   27  C   UNL     1     -10.261  16.483  66.155  1.00  0.00    -0.346 C  
HETATM   28  C   UNL     1     -10.216  15.589  67.380  1.00  0.00    -0.255 C  
HETATM   29  C   UNL     1      -9.092  16.194  68.176  1.00  0.00    -0.189 C  
HETATM   30  C   UNL     1      -8.138  16.663  67.098  1.00  0.00    -0.182 C  
HETATM   31  O   UNL     1      -8.900  16.864  65.897  1.00  0.00    -0.516 OA 
ENDBRANCH  24  27
ENDBRANCH  22  23
ENDBRANCH  21  22
ENDBRANCH  20  21
ENDBRANCH  18  20
ENDBRANCH  14  18
ENDBRANCH   2   3
TORSDOF 8
ENDMDL
MODEL       91
REMARK 921   NORMALIZED FREE ENERGY PREDICTED BY IDOCK:   -5.10 KCAL/MOL
REMARK 922        TOTAL FREE ENERGY PREDICTED BY IDOCK:   -9.03 KCAL/MOL
REMARK 923 INTER-LIGAND FREE ENERGY PREDICTED BY IDOCK:   -7.99 KCAL/MOL
REMARK 924 INTRA-LIGAND FREE ENERGY PREDICTED BY IDOCK:   -1.04 KCAL/MOL
REMARK 927      BINDING AFFINITY PREDICTED BY RF-SCORE:    0.00 PKD
ROOT
HETATM    1  C   UNL     1     -13.787   7.238  71.426  1.00  0.00    -0.304 C  
HETATM    2  O   UNL     1     -13.397   8.559  71.800  1.00  0.00    -0.340 OA 
ENDROOT
BRANCH   2   3
HETATM    3  C   UNL     1     -12.102   8.894  71.502  1.00  0.00    -0.330 A  
HETATM    4  C   UNL     1     -11.799   9.724  70.408  1.00  0.00    -0.264 A  
HETATM    5  C   UNL     1     -10.500   9.989  70.005  1.00  0.00    -0.287 A  
HETATM    6  C   UNL     1      -9.458   9.459  70.753  1.00  0.00    -0.307 A  
HETATM    7  C   UNL     1      -9.742   8.720  71.927  1.00  0.00    -0.386 A  
HETATM    8  C   UNL     1      -8.188   9.716  70.239  1.00  0.00    -0.191 A  
HETATM    9  N   UNL     1      -7.028   9.305  70.905  1.00  0.00    -0.108 NA 
HETATM   10  N   UNL     1      -7.981  10.383  69.097  1.00  0.00    -0.130 NA 
HETATM   11  C   UNL     1     -11.056   8.421  72.303  1.00  0.00    -0.368 A  
HETATM   12  N   UNL     1     -10.303  10.716  68.903  1.00  0.00    -0.196 NA 
HETATM   13  H2  UNL     1      -7.101   8.301  71.070  1.00  0.00     0.000 HD 
HETATM   14  C   UNL     1      -9.050  10.872  68.455  1.00  0.00    -0.164 A  
HETATM   15  H1  UNL     1      -6.099   9.493  70.528  1.00  0.00     0.000 HD 
BRANCH  11  16
HETATM   16  O   UNL     1     -11.106   7.662  73.438  1.00  0.00    -0.337 OA 
HETATM   17  C   UNL     1      -9.982   6.877  73.803  1.00  0.00    -0.312 C  
ENDBRANCH  11  16
BRANCH  14  18
HETATM   18  N   UNL     1      -8.847  11.592  67.302  1.00  0.00    -0.159 NA 
HETATM   19  C   UNL     1      -9.154  10.988  66.025  1.00  0.00    -0.195 C  
BRANCH  18  20
HETATM   20  C   UNL     1      -8.497  13.001  67.370  1.00  0.00    -0.200 C  
BRANCH  20  21
HETATM   21  C   UNL     1      -9.050  13.662  68.640  1.00  0.00    -0.035 C  
BRANCH  21  22
HETATM   22  C   UNL     1     -10.286  14.517  68.363  1.00  0.00    -0.241 C  
BRANCH  22  23
HETATM   23  N   UNL     1     -10.776  14.345  67.011  1.00  0.00    -0.282 N  
HETATM   24  C   UNL     1     -11.850  13.541  66.710  1.00  0.00    -0.406 C  
HETATM   25  H   UNL     1     -10.307  14.840  66.253  1.00  0.00     0.000 HD 
HETATM   26  O   UNL     1     -12.460  12.888  67.551  1.00  0.00    -0.139 OA 
BRANCH  24  27
HETATM   27  C   UNL     1     -12.228  13.521  65.223  1.00  0.00    -0.441 C  
HETATM   28  C   UNL     1     -10.987  13.327  64.372  1.00  0.00    -0.413 C  
HETATM   29  C   UNL     1     -11.563  12.812  63.080  1.00  0.00    -0.182 C  
HETATM   30  C   UNL     1     -12.739  11.981  63.550  1.00  0.00    -0.443 C  
HETATM   31  O   UNL     1     -13.135  12.475  64.840  1.00  0.00    -0.833 OA 
ENDBRANCH  24  27
ENDBRANCH  22  23
ENDBRANCH  21  22
ENDBRANCH  20  21
ENDBRANCH  18  20
ENDBRANCH  14  18
ENDBRANCH   2   3
TORSDOF 8
ENDMDL
MODEL       92
REMARK 921   NORMALIZED FREE ENERGY PREDICTED BY IDOCK:   -5.08 KCAL/MOL
REMARK 922        TOTAL FREE ENERGY PREDICTED BY IDOCK:   -9.00 KCAL/MOL
REMARK 923 INTER-LIGAND FREE ENERGY PREDICTED BY IDOCK:   -8.10 KCAL/MOL
REMARK 924 INTRA-LIGAND FREE ENERGY PREDICTED BY IDOCK:   -0.90 KCAL/MOL
REMARK 927      BINDING AFFINITY PREDICTED BY RF-SCORE:    0.00 PKD
ROOT
HETATM    1  C   UNL     1     -10.498  20.164  65.883  1.00  0.00    -0.321 C  
HETATM    2  O   UNL     1      -9.103  19.883  66.004  1.00  0.00    -0.374 OA 
ENDROOT
BRANCH   2   3
HETATM    3  C   UNL     1      -8.790  18.568  66.236  1.00  0.00    -0.207 A  
HETATM    4  C   UNL     1      -9.789  17.621  66.518  1.00  0.00    -0.323 A  
HETATM    5  C   UNL     1      -9.503  16.312  66.872  1.00  0.00    -0.230 A  
HETATM    6  C   UNL     1      -8.175  15.910  66.887  1.00  0.00    -0.283 A  
HETATM    7  C   UNL     1      -7.163  16.817  66.490  1.00  0.00    -0.278 A  
HETATM    8  C   UNL     1      -7.971  14.601  67.321  1.00  0.00    -0.197 A  
HETATM    9  N   UNL     1      -6.699  14.021  67.338  1.00  0.00    -0.379 NA 
HETATM   10  N   UNL     1      -8.966  13.802  67.729  1.00  0.00    -0.183 NA 
HETATM   11  C   UNL     1      -7.456  18.149  66.175  1.00  0.00    -0.262 A  
HETATM   12  N   UNL     1     -10.508  15.501  67.210  1.00  0.00    -0.273 NA 
HETATM   13  H2  UNL     1      -6.085  14.629  67.880  1.00  0.00     0.000 HD 
HETATM   14  C   UNL     1     -10.217  14.274  67.660  1.00  0.00    -0.237 A  
HETATM   15  H1  UNL     1      -6.551  13.063  67.655  1.00  0.00     0.000 HD 
BRANCH  11  16
HETATM   16  O   UNL     1      -6.333  18.863  65.864  1.00  0.00    -0.188 OA 
HETATM   17  C   UNL     1      -5.517  19.371  66.907  1.00  0.00    -0.163 C  
ENDBRANCH  11  16
BRANCH  14  18
HETATM   18  N   UNL     1     -11.248  13.449  68.039  1.00  0.00    -0.256 NA 
HETATM   19  C   UNL     1     -11.803  13.572  69.369  1.00  0.00    -0.335 C  
BRANCH  18  20
HETATM   20  C   UNL     1     -11.893  12.585  67.064  1.00  0.00    -0.323 C  
BRANCH  20  21
HETATM   21  C   UNL     1     -10.889  11.637  66.396  1.00  0.00    -0.333 C  
BRANCH  21  22
HETATM   22  C   UNL     1     -10.938  10.226  66.981  1.00  0.00    -0.119 C  
BRANCH  22  23
HETATM   23  N   UNL     1     -11.305  10.229  68.382  1.00  0.00    -0.494 N  
HETATM   24  C   UNL     1     -10.540   9.620  69.348  1.00  0.00    -0.225 C  
HETATM   25  H   UNL     1     -12.164  10.702  68.662  1.00  0.00     0.000 HD 
HETATM   26  O   UNL     1      -9.506   9.005  69.102  1.00  0.00    -0.151 OA 
BRANCH  24  27
HETATM   27  C   UNL     1     -11.088   9.767  70.774  1.00  0.00    -0.345 C  
HETATM   28  C   UNL     1     -12.502  10.317  70.736  1.00  0.00    -0.439 C  
HETATM   29  C   UNL     1     -13.042   9.902  72.077  1.00  0.00    -0.545 C  
HETATM   30  C   UNL     1     -12.368   8.566  72.307  1.00  0.00    -0.387 C  
HETATM   31  O   UNL     1     -11.163   8.545  71.525  1.00  0.00    -0.248 OA 
ENDBRANCH  24  27
ENDBRANCH  22  23
ENDBRANCH  21  22
ENDBRANCH  20  21
ENDBRANCH  18  20
ENDBRANCH  14  18
ENDBRANCH   2   3
TORSDOF 8
ENDMDL
MODEL       93
REMARK 921   NORMALIZED FREE ENERGY PREDICTED BY IDOCK:   -5.08 KCAL/MOL
REMARK 922        TOTAL FREE ENERGY PREDICTED BY IDOCK:   -8.99 KCAL/MOL
REMARK 923 INTER-LIGAND FREE ENERGY PREDICTED BY IDOCK:   -7.38 KCAL/MOL
REMARK 924 INTRA-LIGAND FREE ENERGY PREDICTED BY IDOCK:   -1.61 KCAL/MOL
REMARK 927      BINDING AFFINITY PREDICTED BY RF-SCORE:    0.00 PKD
ROOT
HETATM    1  C   UNL     1      -9.157   8.090  73.100  1.00  0.00    -0.275 C  
HETATM    2  O   UNL     1     -10.272   8.464  72.291  1.00  0.00    -0.278 OA 
ENDROOT
BRANCH   2   3
HETATM    3  C   UNL     1     -10.273   7.948  71.021  1.00  0.00    -0.197 A  
HETATM    4  C   UNL     1      -9.325   8.360  70.068  1.00  0.00    -0.159 A  
HETATM    5  C   UNL     1      -9.366   7.951  68.744  1.00  0.00    -0.146 A  
HETATM    6  C   UNL     1     -10.350   7.050  68.364  1.00  0.00    -0.216 A  
HETATM    7  C   UNL     1     -11.240   6.532  69.336  1.00  0.00    -0.418 A  
HETATM    8  C   UNL     1     -10.363   6.746  67.004  1.00  0.00    -0.268 A  
HETATM    9  N   UNL     1     -11.252   5.809  66.467  1.00  0.00    -0.717 NA 
HETATM   10  N   UNL     1      -9.523   7.304  66.121  1.00  0.00    -0.068 NA 
HETATM   11  C   UNL     1     -11.219   6.982  70.661  1.00  0.00    -0.288 A  
HETATM   12  N   UNL     1      -8.480   8.460  67.886  1.00  0.00    -0.130 NA 
HETATM   13  H2  UNL     1     -12.197   6.086  66.735  1.00  0.00     0.000 HD 
HETATM   14  C   UNL     1      -8.596   8.150  66.588  1.00  0.00    -0.135 A  
HETATM   15  H1  UNL     1     -11.260   5.587  65.472  1.00  0.00     0.000 HD 
BRANCH  11  16
HETATM   16  O   UNL     1     -12.188   6.389  71.421  1.00  0.00    -0.292 OA 
HETATM   17  C   UNL     1     -13.461   7.005  71.535  1.00  0.00    -0.277 C  
ENDBRANCH  11  16
BRANCH  14  18
HETATM   18  N   UNL     1      -7.704   8.697  65.697  1.00  0.00    -0.089 NA 
HETATM   19  C   UNL     1      -6.744   7.839  65.037  1.00  0.00    -0.051 C  
BRANCH  18  20
HETATM   20  C   UNL     1      -7.834  10.085  65.287  1.00  0.00    -0.138 C  
BRANCH  20  21
HETATM   21  C   UNL     1      -8.877  10.251  64.173  1.00  0.00    -0.239 C  
BRANCH  21  22
HETATM   22  C   UNL     1     -10.149  10.943  64.663  1.00  0.00    -0.328 C  
BRANCH  22  23
HETATM   23  N   UNL     1     -10.239  10.959  66.108  1.00  0.00    -0.242 N  
HETATM   24  C   UNL     1     -11.249  11.607  66.779  1.00  0.00    -0.308 C  
HETATM   25  H   UNL     1      -9.526  10.470  66.649  1.00  0.00     0.000 HD 
HETATM   26  O   UNL     1     -12.135  12.242  66.215  1.00  0.00    -0.626 OA 
BRANCH  24  27
HETATM   27  C   UNL     1     -11.180  11.475  68.307  1.00  0.00    -0.261 C  
HETATM   28  C   UNL     1     -11.724  12.730  68.964  1.00  0.00    -0.371 C  
HETATM   29  C   UNL     1     -12.071  12.243  70.344  1.00  0.00    -0.385 C  
HETATM   30  C   UNL     1     -12.535  10.824  70.087  1.00  0.00    -0.285 C  
HETATM   31  O   UNL     1     -11.935  10.385  68.858  1.00  0.00    -0.190 OA 
ENDBRANCH  24  27
ENDBRANCH  22  23
ENDBRANCH  21  22
ENDBRANCH  20  21
ENDBRANCH  18  20
ENDBRANCH  14  18
ENDBRANCH   2   3
TORSDOF 8
ENDMDL
MODEL       94
REMARK 921   NORMALIZED FREE ENERGY PREDICTED BY IDOCK:   -5.04 KCAL/MOL
REMARK 922        TOTAL FREE ENERGY PREDICTED BY IDOCK:   -8.94 KCAL/MOL
REMARK 923 INTER-LIGAND FREE ENERGY PREDICTED BY IDOCK:   -8.17 KCAL/MOL
REMARK 924 INTRA-LIGAND FREE ENERGY PREDICTED BY IDOCK:   -0.76 KCAL/MOL
REMARK 927      BINDING AFFINITY PREDICTED BY RF-SCORE:    0.00 PKD
ROOT
HETATM    1  C   UNL     1     -10.548  20.080  65.811  1.00  0.00    -0.323 C  
HETATM    2  O   UNL     1      -9.377  20.019  66.626  1.00  0.00    -0.358 OA 
ENDROOT
BRANCH   2   3
HETATM    3  C   UNL     1      -9.041  18.768  67.075  1.00  0.00    -0.291 A  
HETATM    4  C   UNL     1      -9.459  17.613  66.391  1.00  0.00    -0.274 A  
HETATM    5  C   UNL     1      -9.241  16.333  66.877  1.00  0.00    -0.218 A  
HETATM    6  C   UNL     1      -8.525  16.191  68.057  1.00  0.00    -0.168 A  
HETATM    7  C   UNL     1      -7.993  17.336  68.698  1.00  0.00    -0.267 A  
HETATM    8  C   UNL     1      -8.412  14.878  68.510  1.00  0.00    -0.163 A  
HETATM    9  N   UNL     1      -7.671  14.555  69.652  1.00  0.00    -0.384 NA 
HETATM   10  N   UNL     1      -8.977  13.836  67.886  1.00  0.00    -0.183 NA 
HETATM   11  C   UNL     1      -8.255  18.627  68.224  1.00  0.00    -0.323 A  
HETATM   12  N   UNL     1      -9.749  15.295  66.209  1.00  0.00    -0.277 NA 
HETATM   13  H2  UNL     1      -8.022  15.122  70.424  1.00  0.00     0.000 HD 
HETATM   14  C   UNL     1      -9.633  14.072  66.742  1.00  0.00    -0.286 A  
HETATM   15  H1  UNL     1      -7.588  13.594  69.983  1.00  0.00     0.000 HD 
BRANCH  11  16
HETATM   16  O   UNL     1      -7.687  19.589  69.012  1.00  0.00    -0.362 OA 
HETATM   17  C   UNL     1      -6.448  20.164  68.628  1.00  0.00    -0.306 C  
ENDBRANCH  11  16
BRANCH  14  18
HETATM   18  N   UNL     1     -10.182  13.006  66.073  1.00  0.00    -0.282 NA 
HETATM   19  C   UNL     1     -10.485  13.133  64.664  1.00  0.00    -0.392 C  
BRANCH  18  20
HETATM   20  C   UNL     1     -10.296  11.711  66.723  1.00  0.00    -0.222 C  
BRANCH  20  21
HETATM   21  C   UNL     1     -11.687  11.507  67.339  1.00  0.00    -0.231 C  
BRANCH  21  22
HETATM   22  C   UNL     1     -11.687  11.693  68.856  1.00  0.00    -0.334 C  
BRANCH  22  23
HETATM   23  N   UNL     1     -12.038  10.475  69.555  1.00  0.00    -0.515 N  
HETATM   24  C   UNL     1     -11.099   9.670  70.157  1.00  0.00    -0.269 C  
HETATM   25  H   UNL     1     -13.020  10.202  69.603  1.00  0.00     0.000 HD 
HETATM   26  O   UNL     1      -9.895   9.903  70.129  1.00  0.00    -0.247 OA 
BRANCH  24  27
HETATM   27  C   UNL     1     -11.682   8.443  70.871  1.00  0.00    -0.246 C  
HETATM   28  C   UNL     1     -10.982   7.183  70.398  1.00  0.00    -0.290 C  
HETATM   29  C   UNL     1     -11.267   6.220  71.518  1.00  0.00    -0.344 C  
HETATM   30  C   UNL     1     -11.252   7.117  72.739  1.00  0.00    -0.275 C  
HETATM   31  O   UNL     1     -11.549   8.453  72.301  1.00  0.00    -0.341 OA 
ENDBRANCH  24  27
ENDBRANCH  22  23
ENDBRANCH  21  22
ENDBRANCH  20  21
ENDBRANCH  18  20
ENDBRANCH  14  18
ENDBRANCH   2   3
TORSDOF 8
ENDMDL
MODEL       95
REMARK 921   NORMALIZED FREE ENERGY PREDICTED BY IDOCK:   -5.04 KCAL/MOL
REMARK 922        TOTAL FREE ENERGY PREDICTED BY IDOCK:   -8.94 KCAL/MOL
REMARK 923 INTER-LIGAND FREE ENERGY PREDICTED BY IDOCK:   -6.91 KCAL/MOL
REMARK 924 INTRA-LIGAND FREE ENERGY PREDICTED BY IDOCK:   -2.03 KCAL/MOL
REMARK 927      BINDING AFFINITY PREDICTED BY RF-SCORE:    0.00 PKD
ROOT
HETATM    1  C   UNL     1     -11.971  13.277  63.640  1.00  0.00    -0.486 C  
HETATM    2  O   UNL     1     -12.092  13.269  65.063  1.00  0.00    -0.365 OA 
ENDROOT
BRANCH   2   3
HETATM    3  C   UNL     1     -10.916  13.417  65.751  1.00  0.00    -0.277 A  
HETATM    4  C   UNL     1     -10.287  14.670  65.855  1.00  0.00    -0.334 A  
HETATM    5  C   UNL     1      -9.042  14.837  66.440  1.00  0.00    -0.233 A  
HETATM    6  C   UNL     1      -8.423  13.728  66.999  1.00  0.00    -0.150 A  
HETATM    7  C   UNL     1      -9.094  12.481  67.010  1.00  0.00    -0.213 A  
HETATM    8  C   UNL     1      -7.146  13.970  67.503  1.00  0.00    -0.160 A  
HETATM    9  N   UNL     1      -6.411  12.974  68.154  1.00  0.00    -0.088 NA 
HETATM   10  N   UNL     1      -6.541  15.163  67.423  1.00  0.00    -0.290 NA 
HETATM   11  C   UNL     1     -10.332  12.311  66.380  1.00  0.00    -0.225 A  
HETATM   12  N   UNL     1      -8.477  16.046  66.417  1.00  0.00    -0.315 NA 
HETATM   13  H2  UNL     1      -6.353  12.169  67.530  1.00  0.00     0.000 HD 
HETATM   14  C   UNL     1      -7.227  16.178  66.881  1.00  0.00    -0.205 A  
HETATM   15  H1  UNL     1      -5.477  13.152  68.522  1.00  0.00     0.000 HD 
BRANCH  11  16
HETATM   16  O   UNL     1     -10.782  11.024  66.469  1.00  0.00    -0.261 OA 
HETATM   17  C   UNL     1     -11.041  10.461  67.746  1.00  0.00    -0.299 C  
ENDBRANCH  11  16
BRANCH  14  18
HETATM   18  N   UNL     1      -6.631  17.415  66.830  1.00  0.00    -0.188 NA 
HETATM   19  C   UNL     1      -6.219  17.951  65.551  1.00  0.00    -0.117 C  
BRANCH  18  20
HETATM   20  C   UNL     1      -6.574  18.252  68.017  1.00  0.00    -0.202 C  
BRANCH  20  21
HETATM   21  C   UNL     1      -7.197  19.632  67.767  1.00  0.00    -0.302 C  
BRANCH  21  22
HETATM   22  C   UNL     1      -8.724  19.606  67.842  1.00  0.00    -0.324 C  
BRANCH  22  23
HETATM   23  N   UNL     1      -9.208  18.570  68.729  1.00  0.00    -0.300 N  
HETATM   24  C   UNL     1     -10.317  17.809  68.442  1.00  0.00    -0.376 C  
HETATM   25  H   UNL     1      -8.708  18.396  69.601  1.00  0.00     0.000 HD 
HETATM   26  O   UNL     1     -10.997  17.963  67.432  1.00  0.00    -0.281 OA 
BRANCH  24  27
HETATM   27  C   UNL     1     -10.644  16.743  69.497  1.00  0.00    -0.283 C  
HETATM   28  C   UNL     1     -11.860  15.942  69.070  1.00  0.00    -0.328 C  
HETATM   29  C   UNL     1     -11.713  14.683  69.879  1.00  0.00    -0.349 C  
HETATM   30  C   UNL     1     -10.211  14.495  69.929  1.00  0.00     0.307 C  
HETATM   31  O   UNL     1      -9.603  15.781  69.731  1.00  0.00    -0.265 OA 
ENDBRANCH  24  27
ENDBRANCH  22  23
ENDBRANCH  21  22
ENDBRANCH  20  21
ENDBRANCH  18  20
ENDBRANCH  14  18
ENDBRANCH   2   3
TORSDOF 8
ENDMDL
MODEL       96
REMARK 921   NORMALIZED FREE ENERGY PREDICTED BY IDOCK:   -5.04 KCAL/MOL
REMARK 922        TOTAL FREE ENERGY PREDICTED BY IDOCK:   -8.93 KCAL/MOL
REMARK 923 INTER-LIGAND FREE ENERGY PREDICTED BY IDOCK:   -8.34 KCAL/MOL
REMARK 924 INTRA-LIGAND FREE ENERGY PREDICTED BY IDOCK:   -0.59 KCAL/MOL
REMARK 927      BINDING AFFINITY PREDICTED BY RF-SCORE:    0.00 PKD
ROOT
HETATM    1  C   UNL     1      -8.398   5.810  65.054  1.00  0.00    -0.138 C  
HETATM    2  O   UNL     1      -9.375   4.853  65.462  1.00  0.00    -0.158 OA 
ENDROOT
BRANCH   2   3
HETATM    3  C   UNL     1      -9.581   4.765  66.814  1.00  0.00    -0.173 A  
HETATM    4  C   UNL     1     -10.491   5.614  67.468  1.00  0.00    -0.294 A  
HETATM    5  C   UNL     1     -10.640   5.635  68.846  1.00  0.00    -0.233 A  
HETATM    6  C   UNL     1      -9.900   4.737  69.601  1.00  0.00    -0.292 A  
HETATM    7  C   UNL     1      -9.067   3.794  68.953  1.00  0.00    -0.201 A  
HETATM    8  C   UNL     1     -10.057   4.874  70.980  1.00  0.00    -0.218 A  
HETATM    9  N   UNL     1      -9.430   4.007  71.881  1.00  0.00    -0.130 NA 
HETATM   10  N   UNL     1     -10.825   5.817  71.539  1.00  0.00    -0.258 NA 
HETATM   11  C   UNL     1      -8.891   3.806  67.564  1.00  0.00    -0.122 A  
HETATM   12  N   UNL     1     -11.462   6.535  69.391  1.00  0.00    -0.336 NA 
HETATM   13  H2  UNL     1      -8.430   4.014  71.678  1.00  0.00     0.000 HD 
HETATM   14  C   UNL     1     -11.515   6.627  70.726  1.00  0.00    -0.353 A  
HETATM   15  H1  UNL     1      -9.545   4.107  72.889  1.00  0.00     0.000 HD 
BRANCH  11  16
HETATM   16  O   UNL     1      -8.013   2.844  67.149  1.00  0.00    -0.074 OA 
HETATM   17  C   UNL     1      -6.714   2.792  67.716  1.00  0.00    -0.040 C  
ENDBRANCH  11  16
BRANCH  14  18
HETATM   18  N   UNL     1     -12.337   7.573  71.290  1.00  0.00    -0.329 NA 
HETATM   19  C   UNL     1     -13.729   7.256  71.519  1.00  0.00    -0.351 C  
BRANCH  18  20
HETATM   20  C   UNL     1     -11.782   8.811  71.812  1.00  0.00    -0.346 C  
BRANCH  20  21
HETATM   21  C   UNL     1     -12.826   9.935  71.833  1.00  0.00    -0.524 C  
BRANCH  21  22
HETATM   22  C   UNL     1     -12.512  11.042  70.826  1.00  0.00    -0.396 C  
BRANCH  22  23
HETATM   23  N   UNL     1     -12.736  12.361  71.380  1.00  0.00    -0.312 N  
HETATM   24  C   UNL     1     -12.476  13.513  70.676  1.00  0.00    -0.333 C  
HETATM   25  H   UNL     1     -13.100  12.439  72.329  1.00  0.00     0.000 HD 
HETATM   26  O   UNL     1     -12.013  13.519  69.539  1.00  0.00    -0.311 OA 
BRANCH  24  27
HETATM   27  C   UNL     1     -12.812  14.806  71.431  1.00  0.00    -0.336 C  
HETATM   28  C   UNL     1     -13.272  14.482  72.841  1.00  0.00    -0.612 C  
HETATM   29  C   UNL     1     -13.041  15.784  73.559  1.00  0.00    -0.665 C  
HETATM   30  C   UNL     1     -11.795  16.318  72.884  1.00  0.00    -0.433 C  
HETATM   31  O   UNL     1     -11.718  15.726  71.577  1.00  0.00    -0.371 OA 
ENDBRANCH  24  27
ENDBRANCH  22  23
ENDBRANCH  21  22
ENDBRANCH  20  21
ENDBRANCH  18  20
ENDBRANCH  14  18
ENDBRANCH   2   3
TORSDOF 8
ENDMDL
MODEL       97
REMARK 921   NORMALIZED FREE ENERGY PREDICTED BY IDOCK:   -5.03 KCAL/MOL
REMARK 922        TOTAL FREE ENERGY PREDICTED BY IDOCK:   -8.92 KCAL/MOL
REMARK 923 INTER-LIGAND FREE ENERGY PREDICTED BY IDOCK:   -8.33 KCAL/MOL
REMARK 924 INTRA-LIGAND FREE ENERGY PREDICTED BY IDOCK:   -0.60 KCAL/MOL
REMARK 927      BINDING AFFINITY PREDICTED BY RF-SCORE:    0.00 PKD
ROOT
HETATM    1  C   UNL     1     -14.385   8.531  72.024  1.00  0.00    -0.447 C  
HETATM    2  O   UNL     1     -12.973   8.372  72.172  1.00  0.00    -0.339 OA 
ENDROOT
BRANCH   2   3
HETATM    3  C   UNL     1     -12.208   9.128  71.322  1.00  0.00    -0.327 A  
HETATM    4  C   UNL     1     -12.376  10.521  71.235  1.00  0.00    -0.502 A  
HETATM    5  C   UNL     1     -11.705  11.301  70.306  1.00  0.00    -0.324 A  
HETATM    6  C   UNL     1     -10.786  10.684  69.470  1.00  0.00    -0.290 A  
HETATM    7  C   UNL     1     -10.515   9.303  69.623  1.00  0.00    -0.234 A  
HETATM    8  C   UNL     1     -10.209  11.527  68.522  1.00  0.00    -0.213 A  
HETATM    9  N   UNL     1      -9.218  11.077  67.643  1.00  0.00    -0.148 NA 
HETATM   10  N   UNL     1     -10.539  12.819  68.394  1.00  0.00    -0.243 NA 
HETATM   11  C   UNL     1     -11.227   8.514  70.534  1.00  0.00    -0.242 A  
HETATM   12  N   UNL     1     -11.990  12.603  70.234  1.00  0.00    -0.333 NA 
HETATM   13  H2  UNL     1      -9.582  10.259  67.154  1.00  0.00     0.000 HD 
HETATM   14  C   UNL     1     -11.425  13.328  69.260  1.00  0.00    -0.288 A  
HETATM   15  H1  UNL     1      -8.797  11.694  66.950  1.00  0.00     0.000 HD 
BRANCH  11  16
HETATM   16  O   UNL     1     -10.842   7.203  70.490  1.00  0.00    -0.233 OA 
HETATM   17  C   UNL     1     -10.392   6.648  69.265  1.00  0.00    -0.200 C  
ENDBRANCH  11  16
BRANCH  14  18
HETATM   18  N   UNL     1     -11.740  14.662  69.162  1.00  0.00    -0.292 NA 
HETATM   19  C   UNL     1     -11.946  15.431  70.369  1.00  0.00    -0.354 C  
BRANCH  18  20
HETATM   20  C   UNL     1     -11.695  15.335  67.875  1.00  0.00    -0.217 C  
BRANCH  20  21
HETATM   21  C   UNL     1     -10.480  16.267  67.766  1.00  0.00    -0.295 C  
BRANCH  21  22
HETATM   22  C   UNL     1     -10.881  17.726  67.551  1.00  0.00    -0.211 C  
BRANCH  22  23
HETATM   23  N   UNL     1      -9.840  18.644  67.964  1.00  0.00    -0.325 N  
HETATM   24  C   UNL     1      -8.811  19.019  67.133  1.00  0.00    -0.288 C  
HETATM   25  H   UNL     1      -9.870  19.027  68.909  1.00  0.00     0.000 HD 
HETATM   26  O   UNL     1      -8.677  18.590  65.990  1.00  0.00    -0.497 OA 
BRANCH  24  27
HETATM   27  C   UNL     1      -7.831  20.024  67.753  1.00  0.00    -0.295 C  
HETATM   28  C   UNL     1      -7.194  19.432  68.996  1.00  0.00    -0.397 C  
HETATM   29  C   UNL     1      -5.949  20.265  69.144  1.00  0.00    -0.361 C  
HETATM   30  C   UNL     1      -5.557  20.533  67.706  1.00  0.00    -0.211 C  
HETATM   31  O   UNL     1      -6.742  20.415  66.902  1.00  0.00    -0.219 OA 
ENDBRANCH  24  27
ENDBRANCH  22  23
ENDBRANCH  21  22
ENDBRANCH  20  21
ENDBRANCH  18  20
ENDBRANCH  14  18
ENDBRANCH   2   3
TORSDOF 8
ENDMDL
MODEL       98
REMARK 921   NORMALIZED FREE ENERGY PREDICTED BY IDOCK:   -4.99 KCAL/MOL
REMARK 922        TOTAL FREE ENERGY PREDICTED BY IDOCK:   -8.87 KCAL/MOL
REMARK 923 INTER-LIGAND FREE ENERGY PREDICTED BY IDOCK:   -7.59 KCAL/MOL
REMARK 924 INTRA-LIGAND FREE ENERGY PREDICTED BY IDOCK:   -1.28 KCAL/MOL
REMARK 927      BINDING AFFINITY PREDICTED BY RF-SCORE:    0.00 PKD
ROOT
HETATM    1  C   UNL     1     -10.360  20.086  66.431  1.00  0.00    -0.455 C  
HETATM    2  O   UNL     1      -9.015  19.706  66.722  1.00  0.00    -0.319 OA 
ENDROOT
BRANCH   2   3
HETATM    3  C   UNL     1      -8.770  18.357  66.698  1.00  0.00    -0.286 A  
HETATM    4  C   UNL     1      -9.807  17.433  66.482  1.00  0.00    -0.310 A  
HETATM    5  C   UNL     1      -9.619  16.062  66.567  1.00  0.00    -0.261 A  
HETATM    6  C   UNL     1      -8.340  15.587  66.817  1.00  0.00    -0.301 A  
HETATM    7  C   UNL     1      -7.261  16.498  66.919  1.00  0.00    -0.263 A  
HETATM    8  C   UNL     1      -8.253  14.203  66.956  1.00  0.00    -0.071 A  
HETATM    9  N   UNL     1      -7.027  13.558  67.150  1.00  0.00    -0.414 NA 
HETATM   10  N   UNL     1      -9.318  13.393  66.895  1.00  0.00    -0.245 NA 
HETATM   11  C   UNL     1      -7.465  17.882  66.874  1.00  0.00    -0.200 A  
HETATM   12  N   UNL     1     -10.677  15.258  66.434  1.00  0.00    -0.314 NA 
HETATM   13  H2  UNL     1      -6.575  13.983  67.960  1.00  0.00     0.000 HD 
HETATM   14  C   UNL     1     -10.510  13.944  66.631  1.00  0.00    -0.272 A  
HETATM   15  H1  UNL     1      -6.964  12.546  67.251  1.00  0.00     0.000 HD 
BRANCH  11  16
HETATM   16  O   UNL     1      -6.301  18.580  67.038  1.00  0.00    -0.176 OA 
HETATM   17  C   UNL     1      -5.590  19.030  65.895  1.00  0.00    -0.153 C  
ENDBRANCH  11  16
BRANCH  14  18
HETATM   18  N   UNL     1     -11.603  13.117  66.527  1.00  0.00    -0.339 NA 
HETATM   19  C   UNL     1     -12.008  12.331  67.671  1.00  0.00    -0.148 C  
BRANCH  18  20
HETATM   20  C   UNL     1     -12.446  13.161  65.344  1.00  0.00    -0.481 C  
BRANCH  20  21
HETATM   21  C   UNL     1     -11.618  13.079  64.055  1.00  0.00    -0.487 C  
BRANCH  21  22
HETATM   22  C   UNL     1     -11.323  11.638  63.640  1.00  0.00    -0.394 C  
BRANCH  22  23
HETATM   23  N   UNL     1     -10.548  10.931  64.637  1.00  0.00    -0.313 N  
HETATM   24  C   UNL     1      -9.526  10.072  64.308  1.00  0.00    -0.273 C  
HETATM   25  H   UNL     1     -10.768  11.076  65.623  1.00  0.00     0.000 HD 
HETATM   26  O   UNL     1      -9.208   9.815  63.151  1.00  0.00    -0.265 OA 
BRANCH  24  27
HETATM   27  C   UNL     1      -8.810   9.449  65.514  1.00  0.00    -0.184 C  
HETATM   28  C   UNL     1      -9.580   9.744  66.788  1.00  0.00    -0.228 C  
HETATM   29  C   UNL     1      -9.079   8.674  67.719  1.00  0.00    -0.143 C  
HETATM   30  C   UNL     1      -8.864   7.499  66.788  1.00  0.00    -0.140 C  
HETATM   31  O   UNL     1      -8.665   8.021  65.464  1.00  0.00    -0.157 OA 
ENDBRANCH  24  27
ENDBRANCH  22  23
ENDBRANCH  21  22
ENDBRANCH  20  21
ENDBRANCH  18  20
ENDBRANCH  14  18
ENDBRANCH   2   3
TORSDOF 8
ENDMDL
MODEL       99
REMARK 921   NORMALIZED FREE ENERGY PREDICTED BY IDOCK:   -4.99 KCAL/MOL
REMARK 922        TOTAL FREE ENERGY PREDICTED BY IDOCK:   -8.86 KCAL/MOL
REMARK 923 INTER-LIGAND FREE ENERGY PREDICTED BY IDOCK:   -7.01 KCAL/MOL
REMARK 924 INTRA-LIGAND FREE ENERGY PREDICTED BY IDOCK:   -1.86 KCAL/MOL
REMARK 927      BINDING AFFINITY PREDICTED BY RF-SCORE:    0.00 PKD
ROOT
HETATM    1  C   UNL     1      -6.681   8.307  74.134  1.00  0.00    -0.134 C  
HETATM    2  O   UNL     1      -8.018   8.769  73.938  1.00  0.00    -0.394 OA 
ENDROOT
BRANCH   2   3
HETATM    3  C   UNL     1      -8.628   8.328  72.792  1.00  0.00    -0.203 A  
HETATM    4  C   UNL     1      -8.213   8.780  71.527  1.00  0.00    -0.190 A  
HETATM    5  C   UNL     1      -8.879   8.450  70.357  1.00  0.00    -0.146 A  
HETATM    6  C   UNL     1      -9.963   7.588  70.438  1.00  0.00    -0.184 A  
HETATM    7  C   UNL     1     -10.322   7.028  71.688  1.00  0.00    -0.216 A  
HETATM    8  C   UNL     1     -10.616   7.365  69.227  1.00  0.00    -0.213 A  
HETATM    9  N   UNL     1     -11.690   6.474  69.123  1.00  0.00    -0.565 NA 
HETATM   10  N   UNL     1     -10.258   7.960  68.082  1.00  0.00    -0.199 NA 
HETATM   11  C   UNL     1      -9.672   7.399  72.870  1.00  0.00    -0.183 A  
HETATM   12  N   UNL     1      -8.470   8.994  69.209  1.00  0.00    -0.125 NA 
HETATM   13  H2  UNL     1     -12.391   6.749  69.811  1.00  0.00     0.000 HD 
HETATM   14  C   UNL     1      -9.186   8.762  68.101  1.00  0.00    -0.140 A  
HETATM   15  H1  UNL     1     -12.167   6.311  68.237  1.00  0.00     0.000 HD 
BRANCH  11  16
HETATM   16  O   UNL     1     -10.202   6.778  73.966  1.00  0.00    -0.327 OA 
HETATM   17  C   UNL     1     -10.303   5.363  73.985  1.00  0.00    -0.272 C  
ENDBRANCH  11  16
BRANCH  14  18
HETATM   18  N   UNL     1      -8.787   9.347  66.923  1.00  0.00    -0.127 NA 
HETATM   19  C   UNL     1      -9.579   9.149  65.729  1.00  0.00    -0.253 C  
BRANCH  18  20
HETATM   20  C   UNL     1      -7.684  10.293  66.910  1.00  0.00    -0.105 C  
BRANCH  20  21
HETATM   21  C   UNL     1      -8.183  11.743  66.833  1.00  0.00    -0.166 C  
BRANCH  21  22
HETATM   22  C   UNL     1      -8.355  12.376  68.214  1.00  0.00    -0.169 C  
BRANCH  22  23
HETATM   23  N   UNL     1      -9.614  12.011  68.828  1.00  0.00    -0.398 N  
HETATM   24  C   UNL     1     -10.716  12.832  68.802  1.00  0.00    -0.214 C  
HETATM   25  H   UNL     1      -9.686  11.109  69.299  1.00  0.00     0.000 HD 
HETATM   26  O   UNL     1     -10.716  13.944  68.283  1.00  0.00    -0.239 OA 
BRANCH  24  27
HETATM   27  C   UNL     1     -11.960  12.244  69.482  1.00  0.00    -0.270 C  
HETATM   28  C   UNL     1     -11.688  10.818  69.924  1.00  0.00    -0.412 C  
HETATM   29  C   UNL     1     -12.736  10.606  70.982  1.00  0.00    -0.512 C  
HETATM   30  C   UNL     1     -12.840  11.975  71.623  1.00  0.00    -0.294 C  
HETATM   31  O   UNL     1     -12.395  12.943  70.659  1.00  0.00    -0.358 OA 
ENDBRANCH  24  27
ENDBRANCH  22  23
ENDBRANCH  21  22
ENDBRANCH  20  21
ENDBRANCH  18  20
ENDBRANCH  14  18
ENDBRANCH   2   3
TORSDOF 8
ENDMDL
MODEL      100
REMARK 921   NORMALIZED FREE ENERGY PREDICTED BY IDOCK:   -4.98 KCAL/MOL
REMARK 922        TOTAL FREE ENERGY PREDICTED BY IDOCK:   -8.85 KCAL/MOL
REMARK 923 INTER-LIGAND FREE ENERGY PREDICTED BY IDOCK:   -7.30 KCAL/MOL
REMARK 924 INTRA-LIGAND FREE ENERGY PREDICTED BY IDOCK:   -1.55 KCAL/MOL
REMARK 927      BINDING AFFINITY PREDICTED BY RF-SCORE:    0.00 PKD
ROOT
HETATM    1  C   UNL     1      -9.373   7.516  73.683  1.00  0.00    -0.277 C  
HETATM    2  O   UNL     1     -10.395   8.136  72.903  1.00  0.00    -0.318 OA 
ENDROOT
BRANCH   2   3
HETATM    3  C   UNL     1     -10.397   7.807  71.572  1.00  0.00    -0.193 A  
HETATM    4  C   UNL     1      -9.341   8.192  70.726  1.00  0.00    -0.174 A  
HETATM    5  C   UNL     1      -9.363   7.981  69.357  1.00  0.00    -0.155 A  
HETATM    6  C   UNL     1     -10.446   7.307  68.812  1.00  0.00    -0.214 A  
HETATM    7  C   UNL     1     -11.461   6.806  69.662  1.00  0.00    -0.286 A  
HETATM    8  C   UNL     1     -10.421   7.200  67.422  1.00  0.00    -0.284 A  
HETATM    9  N   UNL     1     -11.407   6.497  66.721  1.00  0.00    -0.800 NA 
HETATM   10  N   UNL     1      -9.456   7.735  66.664  1.00  0.00    -0.193 NA 
HETATM   11  C   UNL     1     -11.453   7.060  71.039  1.00  0.00    -0.303 A  
HETATM   12  N   UNL     1      -8.360   8.458  68.616  1.00  0.00    -0.120 NA 
HETATM   13  H2  UNL     1     -12.314   6.879  66.989  1.00  0.00     0.000 HD 
HETATM   14  C   UNL     1      -8.442   8.352  67.284  1.00  0.00    -0.124 A  
HETATM   15  H1  UNL     1     -11.388   6.418  65.705  1.00  0.00     0.000 HD 
BRANCH  11  16
HETATM   16  O   UNL     1     -12.545   6.528  71.666  1.00  0.00    -0.318 OA 
HETATM   17  C   UNL     1     -13.780   7.223  71.629  1.00  0.00    -0.347 C  
ENDBRANCH  11  16
BRANCH  14  18
HETATM   18  N   UNL     1      -7.426   8.870  66.517  1.00  0.00    -0.088 NA 
HETATM   19  C   UNL     1      -7.494   8.753  65.077  1.00  0.00    -0.097 C  
BRANCH  18  20
HETATM   20  C   UNL     1      -6.384   9.678  67.128  1.00  0.00    -0.065 C  
BRANCH  20  21
HETATM   21  C   UNL     1      -6.294  11.068  66.483  1.00  0.00    -0.132 C  
BRANCH  21  22
HETATM   22  C   UNL     1      -7.396  12.010  66.970  1.00  0.00    -0.097 C  
BRANCH  22  23
HETATM   23  N   UNL     1      -8.588  11.922  66.153  1.00  0.00    -0.390 N  
HETATM   24  C   UNL     1      -9.826  11.636  66.679  1.00  0.00    -0.200 C  
HETATM   25  H   UNL     1      -8.507  12.079  65.149  1.00  0.00     0.000 HD 
HETATM   26  O   UNL     1     -10.016  11.408  67.870  1.00  0.00    -0.171 OA 
BRANCH  24  27
HETATM   27  C   UNL     1     -10.963  11.622  65.649  1.00  0.00    -0.266 C  
HETATM   28  C   UNL     1     -11.909  12.782  65.900  1.00  0.00    -0.490 C  
HETATM   29  C   UNL     1     -12.593  12.929  64.568  1.00  0.00    -0.420 C  
HETATM   30  C   UNL     1     -11.493  12.575  63.589  1.00  0.00    -0.493 C  
HETATM   31  O   UNL     1     -10.545  11.746  64.280  1.00  0.00    -0.286 OA 
ENDBRANCH  24  27
ENDBRANCH  22  23
ENDBRANCH  21  22
ENDBRANCH  20  21
ENDBRANCH  18  20
ENDBRANCH  14  18
ENDBRANCH   2   3
TORSDOF 8
ENDMDL
MODEL      101
REMARK 921   NORMALIZED FREE ENERGY PREDICTED BY IDOCK:   -4.95 KCAL/MOL
REMARK 922        TOTAL FREE ENERGY PREDICTED BY IDOCK:   -8.80 KCAL/MOL
REMARK 923 INTER-LIGAND FREE ENERGY PREDICTED BY IDOCK:   -7.25 KCAL/MOL
REMARK 924 INTRA-LIGAND FREE ENERGY PREDICTED BY IDOCK:   -1.56 KCAL/MOL
REMARK 927      BINDING AFFINITY PREDICTED BY RF-SCORE:    0.00 PKD
ROOT
HETATM    1  C   UNL     1      -8.486   5.550  65.366  1.00  0.00    -0.146 C  
HETATM    2  O   UNL     1      -9.678   4.887  65.786  1.00  0.00    -0.166 OA 
ENDROOT
BRANCH   2   3
HETATM    3  C   UNL     1      -9.890   4.866  67.140  1.00  0.00    -0.190 A  
HETATM    4  C   UNL     1     -10.758   5.787  67.755  1.00  0.00    -0.306 A  
HETATM    5  C   UNL     1     -10.907   5.874  69.130  1.00  0.00    -0.336 A  
HETATM    6  C   UNL     1     -10.215   4.971  69.925  1.00  0.00    -0.340 A  
HETATM    7  C   UNL     1      -9.430   3.960  69.319  1.00  0.00    -0.256 A  
HETATM    8  C   UNL     1     -10.367   5.173  71.295  1.00  0.00    -0.205 A  
HETATM    9  N   UNL     1      -9.786   4.314  72.235  1.00  0.00    -0.159 NA 
HETATM   10  N   UNL     1     -11.087   6.177  71.813  1.00  0.00    -0.264 NA 
HETATM   11  C   UNL     1      -9.251   3.906  67.932  1.00  0.00    -0.165 A  
HETATM   12  N   UNL     1     -11.684   6.835  69.633  1.00  0.00    -0.180 NA 
HETATM   13  H2  UNL     1      -8.787   4.262  72.035  1.00  0.00     0.000 HD 
HETATM   14  C   UNL     1     -11.734   6.986  70.963  1.00  0.00    -0.333 A  
HETATM   15  H1  UNL     1      -9.898   4.462  73.237  1.00  0.00     0.000 HD 
BRANCH  11  16
HETATM   16  O   UNL     1      -8.423   2.884  67.560  1.00  0.00    -0.081 OA 
HETATM   17  C   UNL     1      -8.979   1.625  67.217  1.00  0.00    -0.123 C  
ENDBRANCH  11  16
BRANCH  14  18
HETATM   18  N   UNL     1     -12.507   7.995  71.484  1.00  0.00    -0.305 NA 
HETATM   19  C   UNL     1     -13.924   7.775  71.676  1.00  0.00    -0.402 C  
BRANCH  18  20
HETATM   20  C   UNL     1     -11.887   9.204  72.001  1.00  0.00    -0.337 C  
BRANCH  20  21
HETATM   21  C   UNL     1     -12.830  10.411  71.902  1.00  0.00    -0.519 C  
BRANCH  21  22
HETATM   22  C   UNL     1     -12.322  11.471  70.925  1.00  0.00    -0.359 C  
BRANCH  22  23
HETATM   23  N   UNL     1     -11.145  11.030  70.205  1.00  0.00    -0.473 N  
HETATM   24  C   UNL     1     -11.109  10.935  68.834  1.00  0.00    -0.252 C  
HETATM   25  H   UNL     1     -10.312  10.779  70.736  1.00  0.00     0.000 HD 
HETATM   26  O   UNL     1     -12.070  11.190  68.115  1.00  0.00    -0.633 OA 
BRANCH  24  27
HETATM   27  C   UNL     1      -9.758  10.479  68.267  1.00  0.00    -0.154 C  
HETATM   28  C   UNL     1      -9.219   9.315  69.078  1.00  0.00    -0.144 C  
HETATM   29  C   UNL     1      -8.243   8.685  68.122  1.00  0.00    -0.115 C  
HETATM   30  C   UNL     1      -8.910   8.899  66.779  1.00  0.00    -0.124 C  
HETATM   31  O   UNL     1      -9.793  10.025  66.904  1.00  0.00    -0.180 OA 
ENDBRANCH  24  27
ENDBRANCH  22  23
ENDBRANCH  21  22
ENDBRANCH  20  21
ENDBRANCH  18  20
ENDBRANCH  14  18
ENDBRANCH   2   3
TORSDOF 8
ENDMDL
MODEL      102
REMARK 921   NORMALIZED FREE ENERGY PREDICTED BY IDOCK:   -4.94 KCAL/MOL
REMARK 922        TOTAL FREE ENERGY PREDICTED BY IDOCK:   -8.79 KCAL/MOL
REMARK 923 INTER-LIGAND FREE ENERGY PREDICTED BY IDOCK:   -7.89 KCAL/MOL
REMARK 924 INTRA-LIGAND FREE ENERGY PREDICTED BY IDOCK:   -0.91 KCAL/MOL
REMARK 927      BINDING AFFINITY PREDICTED BY RF-SCORE:    0.00 PKD
ROOT
HETATM    1  C   UNL     1      -8.338   4.101  67.820  1.00  0.00    -0.094 C  
HETATM    2  O   UNL     1      -9.619   4.147  68.450  1.00  0.00    -0.156 OA 
ENDROOT
BRANCH   2   3
HETATM    3  C   UNL     1     -10.039   5.395  68.831  1.00  0.00    -0.195 A  
HETATM    4  C   UNL     1     -10.189   6.430  67.892  1.00  0.00    -0.200 A  
HETATM    5  C   UNL     1     -10.497   7.732  68.254  1.00  0.00    -0.168 A  
HETATM    6  C   UNL     1     -10.725   8.006  69.595  1.00  0.00    -0.207 A  
HETATM    7  C   UNL     1     -10.695   6.953  70.541  1.00  0.00    -0.267 A  
HETATM    8  C   UNL     1     -10.959   9.350  69.879  1.00  0.00    -0.229 A  
HETATM    9  N   UNL     1     -11.266   9.786  71.173  1.00  0.00    -0.370 NA 
HETATM   10  N   UNL     1     -10.929  10.312  68.948  1.00  0.00    -0.229 NA 
HETATM   11  C   UNL     1     -10.342   5.649  70.173  1.00  0.00    -0.271 A  
HETATM   12  N   UNL     1     -10.534   8.672  67.307  1.00  0.00    -0.294 NA 
HETATM   13  H2  UNL     1     -10.529   9.458  71.797  1.00  0.00     0.000 HD 
HETATM   14  C   UNL     1     -10.719   9.946  67.677  1.00  0.00    -0.281 A  
HETATM   15  H1  UNL     1     -11.437  10.769  71.380  1.00  0.00     0.000 HD 
BRANCH  11  16
HETATM   16  O   UNL     1     -10.331   4.799  71.243  1.00  0.00    -0.187 OA 
HETATM   17  C   UNL     1      -9.182   4.734  72.072  1.00  0.00    -0.136 C  
ENDBRANCH  11  16
BRANCH  14  18
HETATM   18  N   UNL     1     -10.725  10.920  66.707  1.00  0.00    -0.264 NA 
HETATM   19  C   UNL     1      -9.840  10.795  65.571  1.00  0.00    -0.255 C  
BRANCH  18  20
HETATM   20  C   UNL     1     -11.730  11.970  66.729  1.00  0.00    -0.264 C  
BRANCH  20  21
HETATM   21  C   UNL     1     -11.091  13.365  66.701  1.00  0.00    -0.310 C  
BRANCH  21  22
HETATM   22  C   UNL     1     -10.253  13.650  67.948  1.00  0.00    -0.250 C  
BRANCH  22  23
HETATM   23  N   UNL     1     -10.931  14.539  68.868  1.00  0.00    -0.247 N  
HETATM   24  C   UNL     1     -11.678  14.079  69.927  1.00  0.00    -0.303 C  
HETATM   25  H   UNL     1     -10.851  15.546  68.725  1.00  0.00     0.000 HD 
HETATM   26  O   UNL     1     -11.852  12.888  70.162  1.00  0.00    -0.311 OA 
BRANCH  24  27
HETATM   27  C   UNL     1     -12.286  15.186  70.800  1.00  0.00    -0.340 C  
HETATM   28  C   UNL     1     -13.544  14.680  71.481  1.00  0.00    -0.481 C  
HETATM   29  C   UNL     1     -13.686  15.632  72.637  1.00  0.00    -0.666 C  
HETATM   30  C   UNL     1     -12.246  15.912  73.014  1.00  0.00    -0.504 C  
HETATM   31  O   UNL     1     -11.435  15.665  71.853  1.00  0.00    -0.407 OA 
ENDBRANCH  24  27
ENDBRANCH  22  23
ENDBRANCH  21  22
ENDBRANCH  20  21
ENDBRANCH  18  20
ENDBRANCH  14  18
ENDBRANCH   2   3
TORSDOF 8
ENDMDL
MODEL      103
REMARK 921   NORMALIZED FREE ENERGY PREDICTED BY IDOCK:   -4.94 KCAL/MOL
REMARK 922        TOTAL FREE ENERGY PREDICTED BY IDOCK:   -8.79 KCAL/MOL
REMARK 923 INTER-LIGAND FREE ENERGY PREDICTED BY IDOCK:   -8.38 KCAL/MOL
REMARK 924 INTRA-LIGAND FREE ENERGY PREDICTED BY IDOCK:   -0.42 KCAL/MOL
REMARK 927      BINDING AFFINITY PREDICTED BY RF-SCORE:    0.00 PKD
ROOT
HETATM    1  C   UNL     1     -12.237  16.240  72.778  1.00  0.00    -0.500 C  
HETATM    2  O   UNL     1     -13.164  15.816  71.779  1.00  0.00    -0.477 OA 
ENDROOT
BRANCH   2   3
HETATM    3  C   UNL     1     -12.834  14.655  71.128  1.00  0.00    -0.343 A  
HETATM    4  C   UNL     1     -13.171  13.400  71.665  1.00  0.00    -0.449 A  
HETATM    5  C   UNL     1     -12.753  12.206  71.099  1.00  0.00    -0.253 A  
HETATM    6  C   UNL     1     -12.024  12.257  69.920  1.00  0.00    -0.377 A  
HETATM    7  C   UNL     1     -11.777  13.506  69.300  1.00  0.00    -0.382 A  
HETATM    8  C   UNL     1     -11.585  11.018  69.457  1.00  0.00    -0.313 A  
HETATM    9  N   UNL     1     -10.889  10.887  68.250  1.00  0.00    -0.207 NA 
HETATM   10  N   UNL     1     -11.809   9.870  70.111  1.00  0.00    -0.176 NA 
HETATM   11  C   UNL     1     -12.165  14.709  69.900  1.00  0.00    -0.316 A  
HETATM   12  N   UNL     1     -13.043  11.062  71.723  1.00  0.00    -0.480 NA 
HETATM   13  H2  UNL     1     -10.083  11.511  68.285  1.00  0.00     0.000 HD 
HETATM   14  C   UNL     1     -12.539   9.922  71.233  1.00  0.00    -0.381 A  
HETATM   15  H1  UNL     1     -10.569   9.980  67.913  1.00  0.00     0.000 HD 
BRANCH  11  16
HETATM   16  O   UNL     1     -11.792  15.797  69.161  1.00  0.00    -0.381 OA 
HETATM   17  C   UNL     1     -11.110  15.604  67.932  1.00  0.00    -0.324 C  
ENDBRANCH  11  16
BRANCH  14  18
HETATM   18  N   UNL     1     -12.809   8.746  71.890  1.00  0.00    -0.351 NA 
HETATM   19  C   UNL     1     -14.180   8.407  72.203  1.00  0.00    -0.401 C  
BRANCH  18  20
HETATM   20  C   UNL     1     -11.755   7.770  72.114  1.00  0.00    -0.320 C  
BRANCH  20  21
HETATM   21  C   UNL     1     -10.395   8.447  72.334  1.00  0.00    -0.399 C  
BRANCH  21  22
HETATM   22  C   UNL     1      -9.629   7.850  73.514  1.00  0.00    -0.214 C  
BRANCH  22  23
HETATM   23  N   UNL     1      -9.905   6.439  73.684  1.00  0.00    -0.180 N  
HETATM   24  C   UNL     1      -9.069   5.458  73.205  1.00  0.00    -0.126 C  
HETATM   25  H   UNL     1     -10.753   6.161  74.179  1.00  0.00     0.000 HD 
HETATM   26  O   UNL     1      -8.043   5.695  72.576  1.00  0.00    -0.103 OA 
BRANCH  24  27
HETATM   27  C   UNL     1      -9.527   4.027  73.520  1.00  0.00    -0.103 C  
HETATM   28  C   UNL     1     -11.036   3.986  73.680  1.00  0.00    -0.345 C  
HETATM   29  C   UNL     1     -11.342   2.531  73.448  1.00  0.00    -0.249 C  
HETATM   30  C   UNL     1     -10.316   2.139  72.404  1.00  0.00    -0.136 C  
HETATM   31  O   UNL     1      -9.213   3.053  72.512  1.00  0.00    -0.092 OA 
ENDBRANCH  24  27
ENDBRANCH  22  23
ENDBRANCH  21  22
ENDBRANCH  20  21
ENDBRANCH  18  20
ENDBRANCH  14  18
ENDBRANCH   2   3
TORSDOF 8
ENDMDL
MODEL      104
REMARK 921   NORMALIZED FREE ENERGY PREDICTED BY IDOCK:   -4.94 KCAL/MOL
REMARK 922        TOTAL FREE ENERGY PREDICTED BY IDOCK:   -8.78 KCAL/MOL
REMARK 923 INTER-LIGAND FREE ENERGY PREDICTED BY IDOCK:   -7.79 KCAL/MOL
REMARK 924 INTRA-LIGAND FREE ENERGY PREDICTED BY IDOCK:   -0.99 KCAL/MOL
REMARK 927      BINDING AFFINITY PREDICTED BY RF-SCORE:    0.00 PKD
ROOT
HETATM    1  C   UNL     1      -9.818  17.437  68.254  1.00  0.00    -0.310 C  
HETATM    2  O   UNL     1     -11.144  16.995  68.545  1.00  0.00    -0.300 OA 
ENDROOT
BRANCH   2   3
HETATM    3  C   UNL     1     -11.296  15.636  68.656  1.00  0.00    -0.357 A  
HETATM    4  C   UNL     1     -10.529  14.752  67.878  1.00  0.00    -0.246 A  
HETATM    5  C   UNL     1     -10.736  13.382  67.877  1.00  0.00    -0.247 A  
HETATM    6  C   UNL     1     -11.701  12.861  68.727  1.00  0.00    -0.363 A  
HETATM    7  C   UNL     1     -12.401  13.724  69.605  1.00  0.00    -0.284 A  
HETATM    8  C   UNL     1     -11.892  11.486  68.612  1.00  0.00    -0.318 A  
HETATM    9  N   UNL     1     -12.784  10.795  69.440  1.00  0.00    -0.585 NA 
HETATM   10  N   UNL     1     -11.232  10.726  67.729  1.00  0.00    -0.341 NA 
HETATM   11  C   UNL     1     -12.217  15.111  69.570  1.00  0.00    -0.233 A  
HETATM   12  N   UNL     1     -10.022  12.624  67.042  1.00  0.00    -0.217 NA 
HETATM   13  H2  UNL     1     -13.696  11.245  69.360  1.00  0.00     0.000 HD 
HETATM   14  C   UNL     1     -10.305  11.317  66.963  1.00  0.00    -0.227 A  
HETATM   15  H1  UNL     1     -12.923   9.788  69.355  1.00  0.00     0.000 HD 
BRANCH  11  16
HETATM   16  O   UNL     1     -13.021  15.759  70.465  1.00  0.00    -0.454 OA 
HETATM   17  C   UNL     1     -12.582  15.927  71.804  1.00  0.00    -0.434 C  
ENDBRANCH  11  16
BRANCH  14  18
HETATM   18  N   UNL     1      -9.594  10.540  66.081  1.00  0.00    -0.182 NA 
HETATM   19  C   UNL     1     -10.054  10.414  64.716  1.00  0.00    -0.317 C  
BRANCH  18  20
HETATM   20  C   UNL     1      -8.302   9.993  66.462  1.00  0.00    -0.126 C  
BRANCH  20  21
HETATM   21  C   UNL     1      -8.444   8.618  67.130  1.00  0.00    -0.114 C  
BRANCH  21  22
HETATM   22  C   UNL     1      -7.786   8.567  68.509  1.00  0.00    -0.103 C  
BRANCH  22  23
HETATM   23  N   UNL     1      -8.762   8.534  69.577  1.00  0.00    -0.134 N  
HETATM   24  C   UNL     1      -8.443   8.839  70.880  1.00  0.00    -0.175 C  
HETATM   25  H   UNL     1      -9.723   8.275  69.356  1.00  0.00     0.000 HD 
HETATM   26  O   UNL     1      -7.310   9.135  71.245  1.00  0.00    -0.214 OA 
BRANCH  24  27
HETATM   27  C   UNL     1      -9.629   8.775  71.852  1.00  0.00    -0.302 C  
HETATM   28  C   UNL     1     -10.914   8.503  71.091  1.00  0.00    -0.306 C  
HETATM   29  C   UNL     1     -11.813   7.960  72.168  1.00  0.00    -0.384 C  
HETATM   30  C   UNL     1     -10.850   7.190  73.048  1.00  0.00    -0.328 C  
HETATM   31  O   UNL     1      -9.540   7.747  72.852  1.00  0.00    -0.193 OA 
ENDBRANCH  24  27
ENDBRANCH  22  23
ENDBRANCH  21  22
ENDBRANCH  20  21
ENDBRANCH  18  20
ENDBRANCH  14  18
ENDBRANCH   2   3
TORSDOF 8
ENDMDL
MODEL      105
REMARK 921   NORMALIZED FREE ENERGY PREDICTED BY IDOCK:   -4.93 KCAL/MOL
REMARK 922        TOTAL FREE ENERGY PREDICTED BY IDOCK:   -8.77 KCAL/MOL
REMARK 923 INTER-LIGAND FREE ENERGY PREDICTED BY IDOCK:   -7.94 KCAL/MOL
REMARK 924 INTRA-LIGAND FREE ENERGY PREDICTED BY IDOCK:   -0.84 KCAL/MOL
REMARK 927      BINDING AFFINITY PREDICTED BY RF-SCORE:    0.00 PKD
ROOT
HETATM    1  C   UNL     1      -6.540  18.546  68.574  1.00  0.00    -0.236 C  
HETATM    2  O   UNL     1      -7.950  18.727  68.711  1.00  0.00    -0.329 OA 
ENDROOT
BRANCH   2   3
HETATM    3  C   UNL     1      -8.724  17.907  67.931  1.00  0.00    -0.252 A  
HETATM    4  C   UNL     1      -8.884  16.545  68.244  1.00  0.00    -0.210 A  
HETATM    5  C   UNL     1      -9.560  15.661  67.418  1.00  0.00    -0.217 A  
HETATM    6  C   UNL     1     -10.152  16.159  66.266  1.00  0.00    -0.337 A  
HETATM    7  C   UNL     1     -10.103  17.547  65.995  1.00  0.00    -0.270 A  
HETATM    8  C   UNL     1     -10.749  15.192  65.459  1.00  0.00    -0.365 A  
HETATM    9  N   UNL     1     -11.443  15.533  64.292  1.00  0.00    -0.737 NA 
HETATM   10  N   UNL     1     -10.725  13.883  65.743  1.00  0.00    -0.283 NA 
HETATM   11  C   UNL     1      -9.383  18.427  66.811  1.00  0.00    -0.296 A  
HETATM   12  N   UNL     1      -9.590  14.368  67.747  1.00  0.00    -0.212 NA 
HETATM   13  H2  UNL     1     -10.817  16.086  63.707  1.00  0.00     0.000 HD 
HETATM   14  C   UNL     1     -10.144  13.502  66.888  1.00  0.00    -0.256 A  
HETATM   15  H1  UNL     1     -11.880  14.825  63.703  1.00  0.00     0.000 HD 
BRANCH  11  16
HETATM   16  O   UNL     1      -9.427  19.712  66.348  1.00  0.00    -0.354 OA 
HETATM   17  C   UNL     1     -10.590  20.173  65.679  1.00  0.00    -0.195 C  
ENDBRANCH  11  16
BRANCH  14  18
HETATM   18  N   UNL     1     -10.148  12.166  67.209  1.00  0.00    -0.202 NA 
HETATM   19  C   UNL     1      -8.890  11.480  67.404  1.00  0.00    -0.157 C  
BRANCH  18  20
HETATM   20  C   UNL     1     -11.396  11.490  67.523  1.00  0.00    -0.299 C  
BRANCH  20  21
HETATM   21  C   UNL     1     -11.844  11.769  68.964  1.00  0.00    -0.379 C  
BRANCH  21  22
HETATM   22  C   UNL     1     -11.392  10.680  69.937  1.00  0.00    -0.313 C  
BRANCH  22  23
HETATM   23  N   UNL     1     -11.505   9.355  69.364  1.00  0.00    -0.430 N  
HETATM   24  C   UNL     1     -10.433   8.502  69.258  1.00  0.00    -0.215 C  
HETATM   25  H   UNL     1     -12.415   9.044  69.026  1.00  0.00     0.000 HD 
HETATM   26  O   UNL     1      -9.296   8.799  69.613  1.00  0.00    -0.154 OA 
BRANCH  24  27
HETATM   27  C   UNL     1     -10.771   7.133  68.652  1.00  0.00    -0.163 C  
HETATM   28  C   UNL     1     -10.745   7.214  67.136  1.00  0.00    -0.422 C  
HETATM   29  C   UNL     1     -10.563   5.772  66.744  1.00  0.00    -0.373 C  
HETATM   30  C   UNL     1      -9.679   5.237  67.851  1.00  0.00    -0.141 C  
HETATM   31  O   UNL     1      -9.870   6.072  69.004  1.00  0.00    -0.138 OA 
ENDBRANCH  24  27
ENDBRANCH  22  23
ENDBRANCH  21  22
ENDBRANCH  20  21
ENDBRANCH  18  20
ENDBRANCH  14  18
ENDBRANCH   2   3
TORSDOF 8
ENDMDL
MODEL      106
REMARK 921   NORMALIZED FREE ENERGY PREDICTED BY IDOCK:   -4.93 KCAL/MOL
REMARK 922        TOTAL FREE ENERGY PREDICTED BY IDOCK:   -8.77 KCAL/MOL
REMARK 923 INTER-LIGAND FREE ENERGY PREDICTED BY IDOCK:   -7.68 KCAL/MOL
REMARK 924 INTRA-LIGAND FREE ENERGY PREDICTED BY IDOCK:   -1.09 KCAL/MOL
REMARK 927      BINDING AFFINITY PREDICTED BY RF-SCORE:    0.00 PKD
ROOT
HETATM    1  C   UNL     1     -13.097   9.968  71.597  1.00  0.00    -0.445 C  
HETATM    2  O   UNL     1     -13.131  11.325  72.039  1.00  0.00    -0.495 OA 
ENDROOT
BRANCH   2   3
HETATM    3  C   UNL     1     -12.755  12.255  71.105  1.00  0.00    -0.243 A  
HETATM    4  C   UNL     1     -12.311  11.865  69.829  1.00  0.00    -0.136 A  
HETATM    5  C   UNL     1     -11.812  12.766  68.901  1.00  0.00    -0.308 A  
HETATM    6  C   UNL     1     -11.809  14.114  69.229  1.00  0.00    -0.381 A  
HETATM    7  C   UNL     1     -12.362  14.538  70.462  1.00  0.00    -0.403 A  
HETATM    8  C   UNL     1     -11.227  14.941  68.270  1.00  0.00    -0.294 A  
HETATM    9  N   UNL     1     -11.199  16.332  68.418  1.00  0.00    -0.363 NA 
HETATM   10  N   UNL     1     -10.677  14.479  67.140  1.00  0.00    -0.282 NA 
HETATM   11  C   UNL     1     -12.825  13.618  71.410  1.00  0.00    -0.360 A  
HETATM   12  N   UNL     1     -11.330  12.300  67.747  1.00  0.00    -0.280 NA 
HETATM   13  H2  UNL     1     -10.765  16.542  69.317  1.00  0.00     0.000 HD 
HETATM   14  C   UNL     1     -10.745  13.162  66.904  1.00  0.00    -0.263 A  
HETATM   15  H1  UNL     1     -10.773  16.937  67.716  1.00  0.00     0.000 HD 
BRANCH  11  16
HETATM   16  O   UNL     1     -13.275  14.233  72.545  1.00  0.00    -0.418 OA 
HETATM   17  C   UNL     1     -14.089  15.389  72.437  1.00  0.00    -0.549 C  
ENDBRANCH  11  16
BRANCH  14  18
HETATM   18  N   UNL     1     -10.219  12.681  65.729  1.00  0.00    -0.269 NA 
HETATM   19  C   UNL     1     -10.541  13.345  64.485  1.00  0.00    -0.425 C  
BRANCH  18  20
HETATM   20  C   UNL     1      -9.215  11.631  65.750  1.00  0.00    -0.173 C  
BRANCH  20  21
HETATM   21  C   UNL     1      -9.668  10.399  64.954  1.00  0.00    -0.372 C  
BRANCH  21  22
HETATM   22  C   UNL     1      -9.213   9.089  65.596  1.00  0.00    -0.225 C  
BRANCH  22  23
HETATM   23  N   UNL     1      -8.595   9.301  66.889  1.00  0.00    -0.126 N  
HETATM   24  C   UNL     1      -9.302   9.230  68.067  1.00  0.00    -0.133 C  
HETATM   25  H   UNL     1      -7.598   9.511  66.927  1.00  0.00     0.000 HD 
HETATM   26  O   UNL     1     -10.508   9.009  68.117  1.00  0.00    -0.215 OA 
BRANCH  24  27
HETATM   27  C   UNL     1      -8.455   9.454  69.327  1.00  0.00    -0.141 C  
HETATM   28  C   UNL     1      -7.246   8.536  69.313  1.00  0.00    -0.063 C  
HETATM   29  C   UNL     1      -6.309   9.229  70.265  1.00  0.00    -0.051 C  
HETATM   30  C   UNL     1      -6.604  10.693  70.014  1.00  0.00    -0.149 C  
HETATM   31  O   UNL     1      -7.935  10.785  69.480  1.00  0.00    -0.118 OA 
ENDBRANCH  24  27
ENDBRANCH  22  23
ENDBRANCH  21  22
ENDBRANCH  20  21
ENDBRANCH  18  20
ENDBRANCH  14  18
ENDBRANCH   2   3
TORSDOF 8
ENDMDL
MODEL      107
REMARK 921   NORMALIZED FREE ENERGY PREDICTED BY IDOCK:   -4.92 KCAL/MOL
REMARK 922        TOTAL FREE ENERGY PREDICTED BY IDOCK:   -8.76 KCAL/MOL
REMARK 923 INTER-LIGAND FREE ENERGY PREDICTED BY IDOCK:   -7.24 KCAL/MOL
REMARK 924 INTRA-LIGAND FREE ENERGY PREDICTED BY IDOCK:   -1.52 KCAL/MOL
REMARK 927      BINDING AFFINITY PREDICTED BY RF-SCORE:    0.00 PKD
ROOT
HETATM    1  C   UNL     1     -10.472  11.046  63.764  1.00  0.00    -0.341 C  
HETATM    2  O   UNL     1      -9.982  11.884  64.810  1.00  0.00    -0.253 OA 
ENDROOT
BRANCH   2   3
HETATM    3  C   UNL     1      -9.844  11.276  66.031  1.00  0.00    -0.229 A  
HETATM    4  C   UNL     1     -10.908  11.238  66.949  1.00  0.00    -0.333 A  
HETATM    5  C   UNL     1     -10.771  10.738  68.235  1.00  0.00    -0.213 A  
HETATM    6  C   UNL     1      -9.548  10.198  68.604  1.00  0.00    -0.165 A  
HETATM    7  C   UNL     1      -8.501  10.119  67.655  1.00  0.00    -0.118 A  
HETATM    8  C   UNL     1      -9.476   9.783  69.933  1.00  0.00    -0.231 A  
HETATM    9  N   UNL     1      -8.334   9.161  70.449  1.00  0.00    -0.165 NA 
HETATM   10  N   UNL     1     -10.487   9.926  70.800  1.00  0.00    -0.257 NA 
HETATM   11  C   UNL     1      -8.632  10.664  66.373  1.00  0.00    -0.149 A  
HETATM   12  N   UNL     1     -11.808  10.822  69.071  1.00  0.00    -0.323 NA 
HETATM   13  H2  UNL     1      -7.537   9.772  70.269  1.00  0.00     0.000 HD 
HETATM   14  C   UNL     1     -11.635  10.442  70.344  1.00  0.00    -0.337 A  
HETATM   15  H1  UNL     1      -8.283   8.857  71.421  1.00  0.00     0.000 HD 
BRANCH  11  16
HETATM   16  O   UNL     1      -7.492  10.521  65.633  1.00  0.00    -0.148 OA 
HETATM   17  C   UNL     1      -7.317   9.358  64.838  1.00  0.00    -0.106 C  
ENDBRANCH  11  16
BRANCH  14  18
HETATM   18  N   UNL     1     -12.691  10.556  71.216  1.00  0.00    -0.391 NA 
HETATM   19  C   UNL     1     -13.522   9.402  71.478  1.00  0.00    -0.373 C  
BRANCH  18  20
HETATM   20  C   UNL     1     -12.869  11.768  71.999  1.00  0.00    -0.142 C  
BRANCH  20  21
HETATM   21  C   UNL     1     -13.223  12.969  71.111  1.00  0.00    -0.084 C  
BRANCH  21  22
HETATM   22  C   UNL     1     -12.091  13.993  71.036  1.00  0.00    -0.305 C  
BRANCH  22  23
HETATM   23  N   UNL     1     -11.402  13.951  69.763  1.00  0.00    -0.428 N  
HETATM   24  C   UNL     1     -11.459  14.983  68.856  1.00  0.00    -0.314 C  
HETATM   25  H   UNL     1     -10.853  13.124  69.530  1.00  0.00     0.000 HD 
HETATM   26  O   UNL     1     -12.115  16.004  69.037  1.00  0.00    -0.293 OA 
BRANCH  24  27
HETATM   27  C   UNL     1     -10.633  14.753  67.583  1.00  0.00    -0.262 C  
HETATM   28  C   UNL     1     -11.520  14.869  66.357  1.00  0.00    -0.280 C  
HETATM   29  C   UNL     1     -10.521  15.149  65.267  1.00  0.00    -0.434 C  
HETATM   30  C   UNL     1      -9.480  15.988  65.978  1.00  0.00    -0.349 C  
HETATM   31  O   UNL     1      -9.558  15.684  67.380  1.00  0.00    -0.215 OA 
ENDBRANCH  24  27
ENDBRANCH  22  23
ENDBRANCH  21  22
ENDBRANCH  20  21
ENDBRANCH  18  20
ENDBRANCH  14  18
ENDBRANCH   2   3
TORSDOF 8
ENDMDL
MODEL      108
REMARK 921   NORMALIZED FREE ENERGY PREDICTED BY IDOCK:   -4.92 KCAL/MOL
REMARK 922        TOTAL FREE ENERGY PREDICTED BY IDOCK:   -8.75 KCAL/MOL
REMARK 923 INTER-LIGAND FREE ENERGY PREDICTED BY IDOCK:   -7.23 KCAL/MOL
REMARK 924 INTRA-LIGAND FREE ENERGY PREDICTED BY IDOCK:   -1.52 KCAL/MOL
REMARK 927      BINDING AFFINITY PREDICTED BY RF-SCORE:    0.00 PKD
ROOT
HETATM    1  C   UNL     1      -9.531  10.324  64.138  1.00  0.00    -0.301 C  
HETATM    2  O   UNL     1      -9.866  11.182  65.229  1.00  0.00    -0.222 OA 
ENDROOT
BRANCH   2   3
HETATM    3  C   UNL     1      -9.515  10.716  66.470  1.00  0.00    -0.169 A  
HETATM    4  C   UNL     1     -10.430  10.003  67.265  1.00  0.00    -0.313 A  
HETATM    5  C   UNL     1     -10.151   9.619  68.567  1.00  0.00    -0.175 A  
HETATM    6  C   UNL     1      -8.893   9.900  69.081  1.00  0.00    -0.165 A  
HETATM    7  C   UNL     1      -7.919  10.511  68.256  1.00  0.00    -0.113 A  
HETATM    8  C   UNL     1      -8.722   9.542  70.417  1.00  0.00    -0.223 A  
HETATM    9  N   UNL     1      -7.494   9.701  71.069  1.00  0.00    -0.320 NA 
HETATM   10  N   UNL     1      -9.697   9.008  71.164  1.00  0.00    -0.277 NA 
HETATM   11  C   UNL     1      -8.221  10.934  66.956  1.00  0.00    -0.134 A  
HETATM   12  N   UNL     1     -11.109   9.022  69.281  1.00  0.00    -0.028 NA 
HETATM   13  H2  UNL     1      -7.209  10.676  70.967  1.00  0.00     0.000 HD 
HETATM   14  C   UNL     1     -10.872   8.758  70.572  1.00  0.00    -0.233 A  
HETATM   15  H1  UNL     1      -7.369   9.440  72.047  1.00  0.00     0.000 HD 
BRANCH  11  16
HETATM   16  O   UNL     1      -7.155  11.538  66.351  1.00  0.00    -0.065 OA 
HETATM   17  C   UNL     1      -6.012  11.873  67.122  1.00  0.00    -0.152 C  
ENDBRANCH  11  16
BRANCH  14  18
HETATM   18  N   UNL     1     -11.867   8.173  71.319  1.00  0.00    -0.285 NA 
HETATM   19  C   UNL     1     -12.021   6.735  71.291  1.00  0.00    -0.365 C  
BRANCH  18  20
HETATM   20  C   UNL     1     -12.641   8.965  72.259  1.00  0.00    -0.385 C  
BRANCH  20  21
HETATM   21  C   UNL     1     -13.466  10.045  71.545  1.00  0.00    -0.375 C  
BRANCH  21  22
HETATM   22  C   UNL     1     -12.961  11.457  71.842  1.00  0.00    -0.361 C  
BRANCH  22  23
HETATM   23  N   UNL     1     -12.149  11.983  70.765  1.00  0.00    -0.446 N  
HETATM   24  C   UNL     1     -12.140  13.316  70.428  1.00  0.00    -0.327 C  
HETATM   25  H   UNL     1     -11.560  11.340  70.236  1.00  0.00     0.000 HD 
HETATM   26  O   UNL     1     -12.834  14.158  70.990  1.00  0.00    -0.328 OA 
BRANCH  24  27
HETATM   27  C   UNL     1     -11.187  13.672  69.279  1.00  0.00    -0.233 C  
HETATM   28  C   UNL     1     -11.800  13.272  67.950  1.00  0.00    -0.388 C  
HETATM   29  C   UNL     1     -11.040  14.132  66.976  1.00  0.00    -0.314 C  
HETATM   30  C   UNL     1     -10.813  15.404  67.766  1.00  0.00    -0.302 C  
HETATM   31  O   UNL     1     -10.871  15.068  69.162  1.00  0.00    -0.232 OA 
ENDBRANCH  24  27
ENDBRANCH  22  23
ENDBRANCH  21  22
ENDBRANCH  20  21
ENDBRANCH  18  20
ENDBRANCH  14  18
ENDBRANCH   2   3
TORSDOF 8
ENDMDL
MODEL      109
REMARK 921   NORMALIZED FREE ENERGY PREDICTED BY IDOCK:   -4.88 KCAL/MOL
REMARK 922        TOTAL FREE ENERGY PREDICTED BY IDOCK:   -8.70 KCAL/MOL
REMARK 923 INTER-LIGAND FREE ENERGY PREDICTED BY IDOCK:   -7.11 KCAL/MOL
REMARK 924 INTRA-LIGAND FREE ENERGY PREDICTED BY IDOCK:   -1.59 KCAL/MOL
REMARK 927      BINDING AFFINITY PREDICTED BY RF-SCORE:    0.00 PKD
ROOT
HETATM    1  C   UNL     1     -11.275  15.888  70.086  1.00  0.00    -0.364 C  
HETATM    2  O   UNL     1     -12.372  15.184  69.504  1.00  0.00    -0.259 OA 
ENDROOT
BRANCH   2   3
HETATM    3  C   UNL     1     -12.090  13.913  69.074  1.00  0.00    -0.329 A  
HETATM    4  C   UNL     1     -11.981  12.845  69.983  1.00  0.00    -0.380 A  
HETATM    5  C   UNL     1     -11.583  11.574  69.601  1.00  0.00    -0.333 A  
HETATM    6  C   UNL     1     -11.341  11.336  68.256  1.00  0.00    -0.359 A  
HETATM    7  C   UNL     1     -11.560  12.367  67.311  1.00  0.00    -0.435 A  
HETATM    8  C   UNL     1     -10.878  10.053  67.970  1.00  0.00    -0.260 A  
HETATM    9  N   UNL     1     -10.644   9.631  66.656  1.00  0.00    -0.152 NA 
HETATM   10  N   UNL     1     -10.645   9.131  68.912  1.00  0.00    -0.215 NA 
HETATM   11  C   UNL     1     -11.921  13.659  67.709  1.00  0.00    -0.352 A  
HETATM   12  N   UNL     1     -11.420  10.641  70.542  1.00  0.00    -0.324 NA 
HETATM   13  H2  UNL     1     -10.006  10.298  66.223  1.00  0.00     0.000 HD 
HETATM   14  C   UNL     1     -10.926   9.449  70.183  1.00  0.00    -0.246 A  
HETATM   15  H1  UNL     1     -10.306   8.692  66.447  1.00  0.00     0.000 HD 
BRANCH  11  16
HETATM   16  O   UNL     1     -12.038  14.511  66.646  1.00  0.00    -0.393 OA 
HETATM   17  C   UNL     1     -12.519  14.018  65.405  1.00  0.00    -0.498 C  
ENDBRANCH  11  16
BRANCH  14  18
HETATM   18  N   UNL     1     -10.728   8.497  71.154  1.00  0.00    -0.223 NA 
HETATM   19  C   UNL     1      -9.653   8.669  72.106  1.00  0.00    -0.307 C  
BRANCH  18  20
HETATM   20  C   UNL     1     -11.689   7.422  71.335  1.00  0.00    -0.288 C  
BRANCH  20  21
HETATM   21  C   UNL     1     -11.008   6.046  71.327  1.00  0.00    -0.340 C  
BRANCH  21  22
HETATM   22  C   UNL     1     -10.775   5.517  69.912  1.00  0.00    -0.288 C  
BRANCH  22  23
HETATM   23  N   UNL     1      -9.621   6.126  69.286  1.00  0.00    -0.132 N  
HETATM   24  C   UNL     1      -9.427   6.119  67.924  1.00  0.00    -0.115 C  
HETATM   25  H   UNL     1      -8.924   6.578  69.877  1.00  0.00     0.000 HD 
HETATM   26  O   UNL     1     -10.197   5.577  67.137  1.00  0.00    -0.172 OA 
BRANCH  24  27
HETATM   27  C   UNL     1      -8.158   6.846  67.462  1.00  0.00    -0.116 C  
HETATM   28  C   UNL     1      -7.524   7.582  68.628  1.00  0.00    -0.101 C  
HETATM   29  C   UNL     1      -6.106   7.761  68.159  1.00  0.00    -0.041 C  
HETATM   30  C   UNL     1      -5.856   6.495  67.367  1.00  0.00    -0.017 C  
HETATM   31  O   UNL     1      -7.130   5.995  66.929  1.00  0.00    -0.067 OA 
ENDBRANCH  24  27
ENDBRANCH  22  23
ENDBRANCH  21  22
ENDBRANCH  20  21
ENDBRANCH  18  20
ENDBRANCH  14  18
ENDBRANCH   2   3
TORSDOF 8
ENDMDL
MODEL      110
REMARK 921   NORMALIZED FREE ENERGY PREDICTED BY IDOCK:   -4.88 KCAL/MOL
REMARK 922        TOTAL FREE ENERGY PREDICTED BY IDOCK:   -8.70 KCAL/MOL
REMARK 923 INTER-LIGAND FREE ENERGY PREDICTED BY IDOCK:   -7.63 KCAL/MOL
REMARK 924 INTRA-LIGAND FREE ENERGY PREDICTED BY IDOCK:   -1.07 KCAL/MOL
REMARK 927      BINDING AFFINITY PREDICTED BY RF-SCORE:    0.00 PKD
ROOT
HETATM    1  C   UNL     1     -10.513  18.874  66.395  1.00  0.00    -0.439 C  
HETATM    2  O   UNL     1      -9.257  18.444  65.871  1.00  0.00    -0.493 OA 
ENDROOT
BRANCH   2   3
HETATM    3  C   UNL     1      -8.637  17.446  66.578  1.00  0.00    -0.261 A  
HETATM    4  C   UNL     1      -8.895  16.091  66.302  1.00  0.00    -0.379 A  
HETATM    5  C   UNL     1      -8.380  15.059  67.070  1.00  0.00    -0.222 A  
HETATM    6  C   UNL     1      -7.527  15.380  68.117  1.00  0.00    -0.120 A  
HETATM    7  C   UNL     1      -7.161  16.730  68.335  1.00  0.00    -0.191 A  
HETATM    8  C   UNL     1      -7.112  14.289  68.879  1.00  0.00    -0.113 A  
HETATM    9  N   UNL     1      -6.202  14.432  69.933  1.00  0.00    -0.138 NA 
HETATM   10  N   UNL     1      -7.528  13.037  68.653  1.00  0.00    -0.113 NA 
HETATM   11  C   UNL     1      -7.719  17.770  67.582  1.00  0.00    -0.208 A  
HETATM   12  N   UNL     1      -8.746  13.806  66.793  1.00  0.00    -0.148 NA 
HETATM   13  H2  UNL     1      -6.571  15.138  70.571  1.00  0.00     0.000 HD 
HETATM   14  C   UNL     1      -8.337  12.825  67.608  1.00  0.00    -0.175 A  
HETATM   15  H1  UNL     1      -5.899  13.634  70.490  1.00  0.00     0.000 HD 
BRANCH  11  16
HETATM   16  O   UNL     1      -7.266  18.996  67.984  1.00  0.00    -0.236 OA 
HETATM   17  C   UNL     1      -7.627  19.487  69.266  1.00  0.00    -0.202 C  
ENDBRANCH  11  16
BRANCH  14  18
HETATM   18  N   UNL     1      -8.739  11.537  67.343  1.00  0.00    -0.144 NA 
HETATM   19  C   UNL     1      -8.395  10.935  66.074  1.00  0.00    -0.165 C  
BRANCH  18  20
HETATM   20  C   UNL     1      -9.345  10.728  68.387  1.00  0.00    -0.167 C  
BRANCH  20  21
HETATM   21  C   UNL     1     -10.331  11.544  69.234  1.00  0.00    -0.010 C  
BRANCH  21  22
HETATM   22  C   UNL     1     -11.766  11.448  68.716  1.00  0.00    -0.339 C  
BRANCH  22  23
HETATM   23  N   UNL     1     -11.866  11.810  67.317  1.00  0.00    -0.202 N  
HETATM   24  C   UNL     1     -12.091  13.101  66.902  1.00  0.00    -0.316 C  
HETATM   25  H   UNL     1     -11.765  11.079  66.613  1.00  0.00     0.000 HD 
HETATM   26  O   UNL     1     -12.250  14.041  67.676  1.00  0.00    -0.352 OA 
BRANCH  24  27
HETATM   27  C   UNL     1     -12.130  13.278  65.378  1.00  0.00    -0.422 C  
HETATM   28  C   UNL     1     -10.778  12.935  64.778  1.00  0.00    -0.354 C  
HETATM   29  C   UNL     1     -11.130  12.646  63.344  1.00  0.00    -0.354 C  
HETATM   30  C   UNL     1     -12.496  12.004  63.461  1.00  0.00    -0.540 C  
HETATM   31  O   UNL     1     -13.083  12.449  64.695  1.00  0.00    -0.825 OA 
ENDBRANCH  24  27
ENDBRANCH  22  23
ENDBRANCH  21  22
ENDBRANCH  20  21
ENDBRANCH  18  20
ENDBRANCH  14  18
ENDBRANCH   2   3
TORSDOF 8
ENDMDL
MODEL      111
REMARK 921   NORMALIZED FREE ENERGY PREDICTED BY IDOCK:   -4.87 KCAL/MOL
REMARK 922        TOTAL FREE ENERGY PREDICTED BY IDOCK:   -8.68 KCAL/MOL
REMARK 923 INTER-LIGAND FREE ENERGY PREDICTED BY IDOCK:   -7.29 KCAL/MOL
REMARK 924 INTRA-LIGAND FREE ENERGY PREDICTED BY IDOCK:   -1.39 KCAL/MOL
REMARK 927      BINDING AFFINITY PREDICTED BY RF-SCORE:    0.00 PKD
ROOT
HETATM    1  C   UNL     1     -10.354  10.880  65.003  1.00  0.00    -0.288 C  
HETATM    2  O   UNL     1      -9.854   9.790  65.777  1.00  0.00    -0.260 OA 
ENDROOT
BRANCH   2   3
HETATM    3  C   UNL     1     -10.335   9.713  67.058  1.00  0.00    -0.248 A  
HETATM    4  C   UNL     1     -11.114  10.747  67.606  1.00  0.00    -0.384 A  
HETATM    5  C   UNL     1     -11.518  10.760  68.932  1.00  0.00    -0.293 A  
HETATM    6  C   UNL     1     -11.189   9.674  69.730  1.00  0.00    -0.208 A  
HETATM    7  C   UNL     1     -10.508   8.569  69.166  1.00  0.00    -0.217 A  
HETATM    8  C   UNL     1     -11.572   9.800  71.065  1.00  0.00    -0.376 A  
HETATM    9  N   UNL     1     -11.370   8.769  71.989  1.00  0.00    -0.361 NA 
HETATM   10  N   UNL     1     -12.175  10.892  71.554  1.00  0.00    -0.229 NA 
HETATM   11  C   UNL     1     -10.066   8.582  67.838  1.00  0.00    -0.207 A  
HETATM   12  N   UNL     1     -12.181  11.823  69.393  1.00  0.00    -0.214 NA 
HETATM   13  H2  UNL     1     -10.380   8.523  71.970  1.00  0.00     0.000 HD 
HETATM   14  C   UNL     1     -12.468  11.881  70.700  1.00  0.00    -0.257 A  
HETATM   15  H1  UNL     1     -11.651   8.862  72.964  1.00  0.00     0.000 HD 
BRANCH  11  16
HETATM   16  O   UNL     1      -9.393   7.439  67.508  1.00  0.00    -0.129 OA 
HETATM   17  C   UNL     1      -8.003   7.344  67.779  1.00  0.00    -0.118 C  
ENDBRANCH  11  16
BRANCH  14  18
HETATM   18  N   UNL     1     -13.121  12.988  71.183  1.00  0.00    -0.174 NA 
HETATM   19  C   UNL     1     -13.524  13.024  72.572  1.00  0.00    -0.419 C  
BRANCH  18  20
HETATM   20  C   UNL     1     -13.252  14.180  70.362  1.00  0.00     0.155 C  
BRANCH  20  21
HETATM   21  C   UNL     1     -13.370  15.448  71.219  1.00  0.00    -0.598 C  
BRANCH  21  22
HETATM   22  C   UNL     1     -12.007  15.991  71.650  1.00  0.00    -0.499 C  
BRANCH  22  23
HETATM   23  N   UNL     1     -10.916  15.327  70.968  1.00  0.00    -0.516 N  
HETATM   24  C   UNL     1     -10.260  15.891  69.900  1.00  0.00    -0.232 C  
HETATM   25  H   UNL     1     -10.622  14.406  71.293  1.00  0.00     0.000 HD 
HETATM   26  O   UNL     1     -10.560  16.981  69.423  1.00  0.00    -0.335 OA 
BRANCH  24  27
HETATM   27  C   UNL     1      -9.112  15.039  69.341  1.00  0.00    -0.115 C  
HETATM   28  C   UNL     1      -9.602  14.208  68.169  1.00  0.00    -0.218 C  
HETATM   29  C   UNL     1      -8.321  13.884  67.450  1.00  0.00    -0.208 C  
HETATM   30  C   UNL     1      -7.494  15.135  67.667  1.00  0.00    -0.181 C  
HETATM   31  O   UNL     1      -7.986  15.783  68.851  1.00  0.00    -0.166 OA 
ENDBRANCH  24  27
ENDBRANCH  22  23
ENDBRANCH  21  22
ENDBRANCH  20  21
ENDBRANCH  18  20
ENDBRANCH  14  18
ENDBRANCH   2   3
TORSDOF 8
ENDMDL
MODEL      112
REMARK 921   NORMALIZED FREE ENERGY PREDICTED BY IDOCK:   -4.85 KCAL/MOL
REMARK 922        TOTAL FREE ENERGY PREDICTED BY IDOCK:   -8.65 KCAL/MOL
REMARK 923 INTER-LIGAND FREE ENERGY PREDICTED BY IDOCK:   -7.66 KCAL/MOL
REMARK 924 INTRA-LIGAND FREE ENERGY PREDICTED BY IDOCK:   -0.99 KCAL/MOL
REMARK 927      BINDING AFFINITY PREDICTED BY RF-SCORE:    0.00 PKD
ROOT
HETATM    1  C   UNL     1     -11.369  14.400  69.418  1.00  0.00    -0.281 C  
HETATM    2  O   UNL     1     -12.275  13.802  68.491  1.00  0.00    -0.348 OA 
ENDROOT
BRANCH   2   3
HETATM    3  C   UNL     1     -11.688  13.127  67.452  1.00  0.00    -0.370 A  
HETATM    4  C   UNL     1     -11.396  11.755  67.548  1.00  0.00    -0.377 A  
HETATM    5  C   UNL     1     -10.699  11.066  66.568  1.00  0.00    -0.241 A  
HETATM    6  C   UNL     1     -10.330  11.751  65.419  1.00  0.00    -0.311 A  
HETATM    7  C   UNL     1     -10.719  13.102  65.252  1.00  0.00    -0.318 A  
HETATM    8  C   UNL     1      -9.573  11.003  64.518  1.00  0.00    -0.256 A  
HETATM    9  N   UNL     1      -9.172  11.525  63.284  1.00  0.00    -0.526 NA 
HETATM   10  N   UNL     1      -9.194   9.740  64.751  1.00  0.00    -0.250 NA 
HETATM   11  C   UNL     1     -11.386  13.802  66.264  1.00  0.00    -0.321 A  
HETATM   12  N   UNL     1     -10.387   9.786  66.780  1.00  0.00    -0.232 NA 
HETATM   13  H2  UNL     1      -8.675  12.399  63.460  1.00  0.00     0.000 HD 
HETATM   14  C   UNL     1      -9.616   9.159  65.882  1.00  0.00    -0.273 A  
HETATM   15  H1  UNL     1      -8.618  10.978  62.625  1.00  0.00     0.000 HD 
BRANCH  11  16
HETATM   16  O   UNL     1     -11.627  15.102  65.917  1.00  0.00    -0.239 OA 
HETATM   17  C   UNL     1     -10.603  15.859  65.291  1.00  0.00    -0.419 C  
ENDBRANCH  11  16
BRANCH  14  18
HETATM   18  N   UNL     1      -9.267   7.850  66.112  1.00  0.00    -0.178 NA 
HETATM   19  C   UNL     1      -8.402   7.171  65.173  1.00  0.00    -0.076 C  
BRANCH  18  20
HETATM   20  C   UNL     1      -9.614   7.207  67.369  1.00  0.00    -0.137 C  
BRANCH  20  21
HETATM   21  C   UNL     1      -8.443   7.234  68.361  1.00  0.00    -0.125 C  
BRANCH  21  22
HETATM   22  C   UNL     1      -8.640   8.268  69.470  1.00  0.00    -0.134 C  
BRANCH  22  23
HETATM   23  N   UNL     1      -9.289   7.702  70.634  1.00  0.00    -0.163 N  
HETATM   24  C   UNL     1     -10.588   7.998  70.975  1.00  0.00    -0.213 C  
HETATM   25  H   UNL     1      -8.762   7.058  71.224  1.00  0.00     0.000 HD 
HETATM   26  O   UNL     1     -11.290   8.779  70.340  1.00  0.00    -0.256 OA 
BRANCH  24  27
HETATM   27  C   UNL     1     -11.096   7.268  72.226  1.00  0.00    -0.260 C  
HETATM   28  C   UNL     1     -10.943   5.768  72.052  1.00  0.00    -0.317 C  
HETATM   29  C   UNL     1     -10.966   5.279  73.475  1.00  0.00    -0.353 C  
HETATM   30  C   UNL     1     -10.265   6.396  74.221  1.00  0.00    -0.344 C  
HETATM   31  O   UNL     1     -10.405   7.595  73.442  1.00  0.00    -0.341 OA 
ENDBRANCH  24  27
ENDBRANCH  22  23
ENDBRANCH  21  22
ENDBRANCH  20  21
ENDBRANCH  18  20
ENDBRANCH  14  18
ENDBRANCH   2   3
TORSDOF 8
ENDMDL
MODEL      113
REMARK 921   NORMALIZED FREE ENERGY PREDICTED BY IDOCK:   -4.82 KCAL/MOL
REMARK 922        TOTAL FREE ENERGY PREDICTED BY IDOCK:   -8.61 KCAL/MOL
REMARK 923 INTER-LIGAND FREE ENERGY PREDICTED BY IDOCK:   -8.24 KCAL/MOL
REMARK 924 INTRA-LIGAND FREE ENERGY PREDICTED BY IDOCK:   -0.37 KCAL/MOL
REMARK 927      BINDING AFFINITY PREDICTED BY RF-SCORE:    0.00 PKD
ROOT
HETATM    1  C   UNL     1      -8.542  16.895  68.699  1.00  0.00    -0.267 C  
HETATM    2  O   UNL     1      -8.561  17.156  67.296  1.00  0.00    -0.196 OA 
ENDROOT
BRANCH   2   3
HETATM    3  C   UNL     1      -9.358  16.321  66.556  1.00  0.00    -0.271 A  
HETATM    4  C   UNL     1      -9.272  14.924  66.693  1.00  0.00    -0.302 A  
HETATM    5  C   UNL     1      -9.974  14.047  65.882  1.00  0.00    -0.307 A  
HETATM    6  C   UNL     1     -10.843  14.575  64.938  1.00  0.00    -0.436 A  
HETATM    7  C   UNL     1     -11.032  15.976  64.865  1.00  0.00    -0.399 A  
HETATM    8  C   UNL     1     -11.454  13.627  64.119  1.00  0.00    -0.329 A  
HETATM    9  N   UNL     1     -12.403  13.988  63.157  1.00  0.00    -1.094 NA 
HETATM   10  N   UNL     1     -11.201  12.315  64.203  1.00  0.00    -0.339 NA 
HETATM   11  C   UNL     1     -10.288  16.857  65.659  1.00  0.00    -0.237 A  
HETATM   12  N   UNL     1      -9.767  12.735  66.021  1.00  0.00    -0.251 NA 
HETATM   13  H2  UNL     1     -11.983  14.697  62.555  1.00  0.00     0.000 HD 
HETATM   14  C   UNL     1     -10.360  11.899  65.160  1.00  0.00    -0.277 A  
HETATM   15  H1  UNL     1     -12.850  13.294  62.558  1.00  0.00     0.000 HD 
BRANCH  11  16
HETATM   16  O   UNL     1     -10.593  18.164  65.401  1.00  0.00    -0.636 OA 
HETATM   17  C   UNL     1     -10.796  19.061  66.481  1.00  0.00    -0.204 C  
ENDBRANCH  11  16
BRANCH  14  18
HETATM   18  N   UNL     1     -10.124  10.551  65.280  1.00  0.00    -0.297 NA 
HETATM   19  C   UNL     1      -9.418   9.857  64.225  1.00  0.00    -0.216 C  
BRANCH  18  20
HETATM   20  C   UNL     1     -10.421   9.862  66.525  1.00  0.00    -0.143 C  
BRANCH  20  21
HETATM   21  C   UNL     1      -9.666   8.529  66.629  1.00  0.00    -0.318 C  
BRANCH  21  22
HETATM   22  C   UNL     1     -10.560   7.388  67.113  1.00  0.00    -0.342 C  
BRANCH  22  23
HETATM   23  N   UNL     1     -10.510   6.243  66.228  1.00  0.00    -0.456 N  
HETATM   24  C   UNL     1      -9.660   5.183  66.436  1.00  0.00    -0.161 C  
HETATM   25  H   UNL     1     -11.130   6.223  65.418  1.00  0.00     0.000 HD 
HETATM   26  O   UNL     1      -8.862   5.132  67.367  1.00  0.00    -0.107 OA 
BRANCH  24  27
HETATM   27  C   UNL     1      -9.787   4.057  65.401  1.00  0.00    -0.192 C  
HETATM   28  C   UNL     1      -8.972   4.391  64.165  1.00  0.00    -0.151 C  
HETATM   29  C   UNL     1      -8.776   3.038  63.537  1.00  0.00    -0.089 C  
HETATM   30  C   UNL     1      -8.659   2.128  64.742  1.00  0.00    -0.100 C  
HETATM   31  O   UNL     1      -9.324   2.771  65.841  1.00  0.00    -0.122 OA 
ENDBRANCH  24  27
ENDBRANCH  22  23
ENDBRANCH  21  22
ENDBRANCH  20  21
ENDBRANCH  18  20
ENDBRANCH  14  18
ENDBRANCH   2   3
TORSDOF 8
ENDMDL
MODEL      114
REMARK 921   NORMALIZED FREE ENERGY PREDICTED BY IDOCK:   -4.82 KCAL/MOL
REMARK 922        TOTAL FREE ENERGY PREDICTED BY IDOCK:   -8.61 KCAL/MOL
REMARK 923 INTER-LIGAND FREE ENERGY PREDICTED BY IDOCK:   -7.82 KCAL/MOL
REMARK 924 INTRA-LIGAND FREE ENERGY PREDICTED BY IDOCK:   -0.79 KCAL/MOL
REMARK 927      BINDING AFFINITY PREDICTED BY RF-SCORE:    0.00 PKD
ROOT
HETATM    1  C   UNL     1     -11.146   5.431  72.485  1.00  0.00    -0.253 C  
HETATM    2  O   UNL     1     -10.033   6.297  72.260  1.00  0.00    -0.167 OA 
ENDROOT
BRANCH   2   3
HETATM    3  C   UNL     1     -10.080   7.020  71.096  1.00  0.00    -0.187 A  
HETATM    4  C   UNL     1     -10.397   8.390  71.102  1.00  0.00    -0.264 A  
HETATM    5  C   UNL     1     -10.569   9.124  69.940  1.00  0.00    -0.230 A  
HETATM    6  C   UNL     1     -10.358   8.491  68.723  1.00  0.00    -0.233 A  
HETATM    7  C   UNL     1      -9.921   7.145  68.700  1.00  0.00    -0.161 A  
HETATM    8  C   UNL     1     -10.620   9.282  67.606  1.00  0.00    -0.261 A  
HETATM    9  N   UNL     1     -10.399   8.816  66.306  1.00  0.00    -0.332 NA 
HETATM   10  N   UNL     1     -11.076  10.539  67.689  1.00  0.00    -0.316 NA 
HETATM   11  C   UNL     1      -9.791   6.397  69.876  1.00  0.00    -0.167 A  
HETATM   12  N   UNL     1     -10.957  10.398  70.035  1.00  0.00    -0.295 NA 
HETATM   13  H2  UNL     1     -10.912   7.940  66.197  1.00  0.00     0.000 HD 
HETATM   14  C   UNL     1     -11.232  11.069  68.909  1.00  0.00    -0.265 A  
HETATM   15  H1  UNL     1     -10.591   9.395  65.489  1.00  0.00     0.000 HD 
BRANCH  11  16
HETATM   16  O   UNL     1      -9.403   5.110  69.627  1.00  0.00    -0.116 OA 
HETATM   17  C   UNL     1      -9.618   4.553  68.341  1.00  0.00    -0.145 C  
ENDBRANCH  11  16
BRANCH  14  18
HETATM   18  N   UNL     1     -11.661  12.371  69.005  1.00  0.00    -0.309 NA 
HETATM   19  C   UNL     1     -11.906  13.128  67.797  1.00  0.00    -0.348 C  
BRANCH  18  20
HETATM   20  C   UNL     1     -12.035  12.927  70.294  1.00  0.00    -0.283 C  
BRANCH  20  21
HETATM   21  C   UNL     1     -12.528  14.375  70.165  1.00  0.00    -0.395 C  
BRANCH  21  22
HETATM   22  C   UNL     1     -11.520  15.386  70.712  1.00  0.00    -0.355 C  
BRANCH  22  23
HETATM   23  N   UNL     1     -11.108  16.344  69.707  1.00  0.00    -0.335 N  
HETATM   24  C   UNL     1      -9.842  16.354  69.170  1.00  0.00    -0.272 C  
HETATM   25  H   UNL     1     -11.783  17.037  69.384  1.00  0.00     0.000 HD 
HETATM   26  O   UNL     1      -8.957  15.576  69.514  1.00  0.00    -0.268 OA 
BRANCH  24  27
HETATM   27  C   UNL     1      -9.619  17.428  68.096  1.00  0.00    -0.287 C  
HETATM   28  C   UNL     1     -10.324  17.035  66.811  1.00  0.00    -0.302 C  
HETATM   29  C   UNL     1     -10.458  18.356  66.103  1.00  0.00    -0.422 C  
HETATM   30  C   UNL     1     -10.676  19.324  67.248  1.00  0.00    -0.488 C  
HETATM   31  O   UNL     1     -10.114  18.734  68.431  1.00  0.00    -0.365 OA 
ENDBRANCH  24  27
ENDBRANCH  22  23
ENDBRANCH  21  22
ENDBRANCH  20  21
ENDBRANCH  18  20
ENDBRANCH  14  18
ENDBRANCH   2   3
TORSDOF 8
ENDMDL
MODEL      115
REMARK 921   NORMALIZED FREE ENERGY PREDICTED BY IDOCK:   -4.81 KCAL/MOL
REMARK 922        TOTAL FREE ENERGY PREDICTED BY IDOCK:   -8.60 KCAL/MOL
REMARK 923 INTER-LIGAND FREE ENERGY PREDICTED BY IDOCK:   -7.12 KCAL/MOL
REMARK 924 INTRA-LIGAND FREE ENERGY PREDICTED BY IDOCK:   -1.48 KCAL/MOL
REMARK 927      BINDING AFFINITY PREDICTED BY RF-SCORE:    0.00 PKD
ROOT
HETATM    1  C   UNL     1     -12.372  15.372  70.348  1.00  0.00    -0.402 C  
HETATM    2  O   UNL     1     -12.188  16.046  69.103  1.00  0.00    -0.221 OA 
ENDROOT
BRANCH   2   3
HETATM    3  C   UNL     1     -10.942  15.917  68.545  1.00  0.00    -0.324 A  
HETATM    4  C   UNL     1     -10.285  14.674  68.512  1.00  0.00    -0.240 A  
HETATM    5  C   UNL     1      -8.982  14.527  68.065  1.00  0.00    -0.180 A  
HETATM    6  C   UNL     1      -8.324  15.645  67.574  1.00  0.00    -0.186 A  
HETATM    7  C   UNL     1      -9.010  16.881  67.489  1.00  0.00    -0.208 A  
HETATM    8  C   UNL     1      -6.997  15.423  67.212  1.00  0.00    -0.145 A  
HETATM    9  N   UNL     1      -6.212  16.431  66.642  1.00  0.00    -0.272 NA 
HETATM   10  N   UNL     1      -6.386  14.241  67.359  1.00  0.00    -0.309 NA 
HETATM   11  C   UNL     1     -10.312  17.031  67.981  1.00  0.00    -0.341 A  
HETATM   12  N   UNL     1      -8.404  13.326  68.151  1.00  0.00    -0.155 NA 
HETATM   13  H2  UNL     1      -6.234  17.237  67.267  1.00  0.00     0.000 HD 
HETATM   14  C   UNL     1      -7.110  13.215  67.825  1.00  0.00    -0.148 A  
HETATM   15  H1  UNL     1      -5.241  16.268  66.377  1.00  0.00     0.000 HD 
BRANCH  11  16
HETATM   16  O   UNL     1     -10.770  18.311  67.842  1.00  0.00    -0.397 OA 
HETATM   17  C   UNL     1     -10.060  19.378  68.452  1.00  0.00    -0.444 C  
ENDBRANCH  11  16
BRANCH  14  18
HETATM   18  N   UNL     1      -6.503  11.988  67.942  1.00  0.00    -0.065 NA 
HETATM   19  C   UNL     1      -6.091  11.522  69.248  1.00  0.00    -0.068 C  
BRANCH  18  20
HETATM   20  C   UNL     1      -6.433  11.091  66.800  1.00  0.00    -0.124 C  
BRANCH  20  21
HETATM   21  C   UNL     1      -7.239   9.807  67.038  1.00  0.00    -0.090 C  
BRANCH  21  22
HETATM   22  C   UNL     1      -8.748  10.047  66.993  1.00  0.00    -0.132 C  
BRANCH  22  23
HETATM   23  N   UNL     1      -9.322  10.158  68.318  1.00  0.00    -0.132 N  
HETATM   24  C   UNL     1     -10.672  10.314  68.528  1.00  0.00    -0.227 C  
HETATM   25  H   UNL     1      -8.701  10.119  69.126  1.00  0.00     0.000 HD 
HETATM   26  O   UNL     1     -11.491  10.397  67.618  1.00  0.00    -0.401 OA 
BRANCH  24  27
HETATM   27  C   UNL     1     -11.078  10.379  70.007  1.00  0.00    -0.314 C  
HETATM   28  C   UNL     1     -12.244  11.334  70.186  1.00  0.00    -0.410 C  
HETATM   29  C   UNL     1     -12.825  10.885  71.499  1.00  0.00    -0.560 C  
HETATM   30  C   UNL     1     -12.601   9.387  71.466  1.00  0.00    -0.362 C  
HETATM   31  O   UNL     1     -11.503   9.130  70.576  1.00  0.00    -0.262 OA 
ENDBRANCH  24  27
ENDBRANCH  22  23
ENDBRANCH  21  22
ENDBRANCH  20  21
ENDBRANCH  18  20
ENDBRANCH  14  18
ENDBRANCH   2   3
TORSDOF 8
ENDMDL
MODEL      116
REMARK 921   NORMALIZED FREE ENERGY PREDICTED BY IDOCK:   -4.80 KCAL/MOL
REMARK 922        TOTAL FREE ENERGY PREDICTED BY IDOCK:   -8.59 KCAL/MOL
REMARK 923 INTER-LIGAND FREE ENERGY PREDICTED BY IDOCK:   -7.86 KCAL/MOL
REMARK 924 INTRA-LIGAND FREE ENERGY PREDICTED BY IDOCK:   -0.72 KCAL/MOL
REMARK 927      BINDING AFFINITY PREDICTED BY RF-SCORE:    0.00 PKD
ROOT
HETATM    1  C   UNL     1      -8.428   8.483  63.635  1.00  0.00    -0.021 C  
HETATM    2  O   UNL     1      -8.230   8.324  65.040  1.00  0.00    -0.146 OA 
ENDROOT
BRANCH   2   3
HETATM    3  C   UNL     1      -9.168   8.932  65.836  1.00  0.00    -0.229 A  
HETATM    4  C   UNL     1      -9.537  10.273  65.630  1.00  0.00    -0.289 A  
HETATM    5  C   UNL     1     -10.390  10.955  66.482  1.00  0.00    -0.247 A  
HETATM    6  C   UNL     1     -10.948  10.263  67.548  1.00  0.00    -0.344 A  
HETATM    7  C   UNL     1     -10.682   8.881  67.703  1.00  0.00    -0.221 A  
HETATM    8  C   UNL     1     -11.737  11.040  68.394  1.00  0.00    -0.259 A  
HETATM    9  N   UNL     1     -12.421  10.483  69.480  1.00  0.00    -0.655 NA 
HETATM   10  N   UNL     1     -11.916  12.356  68.223  1.00  0.00    -0.333 NA 
HETATM   11  C   UNL     1      -9.786   8.210  66.862  1.00  0.00    -0.226 A  
HETATM   12  N   UNL     1     -10.618  12.252  66.263  1.00  0.00    -0.245 NA 
HETATM   13  H2  UNL     1     -11.741   9.986  70.055  1.00  0.00     0.000 HD 
HETATM   14  C   UNL     1     -11.351  12.932  67.154  1.00  0.00    -0.306 A  
HETATM   15  H1  UNL     1     -12.998  11.053  70.098  1.00  0.00     0.000 HD 
BRANCH  11  16
HETATM   16  O   UNL     1      -9.638   6.896  67.212  1.00  0.00    -0.133 OA 
HETATM   17  C   UNL     1     -10.569   5.938  66.734  1.00  0.00    -0.300 C  
ENDBRANCH  11  16
BRANCH  14  18
HETATM   18  N   UNL     1     -11.561  14.274  66.948  1.00  0.00    -0.369 NA 
HETATM   19  C   UNL     1     -11.887  15.122  68.074  1.00  0.00    -0.202 C  
BRANCH  18  20
HETATM   20  C   UNL     1     -11.289  14.869  65.650  1.00  0.00    -0.325 C  
BRANCH  20  21
HETATM   21  C   UNL     1     -10.356  16.082  65.768  1.00  0.00    -0.398 C  
BRANCH  21  22
HETATM   22  C   UNL     1      -8.930  15.688  66.152  1.00  0.00    -0.327 C  
BRANCH  22  23
HETATM   23  N   UNL     1      -8.063  16.840  66.284  1.00  0.00    -0.323 N  
HETATM   24  C   UNL     1      -7.976  17.572  67.444  1.00  0.00    -0.204 C  
HETATM   25  H   UNL     1      -7.494  17.119  65.485  1.00  0.00     0.000 HD 
HETATM   26  O   UNL     1      -8.640  17.328  68.447  1.00  0.00    -0.236 OA 
BRANCH  24  27
HETATM   27  C   UNL     1      -6.975  18.734  67.386  1.00  0.00    -0.205 C  
HETATM   28  C   UNL     1      -7.689  20.020  67.015  1.00  0.00    -0.329 C  
HETATM   29  C   UNL     1      -6.733  21.071  67.512  1.00  0.00    -0.428 C  
HETATM   30  C   UNL     1      -6.156  20.431  68.758  1.00  0.00    -0.331 C  
HETATM   31  O   UNL     1      -6.289  19.007  68.618  1.00  0.00    -0.230 OA 
ENDBRANCH  24  27
ENDBRANCH  22  23
ENDBRANCH  21  22
ENDBRANCH  20  21
ENDBRANCH  18  20
ENDBRANCH  14  18
ENDBRANCH   2   3
TORSDOF 8
ENDMDL
MODEL      117
REMARK 921   NORMALIZED FREE ENERGY PREDICTED BY IDOCK:   -4.80 KCAL/MOL
REMARK 922        TOTAL FREE ENERGY PREDICTED BY IDOCK:   -8.58 KCAL/MOL
REMARK 923 INTER-LIGAND FREE ENERGY PREDICTED BY IDOCK:   -8.05 KCAL/MOL
REMARK 924 INTRA-LIGAND FREE ENERGY PREDICTED BY IDOCK:   -0.53 KCAL/MOL
REMARK 927      BINDING AFFINITY PREDICTED BY RF-SCORE:    0.00 PKD
ROOT
HETATM    1  C   UNL     1      -8.055  17.634  68.565  1.00  0.00    -0.283 C  
HETATM    2  O   UNL     1      -8.248  17.278  67.197  1.00  0.00    -0.193 OA 
ENDROOT
BRANCH   2   3
HETATM    3  C   UNL     1      -9.290  16.420  66.956  1.00  0.00    -0.228 A  
HETATM    4  C   UNL     1      -9.408  15.205  67.655  1.00  0.00    -0.189 A  
HETATM    5  C   UNL     1     -10.377  14.261  67.358  1.00  0.00    -0.259 A  
HETATM    6  C   UNL     1     -11.305  14.558  66.371  1.00  0.00    -0.349 A  
HETATM    7  C   UNL     1     -11.276  15.825  65.739  1.00  0.00    -0.025 A  
HETATM    8  C   UNL     1     -12.200  13.527  66.088  1.00  0.00    -0.433 A  
HETATM    9  N   UNL     1     -13.237  13.686  65.162  1.00  0.00    -0.667 NA 
HETATM   10  N   UNL     1     -12.151  12.330  66.687  1.00  0.00    -0.589 NA 
HETATM   11  C   UNL     1     -10.268  16.756  66.014  1.00  0.00    -0.346 A  
HETATM   12  N   UNL     1     -10.363  13.096  68.011  1.00  0.00    -0.231 NA 
HETATM   13  H2  UNL     1     -12.824  13.993  64.281  1.00  0.00     0.000 HD 
HETATM   14  C   UNL     1     -11.230  12.145  67.641  1.00  0.00    -0.286 A  
HETATM   15  H1  UNL     1     -13.891  12.932  64.956  1.00  0.00     0.000 HD 
BRANCH  11  16
HETATM   16  O   UNL     1     -10.399  17.892  65.265  1.00  0.00    -0.470 OA 
HETATM   17  C   UNL     1     -10.649  19.130  65.911  1.00  0.00    -0.415 C  
ENDBRANCH  11  16
BRANCH  14  18
HETATM   18  N   UNL     1     -11.197  10.934  68.290  1.00  0.00    -0.263 NA 
HETATM   19  C   UNL     1     -10.685   9.772  67.597  1.00  0.00    -0.274 C  
BRANCH  18  20
HETATM   20  C   UNL     1     -11.505  10.852  69.708  1.00  0.00    -0.313 C  
BRANCH  20  21
HETATM   21  C   UNL     1     -10.523   9.934  70.449  1.00  0.00    -0.347 C  
BRANCH  21  22
HETATM   22  C   UNL     1     -11.230   8.799  71.189  1.00  0.00    -0.277 C  
BRANCH  22  23
HETATM   23  N   UNL     1     -10.519   7.543  71.067  1.00  0.00    -0.214 N  
HETATM   24  C   UNL     1     -10.333   6.692  72.130  1.00  0.00    -0.200 C  
HETATM   25  H   UNL     1     -10.142   7.280  70.156  1.00  0.00     0.000 HD 
HETATM   26  O   UNL     1     -10.727   6.936  73.266  1.00  0.00    -0.284 OA 
BRANCH  24  27
HETATM   27  C   UNL     1      -9.582   5.399  71.782  1.00  0.00    -0.149 C  
HETATM   28  C   UNL     1     -10.303   4.202  72.374  1.00  0.00    -0.217 C  
HETATM   29  C   UNL     1      -9.783   3.068  71.532  1.00  0.00    -0.223 C  
HETATM   30  C   UNL     1      -9.618   3.715  70.172  1.00  0.00    -0.172 C  
HETATM   31  O   UNL     1      -9.460   5.128  70.377  1.00  0.00    -0.151 OA 
ENDBRANCH  24  27
ENDBRANCH  22  23
ENDBRANCH  21  22
ENDBRANCH  20  21
ENDBRANCH  18  20
ENDBRANCH  14  18
ENDBRANCH   2   3
TORSDOF 8
ENDMDL
MODEL      118
REMARK 921   NORMALIZED FREE ENERGY PREDICTED BY IDOCK:   -4.80 KCAL/MOL
REMARK 922        TOTAL FREE ENERGY PREDICTED BY IDOCK:   -8.57 KCAL/MOL
REMARK 923 INTER-LIGAND FREE ENERGY PREDICTED BY IDOCK:   -7.07 KCAL/MOL
REMARK 924 INTRA-LIGAND FREE ENERGY PREDICTED BY IDOCK:   -1.51 KCAL/MOL
REMARK 927      BINDING AFFINITY PREDICTED BY RF-SCORE:    0.00 PKD
ROOT
HETATM    1  C   UNL     1     -10.380  11.177  64.423  1.00  0.00    -0.344 C  
HETATM    2  O   UNL     1      -9.643   9.978  64.184  1.00  0.00    -0.292 OA 
ENDROOT
BRANCH   2   3
HETATM    3  C   UNL     1      -9.158   9.355  65.305  1.00  0.00    -0.232 A  
HETATM    4  C   UNL     1     -10.013   8.980  66.356  1.00  0.00    -0.370 A  
HETATM    5  C   UNL     1      -9.547   8.457  67.551  1.00  0.00    -0.154 A  
HETATM    6  C   UNL     1      -8.183   8.240  67.687  1.00  0.00    -0.127 A  
HETATM    7  C   UNL     1      -7.319   8.500  66.596  1.00  0.00    -0.081 A  
HETATM    8  C   UNL     1      -7.794   7.779  68.943  1.00  0.00    -0.122 A  
HETATM    9  N   UNL     1      -6.463   7.452  69.227  1.00  0.00    -0.036 NA 
HETATM   10  N   UNL     1      -8.652   7.594  69.955  1.00  0.00    -0.137 NA 
HETATM   11  C   UNL     1      -7.792   9.068  65.408  1.00  0.00    -0.101 A  
HETATM   12  N   UNL     1     -10.421   8.210  68.530  1.00  0.00    -0.193 NA 
HETATM   13  H2  UNL     1      -5.887   8.263  68.999  1.00  0.00     0.000 HD 
HETATM   14  C   UNL     1      -9.952   7.814  69.720  1.00  0.00    -0.189 A  
HETATM   15  H1  UNL     1      -6.179   7.115  70.146  1.00  0.00     0.000 HD 
BRANCH  11  16
HETATM   16  O   UNL     1      -6.789   9.278  64.503  1.00  0.00    -0.085 OA 
HETATM   17  C   UNL     1      -6.083   8.168  63.974  1.00  0.00    -0.066 C  
ENDBRANCH  11  16
BRANCH  14  18
HETATM   18  N   UNL     1     -10.846   7.589  70.740  1.00  0.00    -0.237 NA 
HETATM   19  C   UNL     1     -11.520   6.312  70.824  1.00  0.00    -0.316 C  
BRANCH  18  20
HETATM   20  C   UNL     1     -10.984   8.552  71.820  1.00  0.00    -0.306 C  
BRANCH  20  21
HETATM   21  C   UNL     1     -12.441   8.671  72.289  1.00  0.00    -0.460 C  
BRANCH  21  22
HETATM   22  C   UNL     1     -13.347   9.294  71.228  1.00  0.00    -0.258 C  
BRANCH  22  23
HETATM   23  N   UNL     1     -12.630  10.213  70.369  1.00  0.00    -0.516 N  
HETATM   24  C   UNL     1     -12.534  11.557  70.640  1.00  0.00    -0.314 C  
HETATM   25  H   UNL     1     -12.178   9.848  69.531  1.00  0.00     0.000 HD 
HETATM   26  O   UNL     1     -13.066  12.090  71.609  1.00  0.00    -0.427 OA 
BRANCH  24  27
HETATM   27  C   UNL     1     -11.702  12.350  69.622  1.00  0.00    -0.307 C  
HETATM   28  C   UNL     1     -11.819  11.716  68.248  1.00  0.00    -0.335 C  
HETATM   29  C   UNL     1     -11.427  12.850  67.339  1.00  0.00    -0.388 C  
HETATM   30  C   UNL     1     -11.979  14.060  68.064  1.00  0.00    -0.350 C  
HETATM   31  O   UNL     1     -12.092  13.722  69.456  1.00  0.00    -0.324 OA 
ENDBRANCH  24  27
ENDBRANCH  22  23
ENDBRANCH  21  22
ENDBRANCH  20  21
ENDBRANCH  18  20
ENDBRANCH  14  18
ENDBRANCH   2   3
TORSDOF 8
ENDMDL
MODEL      119
REMARK 921   NORMALIZED FREE ENERGY PREDICTED BY IDOCK:   -4.79 KCAL/MOL
REMARK 922        TOTAL FREE ENERGY PREDICTED BY IDOCK:   -8.56 KCAL/MOL
REMARK 923 INTER-LIGAND FREE ENERGY PREDICTED BY IDOCK:   -7.03 KCAL/MOL
REMARK 924 INTRA-LIGAND FREE ENERGY PREDICTED BY IDOCK:   -1.54 KCAL/MOL
REMARK 927      BINDING AFFINITY PREDICTED BY RF-SCORE:    0.00 PKD
ROOT
HETATM    1  C   UNL     1     -10.552  16.068  67.875  1.00  0.00    -0.301 C  
HETATM    2  O   UNL     1     -11.686  15.330  67.419  1.00  0.00    -0.268 OA 
ENDROOT
BRANCH   2   3
HETATM    3  C   UNL     1     -11.556  13.966  67.473  1.00  0.00    -0.360 A  
HETATM    4  C   UNL     1     -11.853  13.253  68.648  1.00  0.00    -0.380 A  
HETATM    5  C   UNL     1     -11.623  11.892  68.777  1.00  0.00    -0.309 A  
HETATM    6  C   UNL     1     -11.137  11.200  67.677  1.00  0.00    -0.348 A  
HETATM    7  C   UNL     1     -10.945  11.878  66.450  1.00  0.00    -0.337 A  
HETATM    8  C   UNL     1     -10.868   9.853  67.915  1.00  0.00    -0.258 A  
HETATM    9  N   UNL     1     -10.431   8.999  66.896  1.00  0.00    -0.250 NA 
HETATM   10  N   UNL     1     -11.026   9.274  69.112  1.00  0.00    -0.125 NA 
HETATM   11  C   UNL     1     -11.139  13.260  66.339  1.00  0.00    -0.295 A  
HETATM   12  N   UNL     1     -11.850  11.310  69.957  1.00  0.00    -0.337 NA 
HETATM   13  H2  UNL     1      -9.599   9.414  66.476  1.00  0.00     0.000 HD 
HETATM   14  C   UNL     1     -11.518  10.021  70.109  1.00  0.00    -0.277 A  
HETATM   15  H1  UNL     1     -10.235   8.014  67.070  1.00  0.00     0.000 HD 
BRANCH  11  16
HETATM   16  O   UNL     1     -10.856  13.720  65.084  1.00  0.00    -0.310 OA 
HETATM   17  C   UNL     1     -11.585  13.218  63.975  1.00  0.00    -0.409 C  
ENDBRANCH  11  16
BRANCH  14  18
HETATM   18  N   UNL     1     -11.721   9.428  71.331  1.00  0.00    -0.349 NA 
HETATM   19  C   UNL     1     -12.829   9.860  72.154  1.00  0.00    -0.345 C  
BRANCH  18  20
HETATM   20  C   UNL     1     -10.945   8.262  71.719  1.00  0.00    -0.278 C  
BRANCH  20  21
HETATM   21  C   UNL     1      -9.593   8.659  72.328  1.00  0.00    -0.348 C  
BRANCH  21  22
HETATM   22  C   UNL     1      -8.414   7.999  71.614  1.00  0.00    -0.125 C  
BRANCH  22  23
HETATM   23  N   UNL     1      -8.728   7.660  70.242  1.00  0.00    -0.143 N  
HETATM   24  C   UNL     1      -8.248   6.525  69.632  1.00  0.00    -0.126 C  
HETATM   25  H   UNL     1      -9.329   8.287  69.707  1.00  0.00     0.000 HD 
HETATM   26  O   UNL     1      -7.498   5.727  70.187  1.00  0.00    -0.077 OA 
BRANCH  24  27
HETATM   27  C   UNL     1      -8.724   6.335  68.186  1.00  0.00    -0.115 C  
HETATM   28  C   UNL     1      -7.967   5.194  67.533  1.00  0.00    -0.100 C  
HETATM   29  C   UNL     1      -8.878   4.813  66.398  1.00  0.00    -0.113 C  
HETATM   30  C   UNL     1     -10.254   5.051  66.985  1.00  0.00    -0.208 C  
HETATM   31  O   UNL     1     -10.117   6.014  68.042  1.00  0.00    -0.136 OA 
ENDBRANCH  24  27
ENDBRANCH  22  23
ENDBRANCH  21  22
ENDBRANCH  20  21
ENDBRANCH  18  20
ENDBRANCH  14  18
ENDBRANCH   2   3
TORSDOF 8
ENDMDL
MODEL      120
REMARK 921   NORMALIZED FREE ENERGY PREDICTED BY IDOCK:   -4.78 KCAL/MOL
REMARK 922        TOTAL FREE ENERGY PREDICTED BY IDOCK:   -8.56 KCAL/MOL
REMARK 923 INTER-LIGAND FREE ENERGY PREDICTED BY IDOCK:   -7.95 KCAL/MOL
REMARK 924 INTRA-LIGAND FREE ENERGY PREDICTED BY IDOCK:   -0.61 KCAL/MOL
REMARK 927      BINDING AFFINITY PREDICTED BY RF-SCORE:    0.00 PKD
ROOT
HETATM    1  C   UNL     1      -8.400   4.796  67.213  1.00  0.00    -0.105 C  
HETATM    2  O   UNL     1      -9.321   4.079  68.035  1.00  0.00    -0.145 OA 
ENDROOT
BRANCH   2   3
HETATM    3  C   UNL     1      -9.598   4.658  69.246  1.00  0.00    -0.181 A  
HETATM    4  C   UNL     1     -10.526   5.709  69.355  1.00  0.00    -0.367 A  
HETATM    5  C   UNL     1     -10.745   6.396  70.539  1.00  0.00    -0.257 A  
HETATM    6  C   UNL     1     -10.061   5.985  71.674  1.00  0.00    -0.227 A  
HETATM    7  C   UNL     1      -9.213   4.854  71.611  1.00  0.00    -0.179 A  
HETATM    8  C   UNL     1     -10.286   6.773  72.801  1.00  0.00    -0.209 A  
HETATM    9  N   UNL     1      -9.722   6.460  74.043  1.00  0.00    -0.203 NA 
HETATM   10  N   UNL     1     -11.066   7.862  72.790  1.00  0.00    -0.386 NA 
HETATM   11  C   UNL     1      -8.964   4.192  70.403  1.00  0.00    -0.092 A  
HETATM   12  N   UNL     1     -11.578   7.439  70.533  1.00  0.00    -0.264 NA 
HETATM   13  H2  UNL     1      -8.713   6.378  73.915  1.00  0.00     0.000 HD 
HETATM   14  C   UNL     1     -11.698   8.168  71.650  1.00  0.00    -0.287 A  
HETATM   15  H1  UNL     1      -9.887   7.037  74.867  1.00  0.00     0.000 HD 
BRANCH  11  16
HETATM   16  O   UNL     1      -8.084   3.157  70.555  1.00  0.00    -0.046 OA 
HETATM   17  C   UNL     1      -6.744   3.310  70.113  1.00  0.00    -0.033 C  
ENDBRANCH  11  16
BRANCH  14  18
HETATM   18  N   UNL     1     -12.531   9.261  71.638  1.00  0.00    -0.345 NA 
HETATM   19  C   UNL     1     -13.843   9.158  72.238  1.00  0.00    -0.463 C  
BRANCH  18  20
HETATM   20  C   UNL     1     -12.041  10.553  71.189  1.00  0.00    -0.370 C  
BRANCH  20  21
HETATM   21  C   UNL     1     -12.448  10.840  69.737  1.00  0.00    -0.231 C  
BRANCH  21  22
HETATM   22  C   UNL     1     -11.845  12.141  69.207  1.00  0.00    -0.313 C  
BRANCH  22  23
HETATM   23  N   UNL     1     -11.896  12.216  67.762  1.00  0.00    -0.317 N  
HETATM   24  C   UNL     1     -11.764  13.401  67.078  1.00  0.00    -0.381 C  
HETATM   25  H   UNL     1     -12.035  11.357  67.231  1.00  0.00     0.000 HD 
HETATM   26  O   UNL     1     -11.620  14.487  67.632  1.00  0.00    -0.344 OA 
BRANCH  24  27
HETATM   27  C   UNL     1     -11.815  13.259  65.550  1.00  0.00    -0.370 C  
HETATM   28  C   UNL     1     -11.002  12.055  65.112  1.00  0.00    -0.359 C  
HETATM   29  C   UNL     1     -11.575  11.763  63.751  1.00  0.00    -0.508 C  
HETATM   30  C   UNL     1     -13.035  12.125  63.922  1.00  0.00    -0.205 C  
HETATM   31  O   UNL     1     -13.128  13.068  65.001  1.00  0.00    -0.761 OA 
ENDBRANCH  24  27
ENDBRANCH  22  23
ENDBRANCH  21  22
ENDBRANCH  20  21
ENDBRANCH  18  20
ENDBRANCH  14  18
ENDBRANCH   2   3
TORSDOF 8
ENDMDL
MODEL      121
REMARK 921   NORMALIZED FREE ENERGY PREDICTED BY IDOCK:   -4.78 KCAL/MOL
REMARK 922        TOTAL FREE ENERGY PREDICTED BY IDOCK:   -8.55 KCAL/MOL
REMARK 923 INTER-LIGAND FREE ENERGY PREDICTED BY IDOCK:   -7.90 KCAL/MOL
REMARK 924 INTRA-LIGAND FREE ENERGY PREDICTED BY IDOCK:   -0.65 KCAL/MOL
REMARK 927      BINDING AFFINITY PREDICTED BY RF-SCORE:    0.00 PKD
ROOT
HETATM    1  C   UNL     1     -10.703   9.300  71.069  1.00  0.00    -0.316 C  
HETATM    2  O   UNL     1     -10.637   8.349  70.007  1.00  0.00    -0.227 OA 
ENDROOT
BRANCH   2   3
HETATM    3  C   UNL     1     -10.438   8.880  68.758  1.00  0.00    -0.200 A  
HETATM    4  C   UNL     1     -10.662  10.244  68.503  1.00  0.00    -0.262 A  
HETATM    5  C   UNL     1     -10.585  10.792  67.232  1.00  0.00    -0.257 A  
HETATM    6  C   UNL     1     -10.211   9.966  66.182  1.00  0.00    -0.277 A  
HETATM    7  C   UNL     1      -9.865   8.618  66.438  1.00  0.00    -0.341 A  
HETATM    8  C   UNL     1     -10.227  10.580  64.930  1.00  0.00    -0.300 A  
HETATM    9  N   UNL     1      -9.818   9.905  63.775  1.00  0.00    -0.467 NA 
HETATM   10  N   UNL     1     -10.608  11.850  64.742  1.00  0.00    -0.285 NA 
HETATM   11  C   UNL     1      -9.986   8.061  67.717  1.00  0.00    -0.175 A  
HETATM   12  N   UNL     1     -10.900  12.078  67.065  1.00  0.00    -0.241 NA 
HETATM   13  H2  UNL     1     -10.360   9.043  63.708  1.00  0.00     0.000 HD 
HETATM   14  C   UNL     1     -10.935  12.572  65.821  1.00  0.00    -0.292 A  
HETATM   15  H1  UNL     1      -9.829  10.354  62.860  1.00  0.00     0.000 HD 
BRANCH  11  16
HETATM   16  O   UNL     1      -9.646   6.738  67.736  1.00  0.00    -0.125 OA 
HETATM   17  C   UNL     1      -8.276   6.370  67.774  1.00  0.00    -0.118 C  
ENDBRANCH  11  16
BRANCH  14  18
HETATM   18  N   UNL     1     -11.290  13.888  65.643  1.00  0.00    -0.305 NA 
HETATM   19  C   UNL     1     -12.663  14.215  65.329  1.00  0.00    -0.403 C  
BRANCH  18  20
HETATM   20  C   UNL     1     -10.342  14.950  65.938  1.00  0.00    -0.314 C  
BRANCH  20  21
HETATM   21  C   UNL     1     -10.899  15.932  66.978  1.00  0.00    -0.252 C  
BRANCH  21  22
HETATM   22  C   UNL     1     -10.033  16.004  68.236  1.00  0.00    -0.220 C  
BRANCH  22  23
HETATM   23  N   UNL     1      -8.859  16.829  68.042  1.00  0.00    -0.212 N  
HETATM   24  C   UNL     1      -8.838  18.169  68.346  1.00  0.00    -0.293 C  
HETATM   25  H   UNL     1      -8.014  16.398  67.666  1.00  0.00     0.000 HD 
HETATM   26  O   UNL     1      -9.812  18.778  68.779  1.00  0.00    -0.368 OA 
BRANCH  24  27
HETATM   27  C   UNL     1      -7.486  18.853  68.097  1.00  0.00    -0.270 C  
HETATM   28  C   UNL     1      -7.684  20.116  67.278  1.00  0.00    -0.341 C  
HETATM   29  C   UNL     1      -6.431  20.892  67.581  1.00  0.00    -0.398 C  
HETATM   30  C   UNL     1      -6.156  20.527  69.025  1.00  0.00    -0.332 C  
HETATM   31  O   UNL     1      -6.784  19.260  69.282  1.00  0.00    -0.304 OA 
ENDBRANCH  24  27
ENDBRANCH  22  23
ENDBRANCH  21  22
ENDBRANCH  20  21
ENDBRANCH  18  20
ENDBRANCH  14  18
ENDBRANCH   2   3
TORSDOF 8
ENDMDL
MODEL      122
REMARK 921   NORMALIZED FREE ENERGY PREDICTED BY IDOCK:   -4.75 KCAL/MOL
REMARK 922        TOTAL FREE ENERGY PREDICTED BY IDOCK:   -8.50 KCAL/MOL
REMARK 923 INTER-LIGAND FREE ENERGY PREDICTED BY IDOCK:   -7.73 KCAL/MOL
REMARK 924 INTRA-LIGAND FREE ENERGY PREDICTED BY IDOCK:   -0.77 KCAL/MOL
REMARK 927      BINDING AFFINITY PREDICTED BY RF-SCORE:    0.00 PKD
ROOT
HETATM    1  C   UNL     1      -9.252   6.644  66.456  1.00  0.00    -0.158 C  
HETATM    2  O   UNL     1      -9.131   6.101  67.770  1.00  0.00    -0.119 OA 
ENDROOT
BRANCH   2   3
HETATM    3  C   UNL     1      -9.917   6.695  68.724  1.00  0.00    -0.144 A  
HETATM    4  C   UNL     1     -10.298   8.044  68.615  1.00  0.00    -0.224 A  
HETATM    5  C   UNL     1     -10.991   8.709  69.614  1.00  0.00    -0.091 A  
HETATM    6  C   UNL     1     -11.374   7.993  70.739  1.00  0.00    -0.282 A  
HETATM    7  C   UNL     1     -11.104   6.606  70.812  1.00  0.00    -0.336 A  
HETATM    8  C   UNL     1     -12.003   8.754  71.722  1.00  0.00    -0.349 A  
HETATM    9  N   UNL     1     -12.507   8.174  72.892  1.00  0.00    -0.653 NA 
HETATM   10  N   UNL     1     -12.192  10.076  71.617  1.00  0.00    -0.392 NA 
HETATM   11  C   UNL     1     -10.367   5.950  69.820  1.00  0.00    -0.243 A  
HETATM   12  N   UNL     1     -11.235  10.014  69.468  1.00  0.00    -0.229 NA 
HETATM   13  H2  UNL     1     -11.748   7.656  73.335  1.00  0.00     0.000 HD 
HETATM   14  C   UNL     1     -11.803  10.676  70.484  1.00  0.00    -0.357 A  
HETATM   15  H1  UNL     1     -12.967   8.731  73.611  1.00  0.00     0.000 HD 
BRANCH  11  16
HETATM   16  O   UNL     1     -10.181   4.626  70.107  1.00  0.00    -0.240 OA 
HETATM   17  C   UNL     1      -9.998   4.223  71.455  1.00  0.00    -0.168 C  
ENDBRANCH  11  16
BRANCH  14  18
HETATM   18  N   UNL     1     -12.027  12.025  70.349  1.00  0.00    -0.337 NA 
HETATM   19  C   UNL     1     -12.048  12.611  69.028  1.00  0.00    -0.139 C  
BRANCH  18  20
HETATM   20  C   UNL     1     -12.413  12.823  71.501  1.00  0.00    -0.038 C  
BRANCH  20  21
HETATM   21  C   UNL     1     -13.473  13.871  71.133  1.00  0.00    -0.199 C  
BRANCH  21  22
HETATM   22  C   UNL     1     -12.964  15.302  71.304  1.00  0.00    -0.441 C  
BRANCH  22  23
HETATM   23  N   UNL     1     -12.639  15.920  70.036  1.00  0.00    -0.572 N  
HETATM   24  C   UNL     1     -11.344  16.172  69.646  1.00  0.00    -0.316 C  
HETATM   25  H   UNL     1     -13.399  16.178  69.407  1.00  0.00     0.000 HD 
HETATM   26  O   UNL     1     -10.368  15.921  70.347  1.00  0.00    -0.198 OA 
BRANCH  24  27
HETATM   27  C   UNL     1     -11.215  16.803  68.253  1.00  0.00    -0.167 C  
HETATM   28  C   UNL     1     -10.280  17.997  68.306  1.00  0.00    -0.402 C  
HETATM   29  C   UNL     1      -9.863  18.140  66.867  1.00  0.00    -0.331 C  
HETATM   30  C   UNL     1      -9.816  16.703  66.392  1.00  0.00    -0.292 C  
HETATM   31  O   UNL     1     -10.684  15.934  67.240  1.00  0.00    -0.313 OA 
ENDBRANCH  24  27
ENDBRANCH  22  23
ENDBRANCH  21  22
ENDBRANCH  20  21
ENDBRANCH  18  20
ENDBRANCH  14  18
ENDBRANCH   2   3
TORSDOF 8
ENDMDL
MODEL      123
REMARK 921   NORMALIZED FREE ENERGY PREDICTED BY IDOCK:   -4.73 KCAL/MOL
REMARK 922        TOTAL FREE ENERGY PREDICTED BY IDOCK:   -8.48 KCAL/MOL
REMARK 923 INTER-LIGAND FREE ENERGY PREDICTED BY IDOCK:   -7.13 KCAL/MOL
REMARK 924 INTRA-LIGAND FREE ENERGY PREDICTED BY IDOCK:   -1.35 KCAL/MOL
REMARK 927      BINDING AFFINITY PREDICTED BY RF-SCORE:    0.00 PKD
ROOT
HETATM    1  C   UNL     1     -11.932  12.872  69.382  1.00  0.00    -0.269 C  
HETATM    2  O   UNL     1     -12.116  13.213  68.008  1.00  0.00    -0.325 OA 
ENDROOT
BRANCH   2   3
HETATM    3  C   UNL     1     -11.583  12.327  67.108  1.00  0.00    -0.353 A  
HETATM    4  C   UNL     1     -10.867  11.196  67.538  1.00  0.00    -0.303 A  
HETATM    5  C   UNL     1     -10.215  10.344  66.661  1.00  0.00    -0.234 A  
HETATM    6  C   UNL     1     -10.329  10.587  65.300  1.00  0.00    -0.300 A  
HETATM    7  C   UNL     1     -11.144  11.650  64.843  1.00  0.00    -0.317 A  
HETATM    8  C   UNL     1      -9.586   9.725  64.494  1.00  0.00    -0.131 A  
HETATM    9  N   UNL     1      -9.638   9.796  63.098  1.00  0.00    -0.530 NA 
HETATM   10  N   UNL     1      -8.794   8.763  64.985  1.00  0.00    -0.153 NA 
HETATM   11  C   UNL     1     -11.764  12.532  65.736  1.00  0.00    -0.426 A  
HETATM   12  N   UNL     1      -9.484   9.344  67.159  1.00  0.00    -0.141 NA 
HETATM   13  H2  UNL     1      -9.412  10.752  62.825  1.00  0.00     0.000 HD 
HETATM   14  C   UNL     1      -8.765   8.594  66.314  1.00  0.00    -0.143 A  
HETATM   15  H1  UNL     1      -9.095   9.165  62.509  1.00  0.00     0.000 HD 
BRANCH  11  16
HETATM   16  O   UNL     1     -12.465  13.511  65.088  1.00  0.00    -0.424 OA 
HETATM   17  C   UNL     1     -11.785  14.668  64.627  1.00  0.00    -0.426 C  
ENDBRANCH  11  16
BRANCH  14  18
HETATM   18  N   UNL     1      -7.986   7.584  66.826  1.00  0.00    -0.112 NA 
HETATM   19  C   UNL     1      -7.163   7.843  67.987  1.00  0.00    -0.090 C  
BRANCH  18  20
HETATM   20  C   UNL     1      -8.117   6.228  66.321  1.00  0.00    -0.114 C  
BRANCH  20  21
HETATM   21  C   UNL     1      -8.059   5.194  67.453  1.00  0.00    -0.100 C  
BRANCH  21  22
HETATM   22  C   UNL     1      -9.432   4.605  67.778  1.00  0.00    -0.152 C  
BRANCH  22  23
HETATM   23  N   UNL     1     -10.075   5.294  68.877  1.00  0.00    -0.184 N  
HETATM   24  C   UNL     1     -11.069   6.224  68.686  1.00  0.00    -0.325 C  
HETATM   25  H   UNL     1      -9.779   5.081  69.829  1.00  0.00     0.000 HD 
HETATM   26  O   UNL     1     -11.472   6.563  67.578  1.00  0.00    -0.168 OA 
BRANCH  24  27
HETATM   27  C   UNL     1     -11.641   6.814  69.983  1.00  0.00    -0.310 C  
HETATM   28  C   UNL     1     -11.223   5.966  71.170  1.00  0.00    -0.281 C  
HETATM   29  C   UNL     1     -11.387   6.923  72.319  1.00  0.00    -0.306 C  
HETATM   30  C   UNL     1     -11.001   8.251  71.702  1.00  0.00    -0.264 C  
HETATM   31  O   UNL     1     -11.209   8.150  70.284  1.00  0.00    -0.253 OA 
ENDBRANCH  24  27
ENDBRANCH  22  23
ENDBRANCH  21  22
ENDBRANCH  20  21
ENDBRANCH  18  20
ENDBRANCH  14  18
ENDBRANCH   2   3
TORSDOF 8
ENDMDL
MODEL      124
REMARK 921   NORMALIZED FREE ENERGY PREDICTED BY IDOCK:   -4.73 KCAL/MOL
REMARK 922        TOTAL FREE ENERGY PREDICTED BY IDOCK:   -8.48 KCAL/MOL
REMARK 923 INTER-LIGAND FREE ENERGY PREDICTED BY IDOCK:   -7.72 KCAL/MOL
REMARK 924 INTRA-LIGAND FREE ENERGY PREDICTED BY IDOCK:   -0.76 KCAL/MOL
REMARK 927      BINDING AFFINITY PREDICTED BY RF-SCORE:    0.00 PKD
ROOT
HETATM    1  C   UNL     1     -10.451  20.317  65.479  1.00  0.00    -0.024 C  
HETATM    2  O   UNL     1      -9.824  20.013  66.725  1.00  0.00    -0.387 OA 
ENDROOT
BRANCH   2   3
HETATM    3  C   UNL     1      -9.643  18.678  66.980  1.00  0.00    -0.304 A  
HETATM    4  C   UNL     1     -10.214  17.696  66.150  1.00  0.00    -0.345 A  
HETATM    5  C   UNL     1     -10.152  16.343  66.440  1.00  0.00    -0.316 A  
HETATM    6  C   UNL     1      -9.445  15.942  67.565  1.00  0.00    -0.219 A  
HETATM    7  C   UNL     1      -8.764  16.906  68.346  1.00  0.00    -0.244 A  
HETATM    8  C   UNL     1      -9.493  14.572  67.820  1.00  0.00    -0.210 A  
HETATM    9  N   UNL     1      -8.783  13.997  68.880  1.00  0.00    -0.367 NA 
HETATM   10  N   UNL     1     -10.193  13.711  67.071  1.00  0.00    -0.248 NA 
HETATM   11  C   UNL     1      -8.866  18.275  68.071  1.00  0.00    -0.280 A  
HETATM   12  N   UNL     1     -10.796  15.484  65.646  1.00  0.00    -0.346 NA 
HETATM   13  H2  UNL     1      -9.049  14.484  69.736  1.00  0.00     0.000 HD 
HETATM   14  C   UNL     1     -10.829  14.192  65.994  1.00  0.00    -0.297 A  
HETATM   15  H1  UNL     1      -8.818  12.995  69.066  1.00  0.00     0.000 HD 
BRANCH  11  16
HETATM   16  O   UNL     1      -8.170  19.033  68.970  1.00  0.00    -0.296 OA 
HETATM   17  C   UNL     1      -6.757  19.109  68.874  1.00  0.00    -0.301 C  
ENDBRANCH  11  16
BRANCH  14  18
HETATM   18  N   UNL     1     -11.518  13.311  65.196  1.00  0.00    -0.290 NA 
HETATM   19  C   UNL     1     -12.187  13.801  64.011  1.00  0.00    -0.380 C  
BRANCH  18  20
HETATM   20  C   UNL     1     -11.432  11.880  65.437  1.00  0.00    -0.251 C  
BRANCH  20  21
HETATM   21  C   UNL     1     -10.474  11.196  64.453  1.00  0.00    -0.418 C  
BRANCH  21  22
HETATM   22  C   UNL     1      -9.398  10.373  65.161  1.00  0.00    -0.222 C  
BRANCH  22  23
HETATM   23  N   UNL     1      -9.912   9.111  65.651  1.00  0.00    -0.425 N  
HETATM   24  C   UNL     1     -10.018   8.825  66.991  1.00  0.00    -0.240 C  
HETATM   25  H   UNL     1     -10.207   8.406  64.975  1.00  0.00     0.000 HD 
HETATM   26  O   UNL     1      -9.664   9.599  67.876  1.00  0.00    -0.142 OA 
BRANCH  24  27
HETATM   27  C   UNL     1     -10.617   7.446  67.299  1.00  0.00    -0.323 C  
HETATM   28  C   UNL     1      -9.681   6.352  66.819  1.00  0.00    -0.199 C  
HETATM   29  C   UNL     1     -10.126   5.170  67.636  1.00  0.00    -0.204 C  
HETATM   30  C   UNL     1     -10.520   5.807  68.953  1.00  0.00    -0.256 C  
HETATM   31  O   UNL     1     -10.848   7.181  68.691  1.00  0.00    -0.187 OA 
ENDBRANCH  24  27
ENDBRANCH  22  23
ENDBRANCH  21  22
ENDBRANCH  20  21
ENDBRANCH  18  20
ENDBRANCH  14  18
ENDBRANCH   2   3
TORSDOF 8
ENDMDL
MODEL      125
REMARK 921   NORMALIZED FREE ENERGY PREDICTED BY IDOCK:   -4.73 KCAL/MOL
REMARK 922        TOTAL FREE ENERGY PREDICTED BY IDOCK:   -8.48 KCAL/MOL
REMARK 923 INTER-LIGAND FREE ENERGY PREDICTED BY IDOCK:   -7.65 KCAL/MOL
REMARK 924 INTRA-LIGAND FREE ENERGY PREDICTED BY IDOCK:   -0.83 KCAL/MOL
REMARK 927      BINDING AFFINITY PREDICTED BY RF-SCORE:    0.00 PKD
ROOT
HETATM    1  C   UNL     1     -13.267  11.657  71.823  1.00  0.00    -0.333 C  
HETATM    2  O   UNL     1     -13.269  10.235  71.942  1.00  0.00    -0.437 OA 
ENDROOT
BRANCH   2   3
HETATM    3  C   UNL     1     -12.229   9.594  71.319  1.00  0.00    -0.363 A  
HETATM    4  C   UNL     1     -11.241  10.315  70.626  1.00  0.00    -0.406 A  
HETATM    5  C   UNL     1     -10.243   9.699  69.888  1.00  0.00    -0.245 A  
HETATM    6  C   UNL     1     -10.185   8.312  69.887  1.00  0.00    -0.201 A  
HETATM    7  C   UNL     1     -11.098   7.572  70.676  1.00  0.00    -0.280 A  
HETATM    8  C   UNL     1      -9.196   7.775  69.065  1.00  0.00    -0.143 A  
HETATM    9  N   UNL     1      -8.965   6.397  68.997  1.00  0.00    -0.128 NA 
HETATM   10  N   UNL     1      -8.389   8.525  68.304  1.00  0.00    -0.123 NA 
HETATM   11  C   UNL     1     -12.129   8.199  71.384  1.00  0.00    -0.297 A  
HETATM   12  N   UNL     1      -9.398  10.459  69.187  1.00  0.00    -0.196 NA 
HETATM   13  H2  UNL     1      -9.847   5.942  68.762  1.00  0.00     0.000 HD 
HETATM   14  C   UNL     1      -8.509   9.856  68.386  1.00  0.00    -0.111 A  
HETATM   15  H1  UNL     1      -8.241   6.004  68.396  1.00  0.00     0.000 HD 
BRANCH  11  16
HETATM   16  O   UNL     1     -12.923   7.301  72.041  1.00  0.00    -0.258 OA 
HETATM   17  C   UNL     1     -14.321   7.298  71.801  1.00  0.00    -0.402 C  
ENDBRANCH  11  16
BRANCH  14  18
HETATM   18  N   UNL     1      -7.660  10.636  67.639  1.00  0.00    -0.092 NA 
HETATM   19  C   UNL     1      -7.654  10.500  66.199  1.00  0.00    -0.135 C  
BRANCH  18  20
HETATM   20  C   UNL     1      -6.903  11.707  68.267  1.00  0.00    -0.067 C  
BRANCH  20  21
HETATM   21  C   UNL     1      -6.783  12.930  67.348  1.00  0.00    -0.131 C  
BRANCH  21  22
HETATM   22  C   UNL     1      -7.853  13.983  67.633  1.00  0.00    -0.176 C  
BRANCH  22  23
HETATM   23  N   UNL     1      -8.986  13.866  66.738  1.00  0.00    -0.372 N  
HETATM   24  C   UNL     1      -9.424  14.911  65.959  1.00  0.00    -0.281 C  
HETATM   25  H   UNL     1      -9.477  12.974  66.683  1.00  0.00     0.000 HD 
HETATM   26  O   UNL     1      -8.913  16.027  65.978  1.00  0.00    -0.337 OA 
BRANCH  24  27
HETATM   27  C   UNL     1     -10.618  14.570  65.057  1.00  0.00    -0.437 C  
HETATM   28  C   UNL     1     -10.497  13.146  64.548  1.00  0.00    -0.425 C  
HETATM   29  C   UNL     1     -11.916  12.821  64.167  1.00  0.00    -0.499 C  
HETATM   30  C   UNL     1     -12.718  13.572  65.209  1.00  0.00    -0.427 C  
HETATM   31  O   UNL     1     -11.903  14.651  65.694  1.00  0.00    -0.341 OA 
ENDBRANCH  24  27
ENDBRANCH  22  23
ENDBRANCH  21  22
ENDBRANCH  20  21
ENDBRANCH  18  20
ENDBRANCH  14  18
ENDBRANCH   2   3
TORSDOF 8
ENDMDL
MODEL      126
REMARK 921   NORMALIZED FREE ENERGY PREDICTED BY IDOCK:   -4.72 KCAL/MOL
REMARK 922        TOTAL FREE ENERGY PREDICTED BY IDOCK:   -8.47 KCAL/MOL
REMARK 923 INTER-LIGAND FREE ENERGY PREDICTED BY IDOCK:   -7.21 KCAL/MOL
REMARK 924 INTRA-LIGAND FREE ENERGY PREDICTED BY IDOCK:   -1.26 KCAL/MOL
REMARK 927      BINDING AFFINITY PREDICTED BY RF-SCORE:    0.00 PKD
ROOT
HETATM    1  C   UNL     1     -12.905  14.043  65.738  1.00  0.00    -0.377 C  
HETATM    2  O   UNL     1     -12.164  14.359  66.916  1.00  0.00    -0.415 OA 
ENDROOT
BRANCH   2   3
HETATM    3  C   UNL     1     -11.509  13.303  67.497  1.00  0.00    -0.322 A  
HETATM    4  C   UNL     1     -12.153  12.474  68.433  1.00  0.00    -0.123 A  
HETATM    5  C   UNL     1     -11.491  11.473  69.126  1.00  0.00    -0.297 A  
HETATM    6  C   UNL     1     -10.154  11.245  68.836  1.00  0.00    -0.185 A  
HETATM    7  C   UNL     1      -9.521  11.990  67.813  1.00  0.00    -0.190 A  
HETATM    8  C   UNL     1      -9.549  10.270  69.628  1.00  0.00    -0.162 A  
HETATM    9  N   UNL     1      -8.222   9.876  69.424  1.00  0.00    -0.132 NA 
HETATM   10  N   UNL     1     -10.187   9.628  70.615  1.00  0.00    -0.288 NA 
HETATM   11  C   UNL     1     -10.183  13.027  67.146  1.00  0.00    -0.243 A  
HETATM   12  N   UNL     1     -12.156  10.791  70.061  1.00  0.00    -0.325 NA 
HETATM   13  H2  UNL     1      -7.639  10.713  69.458  1.00  0.00     0.000 HD 
HETATM   14  C   UNL     1     -11.483   9.905  70.807  1.00  0.00    -0.354 A  
HETATM   15  H1  UNL     1      -7.780   9.162  70.003  1.00  0.00     0.000 HD 
BRANCH  11  16
HETATM   16  O   UNL     1      -9.379  13.646  66.230  1.00  0.00    -0.231 OA 
HETATM   17  C   UNL     1      -8.893  14.951  66.496  1.00  0.00    -0.221 C  
ENDBRANCH  11  16
BRANCH  14  18
HETATM   18  N   UNL     1     -12.157   9.223  71.791  1.00  0.00    -0.369 NA 
HETATM   19  C   UNL     1     -13.465   9.683  72.203  1.00  0.00    -0.429 C  
BRANCH  18  20
HETATM   20  C   UNL     1     -11.646   7.958  72.290  1.00  0.00    -0.350 C  
BRANCH  20  21
HETATM   21  C   UNL     1     -12.165   6.773  71.464  1.00  0.00    -0.413 C  
BRANCH  21  22
HETATM   22  C   UNL     1     -11.035   5.888  70.938  1.00  0.00    -0.265 C  
BRANCH  22  23
HETATM   23  N   UNL     1     -11.004   5.847  69.490  1.00  0.00    -0.372 N  
HETATM   24  C   UNL     1      -9.951   6.344  68.759  1.00  0.00    -0.147 C  
HETATM   25  H   UNL     1     -11.793   5.433  68.995  1.00  0.00     0.000 HD 
HETATM   26  O   UNL     1      -8.972   6.882  69.266  1.00  0.00    -0.138 OA 
BRANCH  24  27
HETATM   27  C   UNL     1     -10.100   6.173  67.241  1.00  0.00    -0.165 C  
HETATM   28  C   UNL     1      -8.733   6.136  66.583  1.00  0.00    -0.124 C  
HETATM   29  C   UNL     1      -9.027   5.458  65.273  1.00  0.00    -0.104 C  
HETATM   30  C   UNL     1     -10.116   4.473  65.647  1.00  0.00    -0.244 C  
HETATM   31  O   UNL     1     -10.767   4.971  66.827  1.00  0.00    -0.225 OA 
ENDBRANCH  24  27
ENDBRANCH  22  23
ENDBRANCH  21  22
ENDBRANCH  20  21
ENDBRANCH  18  20
ENDBRANCH  14  18
ENDBRANCH   2   3
TORSDOF 8
ENDMDL
MODEL      127
REMARK 921   NORMALIZED FREE ENERGY PREDICTED BY IDOCK:   -4.71 KCAL/MOL
REMARK 922        TOTAL FREE ENERGY PREDICTED BY IDOCK:   -8.45 KCAL/MOL
REMARK 923 INTER-LIGAND FREE ENERGY PREDICTED BY IDOCK:   -7.51 KCAL/MOL
REMARK 924 INTRA-LIGAND FREE ENERGY PREDICTED BY IDOCK:   -0.93 KCAL/MOL
REMARK 927      BINDING AFFINITY PREDICTED BY RF-SCORE:    0.00 PKD
ROOT
HETATM    1  C   UNL     1      -8.618  16.302  65.965  1.00  0.00    -0.211 C  
HETATM    2  O   UNL     1      -9.953  16.667  66.315  1.00  0.00    -0.286 OA 
ENDROOT
BRANCH   2   3
HETATM    3  C   UNL     1     -10.367  16.252  67.554  1.00  0.00    -0.288 A  
HETATM    4  C   UNL     1     -10.636  14.897  67.815  1.00  0.00    -0.262 A  
HETATM    5  C   UNL     1     -11.168  14.456  69.017  1.00  0.00    -0.264 A  
HETATM    6  C   UNL     1     -11.384  15.388  70.022  1.00  0.00    -0.322 A  
HETATM    7  C   UNL     1     -11.009  16.738  69.820  1.00  0.00    -0.096 A  
HETATM    8  C   UNL     1     -11.985  14.873  71.169  1.00  0.00    -0.335 A  
HETATM    9  N   UNL     1     -12.217  15.666  72.298  1.00  0.00    -0.392 NA 
HETATM   10  N   UNL     1     -12.362  13.593  71.287  1.00  0.00    -0.325 NA 
HETATM   11  C   UNL     1     -10.512  17.183  68.589  1.00  0.00    -0.366 A  
HETATM   12  N   UNL     1     -11.475  13.164  69.149  1.00  0.00    -0.289 NA 
HETATM   13  H2  UNL     1     -12.755  16.481  72.003  1.00  0.00     0.000 HD 
HETATM   14  C   UNL     1     -12.093  12.765  70.269  1.00  0.00    -0.297 A  
HETATM   15  H1  UNL     1     -12.656  15.288  73.137  1.00  0.00     0.000 HD 
BRANCH  11  16
HETATM   16  O   UNL     1     -10.255  18.526  68.593  1.00  0.00    -0.377 OA 
HETATM   17  C   UNL     1      -8.915  18.980  68.698  1.00  0.00    -0.363 C  
ENDBRANCH  11  16
BRANCH  14  18
HETATM   18  N   UNL     1     -12.440  11.441  70.395  1.00  0.00    -0.285 NA 
HETATM   19  C   UNL     1     -12.210  10.540  69.287  1.00  0.00     0.051 C  
BRANCH  18  20
HETATM   20  C   UNL     1     -12.868  10.914  71.680  1.00  0.00    -0.449 C  
BRANCH  20  21
HETATM   21  C   UNL     1     -13.605   9.577  71.525  1.00  0.00    -0.397 C  
BRANCH  21  22
HETATM   22  C   UNL     1     -12.872   8.423  72.210  1.00  0.00    -0.317 C  
BRANCH  22  23
HETATM   23  N   UNL     1     -11.472   8.375  71.846  1.00  0.00    -0.295 N  
HETATM   24  C   UNL     1     -10.980   7.497  70.909  1.00  0.00    -0.253 C  
HETATM   25  H   UNL     1     -10.825   9.017  72.303  1.00  0.00     0.000 HD 
HETATM   26  O   UNL     1     -11.677   6.671  70.328  1.00  0.00    -0.389 OA 
BRANCH  24  27
HETATM   27  C   UNL     1      -9.474   7.630  70.647  1.00  0.00    -0.163 C  
HETATM   28  C   UNL     1      -9.139   7.111  69.260  1.00  0.00    -0.137 C  
HETATM   29  C   UNL     1      -7.820   7.780  68.980  1.00  0.00    -0.118 C  
HETATM   30  C   UNL     1      -7.977   9.121  69.665  1.00  0.00    -0.103 C  
HETATM   31  O   UNL     1      -8.964   8.972  70.698  1.00  0.00    -0.179 OA 
ENDBRANCH  24  27
ENDBRANCH  22  23
ENDBRANCH  21  22
ENDBRANCH  20  21
ENDBRANCH  18  20
ENDBRANCH  14  18
ENDBRANCH   2   3
TORSDOF 8
ENDMDL
MODEL      128
REMARK 921   NORMALIZED FREE ENERGY PREDICTED BY IDOCK:   -4.71 KCAL/MOL
REMARK 922        TOTAL FREE ENERGY PREDICTED BY IDOCK:   -8.44 KCAL/MOL
REMARK 923 INTER-LIGAND FREE ENERGY PREDICTED BY IDOCK:   -7.69 KCAL/MOL
REMARK 924 INTRA-LIGAND FREE ENERGY PREDICTED BY IDOCK:   -0.76 KCAL/MOL
REMARK 927      BINDING AFFINITY PREDICTED BY RF-SCORE:    0.00 PKD
ROOT
HETATM    1  C   UNL     1     -11.322   6.222  69.753  1.00  0.00    -0.436 C  
HETATM    2  O   UNL     1     -10.053   6.869  69.666  1.00  0.00    -0.178 OA 
ENDROOT
BRANCH   2   3
HETATM    3  C   UNL     1      -9.819   7.546  68.496  1.00  0.00    -0.165 A  
HETATM    4  C   UNL     1     -10.335   8.837  68.288  1.00  0.00    -0.252 A  
HETATM    5  C   UNL     1     -10.221   9.503  67.078  1.00  0.00    -0.255 A  
HETATM    6  C   UNL     1      -9.514   8.890  66.053  1.00  0.00    -0.320 A  
HETATM    7  C   UNL     1      -8.887   7.642  66.283  1.00  0.00    -0.182 A  
HETATM    8  C   UNL     1      -9.508   9.597  64.852  1.00  0.00    -0.220 A  
HETATM    9  N   UNL     1      -8.791   9.147  63.738  1.00  0.00    -0.417 NA 
HETATM   10  N   UNL     1     -10.160  10.754  64.679  1.00  0.00    -0.322 NA 
HETATM   11  C   UNL     1      -9.042   6.956  67.493  1.00  0.00    -0.118 A  
HETATM   12  N   UNL     1     -10.816  10.690  66.938  1.00  0.00    -0.238 NA 
HETATM   13  H2  UNL     1      -9.090   8.193  63.538  1.00  0.00     0.000 HD 
HETATM   14  C   UNL     1     -10.799  11.276  65.734  1.00  0.00    -0.194 A  
HETATM   15  H1  UNL     1      -8.787   9.665  62.859  1.00  0.00     0.000 HD 
BRANCH  11  16
HETATM   16  O   UNL     1      -8.393   5.754  67.490  1.00  0.00    -0.105 OA 
HETATM   17  C   UNL     1      -8.408   4.955  66.317  1.00  0.00    -0.111 C  
ENDBRANCH  11  16
BRANCH  14  18
HETATM   18  N   UNL     1     -11.438  12.482  65.578  1.00  0.00    -0.334 NA 
HETATM   19  C   UNL     1     -12.111  13.079  66.710  1.00  0.00    -0.300 C  
BRANCH  18  20
HETATM   20  C   UNL     1     -11.293  13.236  64.344  1.00  0.00    -0.383 C  
BRANCH  20  21
HETATM   21  C   UNL     1     -12.188  14.483  64.334  1.00  0.00    -0.480 C  
BRANCH  21  22
HETATM   22  C   UNL     1     -11.383  15.779  64.239  1.00  0.00    -0.179 C  
BRANCH  22  23
HETATM   23  N   UNL     1     -10.760  16.128  65.499  1.00  0.00    -0.363 N  
HETATM   24  C   UNL     1     -10.551  17.430  65.885  1.00  0.00    -0.200 C  
HETATM   25  H   UNL     1     -10.465  15.378  66.124  1.00  0.00     0.000 HD 
HETATM   26  O   UNL     1     -10.848  18.396  65.189  1.00  0.00    -0.630 OA 
BRANCH  24  27
HETATM   27  C   UNL     1      -9.907  17.584  67.270  1.00  0.00    -0.294 C  
HETATM   28  C   UNL     1      -9.247  16.282  67.685  1.00  0.00    -0.206 C  
HETATM   29  C   UNL     1      -8.266  16.740  68.730  1.00  0.00    -0.250 C  
HETATM   30  C   UNL     1      -7.836  18.095  68.207  1.00  0.00    -0.293 C  
HETATM   31  O   UNL     1      -8.883  18.587  67.356  1.00  0.00    -0.265 OA 
ENDBRANCH  24  27
ENDBRANCH  22  23
ENDBRANCH  21  22
ENDBRANCH  20  21
ENDBRANCH  18  20
ENDBRANCH  14  18
ENDBRANCH   2   3
TORSDOF 8
ENDMDL
MODEL      129
REMARK 921   NORMALIZED FREE ENERGY PREDICTED BY IDOCK:   -4.68 KCAL/MOL
REMARK 922        TOTAL FREE ENERGY PREDICTED BY IDOCK:   -8.41 KCAL/MOL
REMARK 923 INTER-LIGAND FREE ENERGY PREDICTED BY IDOCK:   -7.58 KCAL/MOL
REMARK 924 INTRA-LIGAND FREE ENERGY PREDICTED BY IDOCK:   -0.83 KCAL/MOL
REMARK 927      BINDING AFFINITY PREDICTED BY RF-SCORE:    0.00 PKD
ROOT
HETATM    1  C   UNL     1      -6.605  18.116  68.413  1.00  0.00    -0.211 C  
HETATM    2  O   UNL     1      -7.934  17.838  68.856  1.00  0.00    -0.261 OA 
ENDROOT
BRANCH   2   3
HETATM    3  C   UNL     1      -8.769  17.310  67.906  1.00  0.00    -0.231 A  
HETATM    4  C   UNL     1      -8.930  15.920  67.771  1.00  0.00    -0.176 A  
HETATM    5  C   UNL     1      -9.672  15.347  66.750  1.00  0.00    -0.240 A  
HETATM    6  C   UNL     1     -10.330  16.187  65.864  1.00  0.00    -0.384 A  
HETATM    7  C   UNL     1     -10.278  17.589  66.055  1.00  0.00    -0.306 A  
HETATM    8  C   UNL     1     -10.994  15.531  64.829  1.00  0.00    -0.399 A  
HETATM    9  N   UNL     1     -11.757  16.227  63.885  1.00  0.00    -1.518 NA 
HETATM   10  N   UNL     1     -10.971  14.201  64.671  1.00  0.00    -0.396 NA 
HETATM   11  C   UNL     1      -9.492  18.161  67.063  1.00  0.00    -0.274 A  
HETATM   12  N   UNL     1      -9.700  14.017  66.643  1.00  0.00    -0.279 NA 
HETATM   13  H2  UNL     1     -11.162  16.944  63.470  1.00  0.00     0.000 HD 
HETATM   14  C   UNL     1     -10.323  13.473  65.589  1.00  0.00    -0.297 A  
HETATM   15  H1  UNL     1     -12.242  15.746  63.128  1.00  0.00     0.000 HD 
BRANCH  11  16
HETATM   16  O   UNL     1      -9.547  19.526  67.045  1.00  0.00    -0.310 OA 
HETATM   17  C   UNL     1     -10.337  20.206  68.007  1.00  0.00    -0.309 C  
ENDBRANCH  11  16
BRANCH  14  18
HETATM   18  N   UNL     1     -10.326  12.105  65.459  1.00  0.00    -0.255 NA 
HETATM   19  C   UNL     1     -11.237  11.484  64.523  1.00  0.00    -0.231 C  
BRANCH  18  20
HETATM   20  C   UNL     1      -9.311  11.302  66.121  1.00  0.00    -0.211 C  
BRANCH  20  21
HETATM   21  C   UNL     1      -8.266  10.779  65.126  1.00  0.00    -0.034 C  
BRANCH  21  22
HETATM   22  C   UNL     1      -7.672   9.437  65.553  1.00  0.00    -0.099 C  
BRANCH  22  23
HETATM   23  N   UNL     1      -7.957   9.131  66.940  1.00  0.00    -0.104 N  
HETATM   24  C   UNL     1      -7.049   9.353  67.948  1.00  0.00    -0.081 C  
HETATM   25  H   UNL     1      -8.867   8.737  67.177  1.00  0.00     0.000 HD 
HETATM   26  O   UNL     1      -5.923   9.799  67.754  1.00  0.00    -0.050 OA 
BRANCH  24  27
HETATM   27  C   UNL     1      -7.560   8.992  69.349  1.00  0.00    -0.078 C  
HETATM   28  C   UNL     1      -8.674   9.937  69.758  1.00  0.00    -0.229 C  
HETATM   29  C   UNL     1      -9.378   9.153  70.833  1.00  0.00    -0.335 C  
HETATM   30  C   UNL     1      -9.245   7.726  70.344  1.00  0.00    -0.156 C  
HETATM   31  O   UNL     1      -8.101   7.668  69.476  1.00  0.00    -0.122 OA 
ENDBRANCH  24  27
ENDBRANCH  22  23
ENDBRANCH  21  22
ENDBRANCH  20  21
ENDBRANCH  18  20
ENDBRANCH  14  18
ENDBRANCH   2   3
TORSDOF 8
ENDMDL
MODEL      130
REMARK 921   NORMALIZED FREE ENERGY PREDICTED BY IDOCK:   -4.68 KCAL/MOL
REMARK 922        TOTAL FREE ENERGY PREDICTED BY IDOCK:   -8.40 KCAL/MOL
REMARK 923 INTER-LIGAND FREE ENERGY PREDICTED BY IDOCK:   -7.23 KCAL/MOL
REMARK 924 INTRA-LIGAND FREE ENERGY PREDICTED BY IDOCK:   -1.17 KCAL/MOL
REMARK 927      BINDING AFFINITY PREDICTED BY RF-SCORE:    0.00 PKD
ROOT
HETATM    1  C   UNL     1     -11.124  16.534  64.475  1.00  0.00    -0.010 C  
HETATM    2  O   UNL     1     -12.010  15.465  64.804  1.00  0.00    -0.234 OA 
ENDROOT
BRANCH   2   3
HETATM    3  C   UNL     1     -11.466  14.468  65.573  1.00  0.00    -0.343 A  
HETATM    4  C   UNL     1     -10.385  14.724  66.435  1.00  0.00    -0.297 A  
HETATM    5  C   UNL     1      -9.733  13.722  67.137  1.00  0.00    -0.244 A  
HETATM    6  C   UNL     1     -10.211  12.424  67.028  1.00  0.00    -0.232 A  
HETATM    7  C   UNL     1     -11.372  12.166  66.259  1.00  0.00    -0.411 A  
HETATM    8  C   UNL     1      -9.457  11.471  67.710  1.00  0.00    -0.168 A  
HETATM    9  N   UNL     1      -9.837  10.125  67.752  1.00  0.00    -0.159 NA 
HETATM   10  N   UNL     1      -8.339  11.767  68.385  1.00  0.00    -0.154 NA 
HETATM   11  C   UNL     1     -11.998  13.176  65.519  1.00  0.00    -0.412 A  
HETATM   12  N   UNL     1      -8.660  14.040  67.864  1.00  0.00    -0.169 NA 
HETATM   13  H2  UNL     1      -9.954   9.803  66.791  1.00  0.00     0.000 HD 
HETATM   14  C   UNL     1      -7.968  13.052  68.448  1.00  0.00    -0.135 A  
HETATM   15  H1  UNL     1      -9.285   9.428  68.251  1.00  0.00     0.000 HD 
BRANCH  11  16
HETATM   16  O   UNL     1     -13.071  12.706  64.813  1.00  0.00    -0.852 OA 
HETATM   17  C   UNL     1     -12.853  11.964  63.624  1.00  0.00    -0.305 C  
ENDBRANCH  11  16
BRANCH  14  18
HETATM   18  N   UNL     1      -6.844  13.373  69.171  1.00  0.00    -0.101 NA 
HETATM   19  C   UNL     1      -5.739  12.441  69.214  1.00  0.00    -0.079 C  
BRANCH  18  20
HETATM   20  C   UNL     1      -6.692  14.701  69.741  1.00  0.00    -0.165 C  
BRANCH  20  21
HETATM   21  C   UNL     1      -5.533  15.468  69.089  1.00  0.00    -0.096 C  
BRANCH  21  22
HETATM   22  C   UNL     1      -5.938  16.126  67.770  1.00  0.00    -0.140 C  
BRANCH  22  23
HETATM   23  N   UNL     1      -6.935  17.159  67.959  1.00  0.00    -0.167 N  
HETATM   24  C   UNL     1      -7.440  17.899  66.917  1.00  0.00    -0.200 C  
HETATM   25  H   UNL     1      -7.275  17.344  68.903  1.00  0.00     0.000 HD 
HETATM   26  O   UNL     1      -7.072  17.765  65.754  1.00  0.00    -0.422 OA 
BRANCH  24  27
HETATM   27  C   UNL     1      -8.511  18.920  67.327  1.00  0.00    -0.277 C  
HETATM   28  C   UNL     1      -9.265  19.404  66.102  1.00  0.00    -0.323 C  
HETATM   29  C   UNL     1     -10.541  19.931  66.702  1.00  0.00    -0.540 C  
HETATM   30  C   UNL     1     -10.778  18.984  67.860  1.00  0.00    -0.293 C  
HETATM   31  O   UNL     1      -9.509  18.424  68.232  1.00  0.00    -0.299 OA 
ENDBRANCH  24  27
ENDBRANCH  22  23
ENDBRANCH  21  22
ENDBRANCH  20  21
ENDBRANCH  18  20
ENDBRANCH  14  18
ENDBRANCH   2   3
TORSDOF 8
ENDMDL
MODEL      131
REMARK 921   NORMALIZED FREE ENERGY PREDICTED BY IDOCK:   -4.67 KCAL/MOL
REMARK 922        TOTAL FREE ENERGY PREDICTED BY IDOCK:   -8.39 KCAL/MOL
REMARK 923 INTER-LIGAND FREE ENERGY PREDICTED BY IDOCK:   -6.87 KCAL/MOL
REMARK 924 INTRA-LIGAND FREE ENERGY PREDICTED BY IDOCK:   -1.51 KCAL/MOL
REMARK 927      BINDING AFFINITY PREDICTED BY RF-SCORE:    0.00 PKD
ROOT
HETATM    1  C   UNL     1      -9.228   9.125  65.075  1.00  0.00    -0.114 C  
HETATM    2  O   UNL     1      -9.678   9.144  66.430  1.00  0.00    -0.218 OA 
ENDROOT
BRANCH   2   3
HETATM    3  C   UNL     1      -9.068  10.070  67.237  1.00  0.00    -0.138 A  
HETATM    4  C   UNL     1      -9.167  11.447  66.966  1.00  0.00    -0.174 A  
HETATM    5  C   UNL     1      -8.471  12.404  67.687  1.00  0.00    -0.169 A  
HETATM    6  C   UNL     1      -7.693  11.985  68.757  1.00  0.00    -0.054 A  
HETATM    7  C   UNL     1      -7.675  10.617  69.118  1.00  0.00    -0.138 A  
HETATM    8  C   UNL     1      -6.973  13.002  69.381  1.00  0.00     0.104 A  
HETATM    9  N   UNL     1      -6.188  12.760  70.514  1.00  0.00    -0.483 NA 
HETATM   10  N   UNL     1      -6.993  14.275  68.966  1.00  0.00    -0.108 NA 
HETATM   11  C   UNL     1      -8.347   9.651  68.360  1.00  0.00    -0.117 A  
HETATM   12  N   UNL     1      -8.553  13.681  67.307  1.00  0.00    -0.208 NA 
HETATM   13  H2  UNL     1      -5.536  12.009  70.287  1.00  0.00     0.000 HD 
HETATM   14  C   UNL     1      -7.789  14.585  67.934  1.00  0.00    -0.147 A  
HETATM   15  H1  UNL     1      -5.662  13.504  70.970  1.00  0.00     0.000 HD 
BRANCH  11  16
HETATM   16  O   UNL     1      -8.164   8.390  68.854  1.00  0.00    -0.112 OA 
HETATM   17  C   UNL     1      -8.273   8.164  70.251  1.00  0.00    -0.122 C  
ENDBRANCH  11  16
BRANCH  14  18
HETATM   18  N   UNL     1      -7.848  15.896  67.525  1.00  0.00    -0.141 NA 
HETATM   19  C   UNL     1      -6.632  16.568  67.123  1.00  0.00    -0.194 C  
BRANCH  18  20
HETATM   20  C   UNL     1      -9.132  16.547  67.330  1.00  0.00    -0.204 C  
BRANCH  20  21
HETATM   21  C   UNL     1      -9.970  16.545  68.616  1.00  0.00    -0.248 C  
BRANCH  21  22
HETATM   22  C   UNL     1     -11.270  15.755  68.464  1.00  0.00    -0.354 C  
BRANCH  22  23
HETATM   23  N   UNL     1     -11.492  15.327  67.099  1.00  0.00    -0.263 N  
HETATM   24  C   UNL     1     -11.984  14.082  66.785  1.00  0.00    -0.444 C  
HETATM   25  H   UNL     1     -11.276  15.974  66.341  1.00  0.00     0.000 HD 
HETATM   26  O   UNL     1     -12.247  13.229  67.627  1.00  0.00    -0.292 OA 
BRANCH  24  27
HETATM   27  C   UNL     1     -12.176  13.838  65.282  1.00  0.00    -0.439 C  
HETATM   28  C   UNL     1     -10.851  13.472  64.640  1.00  0.00    -0.416 C  
HETATM   29  C   UNL     1     -11.289  12.777  63.379  1.00  0.00    -0.395 C  
HETATM   30  C   UNL     1     -12.555  12.069  63.814  1.00  0.00    -0.454 C  
HETATM   31  O   UNL     1     -13.081  12.774  64.950  1.00  0.00    -0.833 OA 
ENDBRANCH  24  27
ENDBRANCH  22  23
ENDBRANCH  21  22
ENDBRANCH  20  21
ENDBRANCH  18  20
ENDBRANCH  14  18
ENDBRANCH   2   3
TORSDOF 8
ENDMDL
MODEL      132
REMARK 921   NORMALIZED FREE ENERGY PREDICTED BY IDOCK:   -4.67 KCAL/MOL
REMARK 922        TOTAL FREE ENERGY PREDICTED BY IDOCK:   -8.39 KCAL/MOL
REMARK 923 INTER-LIGAND FREE ENERGY PREDICTED BY IDOCK:   -7.50 KCAL/MOL
REMARK 924 INTRA-LIGAND FREE ENERGY PREDICTED BY IDOCK:   -0.88 KCAL/MOL
REMARK 927      BINDING AFFINITY PREDICTED BY RF-SCORE:    0.00 PKD
ROOT
HETATM    1  C   UNL     1     -11.758   6.655  70.378  1.00  0.00    -0.386 C  
HETATM    2  O   UNL     1     -10.567   7.441  70.410  1.00  0.00    -0.218 OA 
ENDROOT
BRANCH   2   3
HETATM    3  C   UNL     1      -9.990   7.681  69.190  1.00  0.00    -0.181 A  
HETATM    4  C   UNL     1     -10.329   8.819  68.437  1.00  0.00    -0.242 A  
HETATM    5  C   UNL     1      -9.858   9.035  67.151  1.00  0.00    -0.203 A  
HETATM    6  C   UNL     1      -8.967   8.116  66.614  1.00  0.00    -0.181 A  
HETATM    7  C   UNL     1      -8.522   7.027  67.401  1.00  0.00    -0.122 A  
HETATM    8  C   UNL     1      -8.599   8.372  65.294  1.00  0.00    -0.150 A  
HETATM    9  N   UNL     1      -7.662   7.577  64.625  1.00  0.00    -0.115 NA 
HETATM   10  N   UNL     1      -9.089   9.394  64.582  1.00  0.00    -0.209 NA 
HETATM   11  C   UNL     1      -9.035   6.793  68.683  1.00  0.00    -0.125 A  
HETATM   12  N   UNL     1     -10.299  10.097  66.474  1.00  0.00    -0.223 NA 
HETATM   13  H2  UNL     1      -7.978   6.608  64.680  1.00  0.00     0.000 HD 
HETATM   14  C   UNL     1      -9.930  10.238  65.194  1.00  0.00    -0.325 A  
HETATM   15  H1  UNL     1      -7.393   7.764  63.660  1.00  0.00     0.000 HD 
BRANCH  11  16
HETATM   16  O   UNL     1      -8.507   5.667  69.250  1.00  0.00    -0.105 OA 
HETATM   17  C   UNL     1      -9.091   4.405  68.972  1.00  0.00    -0.126 C  
ENDBRANCH  11  16
BRANCH  14  18
HETATM   18  N   UNL     1     -10.408  11.313  64.484  1.00  0.00    -0.299 NA 
HETATM   19  C   UNL     1      -9.875  11.587  63.168  1.00  0.00    -0.390 C  
BRANCH  18  20
HETATM   20  C   UNL     1     -11.556  12.062  64.970  1.00  0.00    -0.263 C  
BRANCH  20  21
HETATM   21  C   UNL     1     -11.607  13.472  64.368  1.00  0.00    -0.429 C  
BRANCH  21  22
HETATM   22  C   UNL     1     -12.460  14.431  65.198  1.00  0.00    -0.357 C  
BRANCH  22  23
HETATM   23  N   UNL     1     -12.168  14.335  66.613  1.00  0.00    -0.501 N  
HETATM   24  C   UNL     1     -11.228  15.127  67.229  1.00  0.00    -0.324 C  
HETATM   25  H   UNL     1     -12.680  13.654  67.174  1.00  0.00     0.000 HD 
HETATM   26  O   UNL     1     -10.546  15.954  66.632  1.00  0.00    -0.314 OA 
BRANCH  24  27
HETATM   27  C   UNL     1     -11.094  14.889  68.740  1.00  0.00    -0.264 C  
HETATM   28  C   UNL     1     -11.241  16.201  69.488  1.00  0.00    -0.337 C  
HETATM   29  C   UNL     1     -11.613  15.739  70.871  1.00  0.00    -0.440 C  
HETATM   30  C   UNL     1     -12.451  14.509  70.595  1.00  0.00    -0.343 C  
HETATM   31  O   UNL     1     -12.073  14.003  69.305  1.00  0.00    -0.333 OA 
ENDBRANCH  24  27
ENDBRANCH  22  23
ENDBRANCH  21  22
ENDBRANCH  20  21
ENDBRANCH  18  20
ENDBRANCH  14  18
ENDBRANCH   2   3
TORSDOF 8
ENDMDL
MODEL      133
REMARK 921   NORMALIZED FREE ENERGY PREDICTED BY IDOCK:   -4.67 KCAL/MOL
REMARK 922        TOTAL FREE ENERGY PREDICTED BY IDOCK:   -8.38 KCAL/MOL
REMARK 923 INTER-LIGAND FREE ENERGY PREDICTED BY IDOCK:   -7.40 KCAL/MOL
REMARK 924 INTRA-LIGAND FREE ENERGY PREDICTED BY IDOCK:   -0.98 KCAL/MOL
REMARK 927      BINDING AFFINITY PREDICTED BY RF-SCORE:    0.00 PKD
ROOT
HETATM    1  C   UNL     1      -8.323  16.340  66.094  1.00  0.00    -0.225 C  
HETATM    2  O   UNL     1      -9.705  16.634  66.294  1.00  0.00    -0.272 OA 
ENDROOT
BRANCH   2   3
HETATM    3  C   UNL     1     -10.189  16.349  67.545  1.00  0.00    -0.273 A  
HETATM    4  C   UNL     1     -10.407  15.022  67.956  1.00  0.00    -0.236 A  
HETATM    5  C   UNL     1     -11.003  14.700  69.165  1.00  0.00    -0.262 A  
HETATM    6  C   UNL     1     -11.341  15.733  70.027  1.00  0.00    -0.354 A  
HETATM    7  C   UNL     1     -11.021  17.068  69.683  1.00  0.00     0.125 A  
HETATM    8  C   UNL     1     -11.999  15.326  71.187  1.00  0.00    -0.345 A  
HETATM    9  N   UNL     1     -12.354  16.235  72.189  1.00  0.00    -0.554 NA 
HETATM   10  N   UNL     1     -12.317  14.049  71.439  1.00  0.00    -0.349 NA 
HETATM   11  C   UNL     1     -10.458  17.389  68.442  1.00  0.00    -0.384 A  
HETATM   12  N   UNL     1     -11.253  13.417  69.437  1.00  0.00    -0.216 NA 
HETATM   13  H2  UNL     1     -12.909  16.974  71.758  1.00  0.00     0.000 HD 
HETATM   14  C   UNL     1     -11.932  13.121  70.554  1.00  0.00    -0.222 A  
HETATM   15  H1  UNL     1     -12.834  15.937  73.038  1.00  0.00     0.000 HD 
BRANCH  11  16
HETATM   16  O   UNL     1     -10.271  18.734  68.295  1.00  0.00    -0.364 OA 
HETATM   17  C   UNL     1      -9.010  19.303  68.610  1.00  0.00    -0.374 C  
ENDBRANCH  11  16
BRANCH  14  18
HETATM   18  N   UNL     1     -12.219  11.804  70.822  1.00  0.00    -0.371 NA 
HETATM   19  C   UNL     1     -13.311  11.484  71.713  1.00  0.00    -0.253 C  
BRANCH  18  20
HETATM   20  C   UNL     1     -11.552  10.743  70.085  1.00  0.00    -0.337 C  
BRANCH  20  21
HETATM   21  C   UNL     1     -11.219   9.549  70.990  1.00  0.00    -0.432 C  
BRANCH  21  22
HETATM   22  C   UNL     1     -10.310   8.530  70.303  1.00  0.00    -0.205 C  
BRANCH  22  23
HETATM   23  N   UNL     1     -10.105   8.840  68.903  1.00  0.00    -0.193 N  
HETATM   24  C   UNL     1      -8.872   8.755  68.300  1.00  0.00    -0.141 C  
HETATM   25  H   UNL     1     -10.906   9.132  68.343  1.00  0.00     0.000 HD 
HETATM   26  O   UNL     1      -7.849   8.439  68.899  1.00  0.00    -0.108 OA 
BRANCH  24  27
HETATM   27  C   UNL     1      -8.876   9.095  66.803  1.00  0.00    -0.127 C  
HETATM   28  C   UNL     1     -10.248   9.591  66.385  1.00  0.00    -0.302 C  
HETATM   29  C   UNL     1      -9.941  10.346  65.119  1.00  0.00    -0.390 C  
HETATM   30  C   UNL     1      -8.578  10.938  65.409  1.00  0.00    -0.120 C  
HETATM   31  O   UNL     1      -7.951  10.121  66.411  1.00  0.00    -0.114 OA 
ENDBRANCH  24  27
ENDBRANCH  22  23
ENDBRANCH  21  22
ENDBRANCH  20  21
ENDBRANCH  18  20
ENDBRANCH  14  18
ENDBRANCH   2   3
TORSDOF 8
ENDMDL
MODEL      134
REMARK 921   NORMALIZED FREE ENERGY PREDICTED BY IDOCK:   -4.65 KCAL/MOL
REMARK 922        TOTAL FREE ENERGY PREDICTED BY IDOCK:   -8.37 KCAL/MOL
REMARK 923 INTER-LIGAND FREE ENERGY PREDICTED BY IDOCK:   -6.96 KCAL/MOL
REMARK 924 INTRA-LIGAND FREE ENERGY PREDICTED BY IDOCK:   -1.41 KCAL/MOL
REMARK 927      BINDING AFFINITY PREDICTED BY RF-SCORE:    0.00 PKD
ROOT
HETATM    1  C   UNL     1      -9.846  17.671  68.275  1.00  0.00    -0.324 C  
HETATM    2  O   UNL     1     -11.145  17.159  68.569  1.00  0.00    -0.270 OA 
ENDROOT
BRANCH   2   3
HETATM    3  C   UNL     1     -11.244  15.792  68.594  1.00  0.00    -0.351 A  
HETATM    4  C   UNL     1     -10.552  14.995  67.665  1.00  0.00    -0.267 A  
HETATM    5  C   UNL     1     -10.718  13.622  67.584  1.00  0.00    -0.245 A  
HETATM    6  C   UNL     1     -11.557  13.006  68.502  1.00  0.00    -0.363 A  
HETATM    7  C   UNL     1     -12.169  13.775  69.521  1.00  0.00    -0.344 A  
HETATM    8  C   UNL     1     -11.721  11.635  68.306  1.00  0.00    -0.304 A  
HETATM    9  N   UNL     1     -12.485  10.854  69.180  1.00  0.00    -0.670 NA 
HETATM   10  N   UNL     1     -11.152  10.966  67.295  1.00  0.00    -0.303 NA 
HETATM   11  C   UNL     1     -12.030  15.167  69.569  1.00  0.00    -0.321 A  
HETATM   12  N   UNL     1     -10.090  12.953  66.614  1.00  0.00    -0.241 NA 
HETATM   13  H2  UNL     1     -13.412  11.274  69.245  1.00  0.00     0.000 HD 
HETATM   14  C   UNL     1     -10.344  11.646  66.471  1.00  0.00    -0.224 A  
HETATM   15  H1  UNL     1     -12.604   9.851  69.036  1.00  0.00     0.000 HD 
BRANCH  11  16
HETATM   16  O   UNL     1     -12.736  15.719  70.601  1.00  0.00    -0.439 OA 
HETATM   17  C   UNL     1     -13.809  14.993  71.180  1.00  0.00    -0.395 C  
ENDBRANCH  11  16
BRANCH  14  18
HETATM   18  N   UNL     1      -9.724  10.961  65.454  1.00  0.00    -0.222 NA 
HETATM   19  C   UNL     1     -10.368  10.875  64.161  1.00  0.00    -0.364 C  
BRANCH  18  20
HETATM   20  C   UNL     1      -8.362  10.480  65.616  1.00  0.00    -0.167 C  
BRANCH  20  21
HETATM   21  C   UNL     1      -8.279   9.357  66.659  1.00  0.00    -0.112 C  
BRANCH  21  22
HETATM   22  C   UNL     1      -7.335   9.698  67.812  1.00  0.00    -0.086 C  
BRANCH  22  23
HETATM   23  N   UNL     1      -7.053  11.116  67.884  1.00  0.00    -0.079 N  
HETATM   24  C   UNL     1      -6.430  11.692  68.965  1.00  0.00    -0.082 C  
HETATM   25  H   UNL     1      -7.328  11.711  67.103  1.00  0.00     0.000 HD 
HETATM   26  O   UNL     1      -6.087  11.062  69.961  1.00  0.00    -0.096 OA 
BRANCH  24  27
HETATM   27  C   UNL     1      -6.196  13.203  68.830  1.00  0.00    -0.083 C  
HETATM   28  C   UNL     1      -6.851  13.721  67.563  1.00  0.00    -0.148 C  
HETATM   29  C   UNL     1      -6.990  15.190  67.853  1.00  0.00    -0.167 C  
HETATM   30  C   UNL     1      -7.265  15.209  69.342  1.00  0.00    -0.198 C  
HETATM   31  O   UNL     1      -6.729  13.999  69.900  1.00  0.00    -0.096 OA 
ENDBRANCH  24  27
ENDBRANCH  22  23
ENDBRANCH  21  22
ENDBRANCH  20  21
ENDBRANCH  18  20
ENDBRANCH  14  18
ENDBRANCH   2   3
TORSDOF 8
ENDMDL
MODEL      135
REMARK 921   NORMALIZED FREE ENERGY PREDICTED BY IDOCK:   -4.65 KCAL/MOL
REMARK 922        TOTAL FREE ENERGY PREDICTED BY IDOCK:   -8.36 KCAL/MOL
REMARK 923 INTER-LIGAND FREE ENERGY PREDICTED BY IDOCK:   -6.87 KCAL/MOL
REMARK 924 INTRA-LIGAND FREE ENERGY PREDICTED BY IDOCK:   -1.50 KCAL/MOL
REMARK 927      BINDING AFFINITY PREDICTED BY RF-SCORE:    0.00 PKD
ROOT
HETATM    1  C   UNL     1     -11.385  11.633  63.628  1.00  0.00    -0.394 C  
HETATM    2  O   UNL     1     -10.779  12.846  64.076  1.00  0.00    -0.393 OA 
ENDROOT
BRANCH   2   3
HETATM    3  C   UNL     1     -10.917  13.109  65.414  1.00  0.00    -0.279 A  
HETATM    4  C   UNL     1     -11.122  12.073  66.343  1.00  0.00    -0.365 A  
HETATM    5  C   UNL     1     -11.383  12.309  67.683  1.00  0.00    -0.311 A  
HETATM    6  C   UNL     1     -11.379  13.621  68.134  1.00  0.00    -0.321 A  
HETATM    7  C   UNL     1     -11.057  14.669  67.238  1.00  0.00    -0.331 A  
HETATM    8  C   UNL     1     -11.719  13.773  69.477  1.00  0.00    -0.323 A  
HETATM    9  N   UNL     1     -11.703  15.024  70.103  1.00  0.00    -0.278 NA 
HETATM   10  N   UNL     1     -12.060  12.746  70.266  1.00  0.00    -0.342 NA 
HETATM   11  C   UNL     1     -10.837  14.428  65.877  1.00  0.00    -0.304 A  
HETATM   12  N   UNL     1     -11.653  11.271  68.478  1.00  0.00    -0.328 NA 
HETATM   13  H2  UNL     1     -12.293  15.653  69.559  1.00  0.00     0.000 HD 
HETATM   14  C   UNL     1     -12.016  11.513  69.745  1.00  0.00    -0.346 A  
HETATM   15  H1  UNL     1     -11.951  15.133  71.086  1.00  0.00     0.000 HD 
BRANCH  11  16
HETATM   16  O   UNL     1     -10.587  15.579  65.184  1.00  0.00    -0.394 OA 
HETATM   17  C   UNL     1     -11.593  16.119  64.342  1.00  0.00    -0.146 C  
ENDBRANCH  11  16
BRANCH  14  18
HETATM   18  N   UNL     1     -12.326  10.449  70.557  1.00  0.00    -0.316 NA 
HETATM   19  C   UNL     1     -13.656   9.884  70.509  1.00  0.00     0.324 C  
BRANCH  18  20
HETATM   20  C   UNL     1     -11.286   9.785  71.325  1.00  0.00    -0.375 C  
BRANCH  20  21
HETATM   21  C   UNL     1     -10.378   8.932  70.430  1.00  0.00    -0.240 C  
BRANCH  21  22
HETATM   22  C   UNL     1      -8.893   9.178  70.700  1.00  0.00    -0.232 C  
BRANCH  22  23
HETATM   23  N   UNL     1      -8.373  10.282  69.920  1.00  0.00    -0.361 N  
HETATM   24  C   UNL     1      -7.040  10.616  69.909  1.00  0.00    -0.129 C  
HETATM   25  H   UNL     1      -9.022  10.833  69.358  1.00  0.00     0.000 HD 
HETATM   26  O   UNL     1      -6.192  10.029  70.574  1.00  0.00    -0.085 OA 
BRANCH  24  27
HETATM   27  C   UNL     1      -6.692  11.798  68.993  1.00  0.00    -0.102 C  
HETATM   28  C   UNL     1      -7.786  11.997  67.961  1.00  0.00    -0.132 C  
HETATM   29  C   UNL     1      -7.570  13.425  67.539  1.00  0.00    -0.176 C  
HETATM   30  C   UNL     1      -7.110  14.084  68.823  1.00  0.00    -0.108 C  
HETATM   31  O   UNL     1      -6.547  13.061  69.660  1.00  0.00    -0.083 OA 
ENDBRANCH  24  27
ENDBRANCH  22  23
ENDBRANCH  21  22
ENDBRANCH  20  21
ENDBRANCH  18  20
ENDBRANCH  14  18
ENDBRANCH   2   3
TORSDOF 8
ENDMDL
MODEL      136
REMARK 921   NORMALIZED FREE ENERGY PREDICTED BY IDOCK:   -4.64 KCAL/MOL
REMARK 922        TOTAL FREE ENERGY PREDICTED BY IDOCK:   -8.35 KCAL/MOL
REMARK 923 INTER-LIGAND FREE ENERGY PREDICTED BY IDOCK:   -7.28 KCAL/MOL
REMARK 924 INTRA-LIGAND FREE ENERGY PREDICTED BY IDOCK:   -1.06 KCAL/MOL
REMARK 927      BINDING AFFINITY PREDICTED BY RF-SCORE:    0.00 PKD
ROOT
HETATM    1  C   UNL     1     -10.758   5.407  66.089  1.00  0.00    -0.095 C  
HETATM    2  O   UNL     1     -10.570   5.552  67.496  1.00  0.00    -0.221 OA 
ENDROOT
BRANCH   2   3
HETATM    3  C   UNL     1     -10.202   6.807  67.911  1.00  0.00    -0.171 A  
HETATM    4  C   UNL     1     -10.996   7.930  67.621  1.00  0.00     0.016 A  
HETATM    5  C   UNL     1     -10.601   9.224  67.920  1.00  0.00    -0.231 A  
HETATM    6  C   UNL     1      -9.399   9.408  68.588  1.00  0.00    -0.142 A  
HETATM    7  C   UNL     1      -8.643   8.282  68.994  1.00  0.00    -0.135 A  
HETATM    8  C   UNL     1      -9.045  10.741  68.787  1.00  0.00    -0.178 A  
HETATM    9  N   UNL     1      -7.894  11.099  69.497  1.00  0.00    -0.375 NA 
HETATM   10  N   UNL     1      -9.778  11.768  68.339  1.00  0.00    -0.198 NA 
HETATM   11  C   UNL     1      -9.027   6.980  68.652  1.00  0.00    -0.130 A  
HETATM   12  N   UNL     1     -11.375  10.240  67.530  1.00  0.00    -0.301 NA 
HETATM   13  H2  UNL     1      -7.100  10.626  69.065  1.00  0.00     0.000 HD 
HETATM   14  C   UNL     1     -10.933  11.490  67.720  1.00  0.00    -0.236 A  
HETATM   15  H1  UNL     1      -7.636  12.075  69.642  1.00  0.00     0.000 HD 
BRANCH  11  16
HETATM   16  O   UNL     1      -8.137   6.046  69.102  1.00  0.00    -0.108 OA 
HETATM   17  C   UNL     1      -6.803   6.064  68.620  1.00  0.00    -0.070 C  
ENDBRANCH  11  16
BRANCH  14  18
HETATM   18  N   UNL     1     -11.713  12.537  67.292  1.00  0.00    -0.398 NA 
HETATM   19  C   UNL     1     -11.884  13.691  68.147  1.00  0.00    -0.372 C  
BRANCH  18  20
HETATM   20  C   UNL     1     -12.217  12.567  65.929  1.00  0.00    -0.238 C  
BRANCH  20  21
HETATM   21  C   UNL     1     -11.109  12.270  64.909  1.00  0.00    -0.356 C  
BRANCH  21  22
HETATM   22  C   UNL     1     -10.566  13.538  64.250  1.00  0.00    -0.287 C  
BRANCH  22  23
HETATM   23  N   UNL     1     -10.090  14.497  65.225  1.00  0.00    -0.452 N  
HETATM   24  C   UNL     1     -10.497  15.811  65.230  1.00  0.00    -0.401 C  
HETATM   25  H   UNL     1      -9.427  14.187  65.935  1.00  0.00     0.000 HD 
HETATM   26  O   UNL     1     -11.270  16.280  64.401  1.00  0.00    -0.716 OA 
BRANCH  24  27
HETATM   27  C   UNL     1      -9.900  16.653  66.365  1.00  0.00    -0.292 C  
HETATM   28  C   UNL     1      -8.429  16.918  66.100  1.00  0.00    -0.281 C  
HETATM   29  C   UNL     1      -8.163  18.127  66.955  1.00  0.00    -0.246 C  
HETATM   30  C   UNL     1      -9.470  18.888  66.868  1.00  0.00    -0.317 C  
HETATM   31  O   UNL     1     -10.504  17.944  66.546  1.00  0.00    -0.355 OA 
ENDBRANCH  24  27
ENDBRANCH  22  23
ENDBRANCH  21  22
ENDBRANCH  20  21
ENDBRANCH  18  20
ENDBRANCH  14  18
ENDBRANCH   2   3
TORSDOF 8
ENDMDL
MODEL      137
REMARK 921   NORMALIZED FREE ENERGY PREDICTED BY IDOCK:   -4.64 KCAL/MOL
REMARK 922        TOTAL FREE ENERGY PREDICTED BY IDOCK:   -8.34 KCAL/MOL
REMARK 923 INTER-LIGAND FREE ENERGY PREDICTED BY IDOCK:   -6.64 KCAL/MOL
REMARK 924 INTRA-LIGAND FREE ENERGY PREDICTED BY IDOCK:   -1.70 KCAL/MOL
REMARK 927      BINDING AFFINITY PREDICTED BY RF-SCORE:    0.00 PKD
ROOT
HETATM    1  C   UNL     1      -7.238   8.317  72.854  1.00  0.00    -0.103 C  
HETATM    2  O   UNL     1      -8.616   8.556  72.564  1.00  0.00    -0.284 OA 
ENDROOT
BRANCH   2   3
HETATM    3  C   UNL     1      -8.950   8.515  71.235  1.00  0.00    -0.192 A  
HETATM    4  C   UNL     1      -8.829   9.654  70.419  1.00  0.00    -0.227 A  
HETATM    5  C   UNL     1      -9.266   9.684  69.105  1.00  0.00    -0.168 A  
HETATM    6  C   UNL     1      -9.788   8.521  68.557  1.00  0.00    -0.186 A  
HETATM    7  C   UNL     1      -9.807   7.332  69.325  1.00  0.00    -0.166 A  
HETATM    8  C   UNL     1     -10.267   8.658  67.256  1.00  0.00    -0.268 A  
HETATM    9  N   UNL     1     -10.768   7.567  66.537  1.00  0.00    -0.347 NA 
HETATM   10  N   UNL     1     -10.265   9.822  66.593  1.00  0.00    -0.233 NA 
HETATM   11  C   UNL     1      -9.403   7.320  70.666  1.00  0.00    -0.157 A  
HETATM   12  N   UNL     1      -9.195  10.834  68.429  1.00  0.00    -0.157 NA 
HETATM   13  H2  UNL     1     -11.504   7.135  67.098  1.00  0.00     0.000 HD 
HETATM   14  C   UNL     1      -9.723  10.886  67.199  1.00  0.00    -0.174 A  
HETATM   15  H1  UNL     1     -11.118   7.668  65.585  1.00  0.00     0.000 HD 
BRANCH  11  16
HETATM   16  O   UNL     1      -9.544   6.085  71.234  1.00  0.00    -0.166 OA 
HETATM   17  C   UNL     1      -9.924   4.983  70.425  1.00  0.00    -0.247 C  
ENDBRANCH  11  16
BRANCH  14  18
HETATM   18  N   UNL     1      -9.680  12.076  66.513  1.00  0.00    -0.211 NA 
HETATM   19  C   UNL     1     -10.296  12.165  65.208  1.00  0.00    -0.277 C  
BRANCH  18  20
HETATM   20  C   UNL     1      -9.180  13.278  67.159  1.00  0.00    -0.235 C  
BRANCH  20  21
HETATM   21  C   UNL     1     -10.307  14.280  67.443  1.00  0.00    -0.259 C  
BRANCH  21  22
HETATM   22  C   UNL     1     -10.666  14.352  68.927  1.00  0.00    -0.253 C  
BRANCH  22  23
HETATM   23  N   UNL     1     -11.399  13.184  69.368  1.00  0.00    -0.403 N  
HETATM   24  C   UNL     1     -12.188  13.187  70.494  1.00  0.00    -0.328 C  
HETATM   25  H   UNL     1     -11.327  12.325  68.822  1.00  0.00     0.000 HD 
HETATM   26  O   UNL     1     -12.313  14.163  71.226  1.00  0.00    -0.344 OA 
BRANCH  24  27
HETATM   27  C   UNL     1     -12.904  11.857  70.768  1.00  0.00    -0.052 C  
HETATM   28  C   UNL     1     -12.227  10.733  70.005  1.00  0.00    -0.409 C  
HETATM   29  C   UNL     1     -12.675   9.516  70.767  1.00  0.00    -0.135 C  
HETATM   30  C   UNL     1     -12.736  10.021  72.193  1.00  0.00    -0.265 C  
HETATM   31  O   UNL     1     -12.916  11.446  72.144  1.00  0.00    -0.395 OA 
ENDBRANCH  24  27
ENDBRANCH  22  23
ENDBRANCH  21  22
ENDBRANCH  20  21
ENDBRANCH  18  20
ENDBRANCH  14  18
ENDBRANCH   2   3
TORSDOF 8
ENDMDL
MODEL      138
REMARK 921   NORMALIZED FREE ENERGY PREDICTED BY IDOCK:   -4.63 KCAL/MOL
REMARK 922        TOTAL FREE ENERGY PREDICTED BY IDOCK:   -8.34 KCAL/MOL
REMARK 923 INTER-LIGAND FREE ENERGY PREDICTED BY IDOCK:   -7.61 KCAL/MOL
REMARK 924 INTRA-LIGAND FREE ENERGY PREDICTED BY IDOCK:   -0.72 KCAL/MOL
REMARK 927      BINDING AFFINITY PREDICTED BY RF-SCORE:    0.00 PKD
ROOT
HETATM    1  C   UNL     1     -12.015  16.115  72.450  1.00  0.00    -0.554 C  
HETATM    2  O   UNL     1     -12.535  16.189  71.122  1.00  0.00    -0.332 OA 
ENDROOT
BRANCH   2   3
HETATM    3  C   UNL     1     -11.876  15.426  70.192  1.00  0.00    -0.335 A  
HETATM    4  C   UNL     1     -12.038  14.030  70.150  1.00  0.00    -0.419 A  
HETATM    5  C   UNL     1     -11.302  13.215  69.305  1.00  0.00    -0.253 A  
HETATM    6  C   UNL     1     -10.413  13.813  68.424  1.00  0.00    -0.256 A  
HETATM    7  C   UNL     1     -10.323  15.225  68.368  1.00  0.00    -0.227 A  
HETATM    8  C   UNL     1      -9.665  12.918  67.661  1.00  0.00    -0.212 A  
HETATM    9  N   UNL     1      -8.768  13.357  66.681  1.00  0.00    -0.441 NA 
HETATM   10  N   UNL     1      -9.760  11.588  67.789  1.00  0.00    -0.171 NA 
HETATM   11  C   UNL     1     -11.038  16.039  69.254  1.00  0.00    -0.331 A  
HETATM   12  N   UNL     1     -11.456  11.892  69.392  1.00  0.00    -0.290 NA 
HETATM   13  H2  UNL     1      -8.120  14.011  67.121  1.00  0.00     0.000 HD 
HETATM   14  C   UNL     1     -10.660  11.106  68.655  1.00  0.00    -0.193 A  
HETATM   15  H1  UNL     1      -8.220  12.702  66.124  1.00  0.00     0.000 HD 
BRANCH  11  16
HETATM   16  O   UNL     1     -10.773  17.366  69.061  1.00  0.00    -0.265 OA 
HETATM   17  C   UNL     1     -10.638  17.866  67.740  1.00  0.00    -0.389 C  
ENDBRANCH  11  16
BRANCH  14  18
HETATM   18  N   UNL     1     -10.794   9.742  68.766  1.00  0.00    -0.212 NA 
HETATM   19  C   UNL     1     -10.441   8.902  67.643  1.00  0.00    -0.255 C  
BRANCH  18  20
HETATM   20  C   UNL     1     -11.116   9.138  70.048  1.00  0.00    -0.190 C  
BRANCH  20  21
HETATM   21  C   UNL     1      -9.884   9.051  70.959  1.00  0.00    -0.352 C  
BRANCH  21  22
HETATM   22  C   UNL     1     -10.244   8.672  72.395  1.00  0.00    -0.249 C  
BRANCH  22  23
HETATM   23  N   UNL     1      -9.891   7.302  72.702  1.00  0.00    -0.161 N  
HETATM   24  C   UNL     1     -10.766   6.255  72.528  1.00  0.00    -0.226 C  
HETATM   25  H   UNL     1      -8.957   7.105  73.062  1.00  0.00     0.000 HD 
HETATM   26  O   UNL     1     -11.917   6.398  72.126  1.00  0.00    -0.325 OA 
BRANCH  24  27
HETATM   27  C   UNL     1     -10.185   4.880  72.883  1.00  0.00    -0.173 C  
HETATM   28  C   UNL     1     -11.289   3.955  73.363  1.00  0.00    -0.248 C  
HETATM   29  C   UNL     1     -10.681   2.595  73.150  1.00  0.00    -0.260 C  
HETATM   30  C   UNL     1      -9.855   2.794  71.896  1.00  0.00    -0.159 C  
HETATM   31  O   UNL     1      -9.543   4.193  71.797  1.00  0.00    -0.138 OA 
ENDBRANCH  24  27
ENDBRANCH  22  23
ENDBRANCH  21  22
ENDBRANCH  20  21
ENDBRANCH  18  20
ENDBRANCH  14  18
ENDBRANCH   2   3
TORSDOF 8
ENDMDL
MODEL      139
REMARK 921   NORMALIZED FREE ENERGY PREDICTED BY IDOCK:   -4.63 KCAL/MOL
REMARK 922        TOTAL FREE ENERGY PREDICTED BY IDOCK:   -8.33 KCAL/MOL
REMARK 923 INTER-LIGAND FREE ENERGY PREDICTED BY IDOCK:   -7.71 KCAL/MOL
REMARK 924 INTRA-LIGAND FREE ENERGY PREDICTED BY IDOCK:   -0.63 KCAL/MOL
REMARK 927      BINDING AFFINITY PREDICTED BY RF-SCORE:    0.00 PKD
ROOT
HETATM    1  C   UNL     1      -8.599   5.627  65.522  1.00  0.00    -0.151 C  
HETATM    2  O   UNL     1      -9.661   4.793  65.984  1.00  0.00    -0.163 OA 
ENDROOT
BRANCH   2   3
HETATM    3  C   UNL     1      -9.942   4.890  67.323  1.00  0.00    -0.184 A  
HETATM    4  C   UNL     1     -10.744   5.930  67.824  1.00  0.00    -0.346 A  
HETATM    5  C   UNL     1     -10.953   6.128  69.179  1.00  0.00    -0.381 A  
HETATM    6  C   UNL     1     -10.393   5.224  70.071  1.00  0.00    -0.365 A  
HETATM    7  C   UNL     1      -9.682   4.104  69.580  1.00  0.00    -0.254 A  
HETATM    8  C   UNL     1     -10.593   5.538  71.414  1.00  0.00    -0.243 A  
HETATM    9  N   UNL     1     -10.147   4.698  72.440  1.00  0.00    -0.176 NA 
HETATM   10  N   UNL     1     -11.237   6.640  71.822  1.00  0.00    -0.248 NA 
HETATM   11  C   UNL     1      -9.440   3.933  68.212  1.00  0.00    -0.151 A  
HETATM   12  N   UNL     1     -11.656   7.193  69.573  1.00  0.00     0.058 NA 
HETATM   13  H2  UNL     1      -9.148   4.538  72.301  1.00  0.00     0.000 HD 
HETATM   14  C   UNL     1     -11.758   7.443  70.885  1.00  0.00    -0.296 A  
HETATM   15  H1  UNL     1     -10.293   4.928  73.423  1.00  0.00     0.000 HD 
BRANCH  11  16
HETATM   16  O   UNL     1      -8.698   2.814  67.956  1.00  0.00    -0.085 OA 
HETATM   17  C   UNL     1      -9.311   1.537  68.033  1.00  0.00    -0.169 C  
ENDBRANCH  11  16
BRANCH  14  18
HETATM   18  N   UNL     1     -12.454   8.555  71.292  1.00  0.00    -0.286 NA 
HETATM   19  C   UNL     1     -13.860   8.434  71.610  1.00  0.00    -0.379 C  
BRANCH  18  20
HETATM   20  C   UNL     1     -11.754   9.798  71.571  1.00  0.00    -0.375 C  
BRANCH  20  21
HETATM   21  C   UNL     1     -12.069  10.872  70.521  1.00  0.00    -0.464 C  
BRANCH  21  22
HETATM   22  C   UNL     1     -12.588  12.167  71.147  1.00  0.00    -0.260 C  
BRANCH  22  23
HETATM   23  N   UNL     1     -11.959  13.339  70.575  1.00  0.00    -0.523 N  
HETATM   24  C   UNL     1     -12.533  14.587  70.629  1.00  0.00    -0.343 C  
HETATM   25  H   UNL     1     -11.055  13.235  70.116  1.00  0.00     0.000 HD 
HETATM   26  O   UNL     1     -13.629  14.804  71.137  1.00  0.00    -0.385 OA 
BRANCH  24  27
HETATM   27  C   UNL     1     -11.689  15.700  69.993  1.00  0.00    -0.357 C  
HETATM   28  C   UNL     1     -10.216  15.344  70.069  1.00  0.00    -0.265 C  
HETATM   29  C   UNL     1      -9.623  16.208  68.988  1.00  0.00    -0.251 C  
HETATM   30  C   UNL     1     -10.717  16.226  67.941  1.00  0.00    -0.329 C  
HETATM   31  O   UNL     1     -11.961  15.951  68.605  1.00  0.00    -0.338 OA 
ENDBRANCH  24  27
ENDBRANCH  22  23
ENDBRANCH  21  22
ENDBRANCH  20  21
ENDBRANCH  18  20
ENDBRANCH  14  18
ENDBRANCH   2   3
TORSDOF 8
ENDMDL
MODEL      140
REMARK 921   NORMALIZED FREE ENERGY PREDICTED BY IDOCK:   -4.60 KCAL/MOL
REMARK 922        TOTAL FREE ENERGY PREDICTED BY IDOCK:   -8.29 KCAL/MOL
REMARK 923 INTER-LIGAND FREE ENERGY PREDICTED BY IDOCK:   -8.00 KCAL/MOL
REMARK 924 INTRA-LIGAND FREE ENERGY PREDICTED BY IDOCK:   -0.30 KCAL/MOL
REMARK 927      BINDING AFFINITY PREDICTED BY RF-SCORE:    0.00 PKD
ROOT
HETATM    1  C   UNL     1      -9.668  17.850  68.485  1.00  0.00    -0.351 C  
HETATM    2  O   UNL     1     -10.750  17.215  69.166  1.00  0.00    -0.301 OA 
ENDROOT
BRANCH   2   3
HETATM    3  C   UNL     1     -10.906  15.879  68.901  1.00  0.00    -0.274 A  
HETATM    4  C   UNL     1     -10.708  15.367  67.606  1.00  0.00    -0.292 A  
HETATM    5  C   UNL     1     -10.969  14.047  67.274  1.00  0.00    -0.295 A  
HETATM    6  C   UNL     1     -11.385  13.186  68.279  1.00  0.00    -0.333 A  
HETATM    7  C   UNL     1     -11.475  13.654  69.612  1.00  0.00    -0.286 A  
HETATM    8  C   UNL     1     -11.693  11.897  67.846  1.00  0.00    -0.298 A  
HETATM    9  N   UNL     1     -12.068  10.890  68.742  1.00  0.00    -0.763 NA 
HETATM   10  N   UNL     1     -11.633  11.522  66.562  1.00  0.00    -0.426 NA 
HETATM   11  C   UNL     1     -11.251  14.999  69.932  1.00  0.00    -0.276 A  
HETATM   12  N   UNL     1     -10.839  13.666  66.002  1.00  0.00    -0.275 NA 
HETATM   13  H2  UNL     1     -12.860  11.234  69.285  1.00  0.00     0.000 HD 
HETATM   14  C   UNL     1     -11.202  12.421  65.667  1.00  0.00    -0.322 A  
HETATM   15  H1  UNL     1     -12.292   9.948  68.424  1.00  0.00     0.000 HD 
BRANCH  11  16
HETATM   16  O   UNL     1     -11.434  15.248  71.263  1.00  0.00    -0.331 OA 
HETATM   17  C   UNL     1     -12.492  14.605  71.955  1.00  0.00    -0.332 C  
ENDBRANCH  11  16
BRANCH  14  18
HETATM   18  N   UNL     1     -11.099  12.035  64.352  1.00  0.00    -0.324 NA 
HETATM   19  C   UNL     1     -12.286  12.007  63.526  1.00  0.00    -0.551 C  
BRANCH  18  20
HETATM   20  C   UNL     1      -9.793  11.826  63.748  1.00  0.00    -0.304 C  
BRANCH  20  21
HETATM   21  C   UNL     1      -9.426  10.337  63.695  1.00  0.00    -0.348 C  
BRANCH  21  22
HETATM   22  C   UNL     1      -9.590   9.646  65.048  1.00  0.00    -0.214 C  
BRANCH  22  23
HETATM   23  N   UNL     1      -9.141   8.270  65.015  1.00  0.00    -0.379 N  
HETATM   24  C   UNL     1      -9.162   7.458  66.124  1.00  0.00    -0.099 C  
HETATM   25  H   UNL     1      -8.796   7.888  64.135  1.00  0.00     0.000 HD 
HETATM   26  O   UNL     1      -9.535   7.837  67.230  1.00  0.00    -0.138 OA 
BRANCH  24  27
HETATM   27  C   UNL     1      -8.674   6.025  65.869  1.00  0.00    -0.154 C  
HETATM   28  C   UNL     1      -8.101   5.911  64.469  1.00  0.00    -0.132 C  
HETATM   29  C   UNL     1      -7.231   4.688  64.578  1.00  0.00    -0.062 C  
HETATM   30  C   UNL     1      -6.709   4.779  65.997  1.00  0.00    -0.050 C  
HETATM   31  O   UNL     1      -7.640   5.569  66.755  1.00  0.00    -0.086 OA 
ENDBRANCH  24  27
ENDBRANCH  22  23
ENDBRANCH  21  22
ENDBRANCH  20  21
ENDBRANCH  18  20
ENDBRANCH  14  18
ENDBRANCH   2   3
TORSDOF 8
ENDMDL
MODEL      141
REMARK 921   NORMALIZED FREE ENERGY PREDICTED BY IDOCK:   -4.59 KCAL/MOL
REMARK 922        TOTAL FREE ENERGY PREDICTED BY IDOCK:   -8.28 KCAL/MOL
REMARK 923 INTER-LIGAND FREE ENERGY PREDICTED BY IDOCK:   -6.94 KCAL/MOL
REMARK 924 INTRA-LIGAND FREE ENERGY PREDICTED BY IDOCK:   -1.34 KCAL/MOL
REMARK 927      BINDING AFFINITY PREDICTED BY RF-SCORE:    0.00 PKD
ROOT
HETATM    1  C   UNL     1     -10.614  19.209  66.709  1.00  0.00    -0.439 C  
HETATM    2  O   UNL     1      -9.411  18.788  66.066  1.00  0.00    -0.478 OA 
ENDROOT
BRANCH   2   3
HETATM    3  C   UNL     1      -8.960  17.544  66.424  1.00  0.00    -0.238 A  
HETATM    4  C   UNL     1      -9.599  16.379  65.965  1.00  0.00    -0.352 A  
HETATM    5  C   UNL     1      -9.247  15.110  66.398  1.00  0.00    -0.300 A  
HETATM    6  C   UNL     1      -8.178  14.987  67.273  1.00  0.00    -0.236 A  
HETATM    7  C   UNL     1      -7.446  16.138  67.653  1.00  0.00    -0.166 A  
HETATM    8  C   UNL     1      -7.936  13.686  67.711  1.00  0.00    -0.172 A  
HETATM    9  N   UNL     1      -6.857  13.381  68.549  1.00  0.00    -0.091 NA 
HETATM   10  N   UNL     1      -8.692  12.640  67.354  1.00  0.00    -0.181 NA 
HETATM   11  C   UNL     1      -7.834  17.420  67.246  1.00  0.00    -0.198 A  
HETATM   12  N   UNL     1      -9.964  14.065  65.979  1.00  0.00    -0.308 NA 
HETATM   13  H2  UNL     1      -6.920  13.981  69.371  1.00  0.00     0.000 HD 
HETATM   14  C   UNL     1      -9.692  12.857  66.489  1.00  0.00    -0.257 A  
HETATM   15  H1  UNL     1      -6.681  12.429  68.869  1.00  0.00     0.000 HD 
BRANCH  11  16
HETATM   16  O   UNL     1      -7.021  18.391  67.760  1.00  0.00    -0.208 OA 
HETATM   17  C   UNL     1      -7.345  18.985  69.007  1.00  0.00    -0.306 C  
ENDBRANCH  11  16
BRANCH  14  18
HETATM   18  N   UNL     1     -10.449  11.784  66.084  1.00  0.00    -0.237 NA 
HETATM   19  C   UNL     1     -10.433  11.390  64.693  1.00  0.00    -0.315 C  
BRANCH  18  20
HETATM   20  C   UNL     1     -11.118  10.946  67.065  1.00  0.00    -0.202 C  
BRANCH  20  21
HETATM   21  C   UNL     1     -11.869  11.785  68.108  1.00  0.00    -0.324 C  
BRANCH  21  22
HETATM   22  C   UNL     1     -11.324  11.584  69.523  1.00  0.00    -0.274 C  
BRANCH  22  23
HETATM   23  N   UNL     1     -10.063  10.872  69.525  1.00  0.00    -0.437 N  
HETATM   24  C   UNL     1      -9.837   9.770  70.315  1.00  0.00    -0.240 C  
HETATM   25  H   UNL     1      -9.314  11.201  68.917  1.00  0.00     0.000 HD 
HETATM   26  O   UNL     1     -10.669   9.318  71.096  1.00  0.00    -0.278 OA 
BRANCH  24  27
HETATM   27  C   UNL     1      -8.446   9.144  70.144  1.00  0.00    -0.176 C  
HETATM   28  C   UNL     1      -7.778   9.690  68.896  1.00  0.00    -0.077 C  
HETATM   29  C   UNL     1      -6.324   9.416  69.167  1.00  0.00    -0.042 C  
HETATM   30  C   UNL     1      -6.224   9.609  70.666  1.00  0.00    -0.084 C  
HETATM   31  O   UNL     1      -7.531   9.395  71.222  1.00  0.00    -0.322 OA 
ENDBRANCH  24  27
ENDBRANCH  22  23
ENDBRANCH  21  22
ENDBRANCH  20  21
ENDBRANCH  18  20
ENDBRANCH  14  18
ENDBRANCH   2   3
TORSDOF 8
ENDMDL
MODEL      142
REMARK 921   NORMALIZED FREE ENERGY PREDICTED BY IDOCK:   -4.58 KCAL/MOL
REMARK 922        TOTAL FREE ENERGY PREDICTED BY IDOCK:   -8.26 KCAL/MOL
REMARK 923 INTER-LIGAND FREE ENERGY PREDICTED BY IDOCK:   -7.31 KCAL/MOL
REMARK 924 INTRA-LIGAND FREE ENERGY PREDICTED BY IDOCK:   -0.95 KCAL/MOL
REMARK 927      BINDING AFFINITY PREDICTED BY RF-SCORE:    0.00 PKD
ROOT
HETATM    1  C   UNL     1     -10.462   4.720  66.077  1.00  0.00    -0.292 C  
HETATM    2  O   UNL     1     -10.164   5.559  67.193  1.00  0.00    -0.172 OA 
ENDROOT
BRANCH   2   3
HETATM    3  C   UNL     1      -9.610   6.774  66.881  1.00  0.00    -0.160 A  
HETATM    4  C   UNL     1     -10.344   7.965  67.023  1.00  0.00    -0.411 A  
HETATM    5  C   UNL     1      -9.862   9.196  66.609  1.00  0.00    -0.240 A  
HETATM    6  C   UNL     1      -8.577   9.258  66.089  1.00  0.00    -0.146 A  
HETATM    7  C   UNL     1      -7.779   8.090  66.049  1.00  0.00    -0.088 A  
HETATM    8  C   UNL     1      -8.198  10.520  65.633  1.00  0.00    -0.161 A  
HETATM    9  N   UNL     1      -6.913  10.768  65.137  1.00  0.00    -0.362 NA 
HETATM   10  N   UNL     1      -9.013  11.582  65.654  1.00  0.00    -0.134 NA 
HETATM   11  C   UNL     1      -8.288   6.843  66.430  1.00  0.00    -0.125 A  
HETATM   12  N   UNL     1     -10.659  10.263  66.699  1.00  0.00    -0.198 NA 
HETATM   13  H2  UNL     1      -6.732  10.098  64.390  1.00  0.00     0.000 HD 
HETATM   14  C   UNL     1     -10.230  11.426  66.192  1.00  0.00    -0.239 A  
HETATM   15  H1  UNL     1      -6.637  11.691  64.804  1.00  0.00     0.000 HD 
BRANCH  11  16
HETATM   16  O   UNL     1      -7.370   5.843  66.272  1.00  0.00    -0.078 OA 
HETATM   17  C   UNL     1      -6.877   5.546  64.975  1.00  0.00    -0.048 C  
ENDBRANCH  11  16
BRANCH  14  18
HETATM   18  N   UNL     1     -11.061  12.519  66.254  1.00  0.00    -0.283 NA 
HETATM   19  C   UNL     1     -11.241  13.341  65.078  1.00  0.00    -0.305 C  
BRANCH  18  20
HETATM   20  C   UNL     1     -11.885  12.749  67.430  1.00  0.00    -0.342 C  
BRANCH  20  21
HETATM   21  C   UNL     1     -11.031  12.957  68.688  1.00  0.00    -0.295 C  
BRANCH  21  22
HETATM   22  C   UNL     1     -11.720  12.448  69.953  1.00  0.00    -0.266 C  
BRANCH  22  23
HETATM   23  N   UNL     1     -11.269  11.123  70.324  1.00  0.00    -0.479 N  
HETATM   24  C   UNL     1     -11.953  10.331  71.216  1.00  0.00    -0.363 C  
HETATM   25  H   UNL     1     -10.411  10.763  69.907  1.00  0.00     0.000 HD 
HETATM   26  O   UNL     1     -12.979  10.689  71.786  1.00  0.00    -0.438 OA 
BRANCH  24  27
HETATM   27  C   UNL     1     -11.324   8.950  71.448  1.00  0.00    -0.309 C  
HETATM   28  C   UNL     1      -9.819   9.080  71.587  1.00  0.00    -0.366 C  
HETATM   29  C   UNL     1      -9.455   7.810  72.308  1.00  0.00    -0.225 C  
HETATM   30  C   UNL     1     -10.647   7.592  73.216  1.00  0.00    -0.384 C  
HETATM   31  O   UNL     1     -11.771   8.270  72.631  1.00  0.00    -0.403 OA 
ENDBRANCH  24  27
ENDBRANCH  22  23
ENDBRANCH  21  22
ENDBRANCH  20  21
ENDBRANCH  18  20
ENDBRANCH  14  18
ENDBRANCH   2   3
TORSDOF 8
ENDMDL
MODEL      143
REMARK 921   NORMALIZED FREE ENERGY PREDICTED BY IDOCK:   -4.56 KCAL/MOL
REMARK 922        TOTAL FREE ENERGY PREDICTED BY IDOCK:   -8.23 KCAL/MOL
REMARK 923 INTER-LIGAND FREE ENERGY PREDICTED BY IDOCK:   -6.98 KCAL/MOL
REMARK 924 INTRA-LIGAND FREE ENERGY PREDICTED BY IDOCK:   -1.26 KCAL/MOL
REMARK 927      BINDING AFFINITY PREDICTED BY RF-SCORE:    0.00 PKD
ROOT
HETATM    1  C   UNL     1      -9.592  17.518  68.355  1.00  0.00    -0.303 C  
HETATM    2  O   UNL     1     -10.953  17.173  68.096  1.00  0.00    -0.361 OA 
ENDROOT
BRANCH   2   3
HETATM    3  C   UNL     1     -11.191  15.838  67.898  1.00  0.00    -0.313 A  
HETATM    4  C   UNL     1     -11.677  15.024  68.937  1.00  0.00    -0.354 A  
HETATM    5  C   UNL     1     -11.819  13.652  68.810  1.00  0.00    -0.360 A  
HETATM    6  C   UNL     1     -11.525  13.070  67.585  1.00  0.00    -0.369 A  
HETATM    7  C   UNL     1     -11.149  13.888  66.493  1.00  0.00    -0.310 A  
HETATM    8  C   UNL     1     -11.627  11.680  67.565  1.00  0.00    -0.272 A  
HETATM    9  N   UNL     1     -11.423  10.944  66.393  1.00  0.00    -0.028 NA 
HETATM   10  N   UNL     1     -11.943  10.953  68.645  1.00  0.00    -0.504 NA 
HETATM   11  C   UNL     1     -10.967  15.268  66.640  1.00  0.00    -0.297 A  
HETATM   12  N   UNL     1     -12.203  12.943  69.874  1.00  0.00    -0.237 NA 
HETATM   13  H2  UNL     1     -10.508  11.196  66.021  1.00  0.00     0.000 HD 
HETATM   14  C   UNL     1     -12.228  11.607  69.779  1.00  0.00    -0.219 A  
HETATM   15  H1  UNL     1     -11.498   9.927  66.379  1.00  0.00     0.000 HD 
BRANCH  11  16
HETATM   16  O   UNL     1     -10.560  15.860  65.477  1.00  0.00    -0.363 OA 
HETATM   17  C   UNL     1     -11.512  16.125  64.458  1.00  0.00    -0.230 C  
ENDBRANCH  11  16
BRANCH  14  18
HETATM   18  N   UNL     1     -12.592  10.874  70.882  1.00  0.00    -0.374 NA 
HETATM   19  C   UNL     1     -13.171  11.548  72.022  1.00  0.00    -0.337 C  
BRANCH  18  20
HETATM   20  C   UNL     1     -12.562   9.421  70.840  1.00  0.00    -0.137 C  
BRANCH  20  21
HETATM   21  C   UNL     1     -11.364   8.857  71.616  1.00  0.00    -0.407 C  
BRANCH  21  22
HETATM   22  C   UNL     1     -10.033   9.440  71.141  1.00  0.00    -0.241 C  
BRANCH  22  23
HETATM   23  N   UNL     1      -9.694   9.004  69.802  1.00  0.00    -0.170 N  
HETATM   24  C   UNL     1      -8.637   8.163  69.543  1.00  0.00    -0.134 C  
HETATM   25  H   UNL     1     -10.262   9.332  69.022  1.00  0.00     0.000 HD 
HETATM   26  O   UNL     1      -7.884   7.739  70.415  1.00  0.00    -0.087 OA 
BRANCH  24  27
HETATM   27  C   UNL     1      -8.469   7.797  68.063  1.00  0.00    -0.123 C  
HETATM   28  C   UNL     1      -9.827   7.688  67.395  1.00  0.00    -0.226 C  
HETATM   29  C   UNL     1      -9.482   7.860  65.940  1.00  0.00    -0.000 C  
HETATM   30  C   UNL     1      -8.333   8.847  65.987  1.00  0.00    -0.124 C  
HETATM   31  O   UNL     1      -7.722   8.744  67.283  1.00  0.00    -0.095 OA 
ENDBRANCH  24  27
ENDBRANCH  22  23
ENDBRANCH  21  22
ENDBRANCH  20  21
ENDBRANCH  18  20
ENDBRANCH  14  18
ENDBRANCH   2   3
TORSDOF 8
ENDMDL
MODEL      144
REMARK 921   NORMALIZED FREE ENERGY PREDICTED BY IDOCK:   -4.53 KCAL/MOL
REMARK 922        TOTAL FREE ENERGY PREDICTED BY IDOCK:   -8.18 KCAL/MOL
REMARK 923 INTER-LIGAND FREE ENERGY PREDICTED BY IDOCK:   -7.05 KCAL/MOL
REMARK 924 INTRA-LIGAND FREE ENERGY PREDICTED BY IDOCK:   -1.13 KCAL/MOL
REMARK 927      BINDING AFFINITY PREDICTED BY RF-SCORE:    0.00 PKD
ROOT
HETATM    1  C   UNL     1     -11.995  14.200  64.415  1.00  0.00    -0.457 C  
HETATM    2  O   UNL     1     -11.428  15.510  64.425  1.00  0.00    -0.374 OA 
ENDROOT
BRANCH   2   3
HETATM    3  C   UNL     1     -10.452  15.718  65.365  1.00  0.00    -0.414 A  
HETATM    4  C   UNL     1      -9.711  14.647  65.894  1.00  0.00    -0.341 A  
HETATM    5  C   UNL     1      -8.801  14.803  66.928  1.00  0.00    -0.248 A  
HETATM    6  C   UNL     1      -8.573  16.082  67.416  1.00  0.00    -0.194 A  
HETATM    7  C   UNL     1      -9.221  17.188  66.816  1.00  0.00    -0.270 A  
HETATM    8  C   UNL     1      -7.698  16.140  68.499  1.00  0.00    -0.170 A  
HETATM    9  N   UNL     1      -7.314  17.358  69.070  1.00  0.00    -0.237 NA 
HETATM   10  N   UNL     1      -7.149  15.053  69.056  1.00  0.00    -0.122 NA 
HETATM   11  C   UNL     1     -10.170  17.018  65.801  1.00  0.00    -0.245 A  
HETATM   12  N   UNL     1      -8.206  13.720  67.430  1.00  0.00    -0.181 NA 
HETATM   13  H2  UNL     1      -8.161  17.865  69.325  1.00  0.00     0.000 HD 
HETATM   14  C   UNL     1      -7.416  13.863  68.503  1.00  0.00    -0.122 A  
HETATM   15  H1  UNL     1      -6.673  17.400  69.863  1.00  0.00     0.000 HD 
BRANCH  11  16
HETATM   16  O   UNL     1     -10.707  18.207  65.394  1.00  0.00    -0.620 OA 
HETATM   17  C   UNL     1     -10.524  19.365  66.192  1.00  0.00    -0.508 C  
ENDBRANCH  11  16
BRANCH  14  18
HETATM   18  N   UNL     1      -6.826  12.745  69.042  1.00  0.00    -0.097 NA 
HETATM   19  C   UNL     1      -6.010  12.876  70.228  1.00  0.00    -0.126 C  
BRANCH  18  20
HETATM   20  C   UNL     1      -7.158  11.424  68.535  1.00  0.00    -0.085 C  
BRANCH  20  21
HETATM   21  C   UNL     1      -7.622  10.486  69.658  1.00  0.00    -0.134 C  
BRANCH  21  22
HETATM   22  C   UNL     1      -8.946   9.796  69.334  1.00  0.00    -0.190 C  
BRANCH  22  23
HETATM   23  N   UNL     1      -9.122   9.595  67.911  1.00  0.00    -0.125 N  
HETATM   24  C   UNL     1     -10.267   9.967  67.247  1.00  0.00    -0.222 C  
HETATM   25  H   UNL     1      -8.367   9.161  67.380  1.00  0.00     0.000 HD 
HETATM   26  O   UNL     1     -11.237  10.471  67.805  1.00  0.00    -0.303 OA 
BRANCH  24  27
HETATM   27  C   UNL     1     -10.239   9.697  65.736  1.00  0.00    -0.102 C  
HETATM   28  C   UNL     1     -10.251  11.007  64.972  1.00  0.00    -0.360 C  
HETATM   29  C   UNL     1      -9.699  10.600  63.632  1.00  0.00    -0.383 C  
HETATM   30  C   UNL     1      -8.694   9.529  64.000  1.00  0.00    -0.216 C  
HETATM   31  O   UNL     1      -9.085   8.980  65.269  1.00  0.00    -0.209 OA 
ENDBRANCH  24  27
ENDBRANCH  22  23
ENDBRANCH  21  22
ENDBRANCH  20  21
ENDBRANCH  18  20
ENDBRANCH  14  18
ENDBRANCH   2   3
TORSDOF 8
ENDMDL
MODEL      145
REMARK 921   NORMALIZED FREE ENERGY PREDICTED BY IDOCK:   -4.51 KCAL/MOL
REMARK 922        TOTAL FREE ENERGY PREDICTED BY IDOCK:   -8.15 KCAL/MOL
REMARK 923 INTER-LIGAND FREE ENERGY PREDICTED BY IDOCK:   -7.05 KCAL/MOL
REMARK 924 INTRA-LIGAND FREE ENERGY PREDICTED BY IDOCK:   -1.10 KCAL/MOL
REMARK 927      BINDING AFFINITY PREDICTED BY RF-SCORE:    0.00 PKD
ROOT
HETATM    1  C   UNL     1     -10.524  15.247  65.275  1.00  0.00    -0.411 C  
HETATM    2  O   UNL     1     -11.390  14.182  65.666  1.00  0.00    -0.309 OA 
ENDROOT
BRANCH   2   3
HETATM    3  C   UNL     1     -10.824  12.933  65.655  1.00  0.00    -0.273 A  
HETATM    4  C   UNL     1     -10.172  12.421  66.790  1.00  0.00    -0.234 A  
HETATM    5  C   UNL     1      -9.487  11.216  66.781  1.00  0.00    -0.184 A  
HETATM    6  C   UNL     1      -9.501  10.459  65.618  1.00  0.00    -0.262 A  
HETATM    7  C   UNL     1     -10.252  10.902  64.503  1.00  0.00    -0.422 A  
HETATM    8  C   UNL     1      -8.732   9.299  65.674  1.00  0.00    -0.166 A  
HETATM    9  N   UNL     1      -8.687   8.394  64.608  1.00  0.00    -0.406 NA 
HETATM   10  N   UNL     1      -8.003   8.953  66.743  1.00  0.00    -0.106 NA 
HETATM   11  C   UNL     1     -10.905  12.140  64.505  1.00  0.00    -0.312 A  
HETATM   12  N   UNL     1      -8.821  10.846  67.878  1.00  0.00    -0.132 NA 
HETATM   13  H2  UNL     1      -8.415   8.910  63.771  1.00  0.00     0.000 HD 
HETATM   14  C   UNL     1      -8.069   9.739  67.826  1.00  0.00    -0.113 A  
HETATM   15  H1  UNL     1      -8.124   7.545  64.649  1.00  0.00     0.000 HD 
BRANCH  11  16
HETATM   16  O   UNL     1     -11.532  12.393  63.317  1.00  0.00    -0.441 OA 
HETATM   17  C   UNL     1     -12.888  12.014  63.148  1.00  0.00    -0.038 C  
ENDBRANCH  11  16
BRANCH  14  18
HETATM   18  N   UNL     1      -7.357   9.373  68.942  1.00  0.00    -0.072 NA 
HETATM   19  C   UNL     1      -7.248  10.298  70.049  1.00  0.00    -0.158 C  
BRANCH  18  20
HETATM   20  C   UNL     1      -6.867   8.012  69.087  1.00  0.00    -0.052 C  
BRANCH  20  21
HETATM   21  C   UNL     1      -6.852   7.569  70.557  1.00  0.00    -0.047 C  
BRANCH  21  22
HETATM   22  C   UNL     1      -8.147   6.868  70.970  1.00  0.00    -0.106 C  
BRANCH  22  23
HETATM   23  N   UNL     1      -9.115   7.793  71.520  1.00  0.00    -0.131 N  
HETATM   24  C   UNL     1     -10.405   7.879  71.053  1.00  0.00    -0.201 C  
HETATM   25  H   UNL     1      -8.829   8.405  72.285  1.00  0.00     0.000 HD 
HETATM   26  O   UNL     1     -10.831   7.203  70.121  1.00  0.00    -0.243 OA 
BRANCH  24  27
HETATM   27  C   UNL     1     -11.280   8.899  71.793  1.00  0.00    -0.362 C  
HETATM   28  C   UNL     1     -11.754   9.975  70.833  1.00  0.00    -0.462 C  
HETATM   29  C   UNL     1     -12.956  10.532  71.546  1.00  0.00    -0.565 C  
HETATM   30  C   UNL     1     -13.533   9.309  72.228  1.00  0.00    -0.482 C  
HETATM   31  O   UNL     1     -12.468   8.359  72.394  1.00  0.00    -0.359 OA 
ENDBRANCH  24  27
ENDBRANCH  22  23
ENDBRANCH  21  22
ENDBRANCH  20  21
ENDBRANCH  18  20
ENDBRANCH  14  18
ENDBRANCH   2   3
TORSDOF 8
ENDMDL
MODEL      146
REMARK 921   NORMALIZED FREE ENERGY PREDICTED BY IDOCK:   -4.50 KCAL/MOL
REMARK 922        TOTAL FREE ENERGY PREDICTED BY IDOCK:   -8.15 KCAL/MOL
REMARK 923 INTER-LIGAND FREE ENERGY PREDICTED BY IDOCK:   -6.54 KCAL/MOL
REMARK 924 INTRA-LIGAND FREE ENERGY PREDICTED BY IDOCK:   -1.61 KCAL/MOL
REMARK 927      BINDING AFFINITY PREDICTED BY RF-SCORE:    0.00 PKD
ROOT
HETATM    1  C   UNL     1     -10.893  15.360  68.440  1.00  0.00    -0.268 C  
HETATM    2  O   UNL     1     -12.106  14.626  68.609  1.00  0.00    -0.285 OA 
ENDROOT
BRANCH   2   3
HETATM    3  C   UNL     1     -11.971  13.405  69.219  1.00  0.00    -0.317 A  
HETATM    4  C   UNL     1     -11.293  12.348  68.587  1.00  0.00    -0.332 A  
HETATM    5  C   UNL     1     -11.238  11.069  69.119  1.00  0.00    -0.255 A  
HETATM    6  C   UNL     1     -11.827  10.845  70.355  1.00  0.00    -0.449 A  
HETATM    7  C   UNL     1     -12.411  11.924  71.061  1.00  0.00    -0.362 A  
HETATM    8  C   UNL     1     -11.787   9.519  70.783  1.00  0.00    -0.277 A  
HETATM    9  N   UNL     1     -12.281   9.133  72.033  1.00  0.00    -0.377 NA 
HETATM   10  N   UNL     1     -11.261   8.528  70.050  1.00  0.00    -0.154 NA 
HETATM   11  C   UNL     1     -12.500  13.203  70.499  1.00  0.00    -0.248 A  
HETATM   12  N   UNL     1     -10.649  10.103  68.411  1.00  0.00    -0.204 NA 
HETATM   13  H2  UNL     1     -13.248   9.454  72.100  1.00  0.00     0.000 HD 
HETATM   14  C   UNL     1     -10.699   8.848  68.877  1.00  0.00    -0.106 A  
HETATM   15  H1  UNL     1     -12.252   8.163  72.346  1.00  0.00     0.000 HD 
BRANCH  11  16
HETATM   16  O   UNL     1     -13.138  14.085  71.325  1.00  0.00    -0.328 OA 
HETATM   17  C   UNL     1     -14.244  13.644  72.096  1.00  0.00    -0.389 C  
ENDBRANCH  11  16
BRANCH  14  18
HETATM   18  N   UNL     1     -10.121   7.846  68.135  1.00  0.00    -0.184 NA 
HETATM   19  C   UNL     1     -10.342   7.804  66.706  1.00  0.00    -0.277 C  
BRANCH  18  20
HETATM   20  C   UNL     1      -9.160   6.942  68.745  1.00  0.00    -0.133 C  
BRANCH  20  21
HETATM   21  C   UNL     1      -9.590   5.476  68.600  1.00  0.00    -0.172 C  
BRANCH  21  22
HETATM   22  C   UNL     1     -10.259   4.936  69.864  1.00  0.00    -0.229 C  
BRANCH  22  23
HETATM   23  N   UNL     1     -10.064   5.811  71.001  1.00  0.00    -0.196 N  
HETATM   24  C   UNL     1      -9.894   5.335  72.279  1.00  0.00    -0.168 C  
HETATM   25  H   UNL     1     -10.053   6.819  70.847  1.00  0.00     0.000 HD 
HETATM   26  O   UNL     1      -9.919   4.141  72.564  1.00  0.00    -0.148 OA 
BRANCH  24  27
HETATM   27  C   UNL     1      -9.670   6.426  73.336  1.00  0.00    -0.165 C  
HETATM   28  C   UNL     1      -8.310   6.252  73.985  1.00  0.00    -0.113 C  
HETATM   29  C   UNL     1      -8.048   7.623  74.548  1.00  0.00    -0.256 C  
HETATM   30  C   UNL     1      -8.689   8.532  73.520  1.00  0.00     0.059 C  
HETATM   31  O   UNL     1      -9.697   7.772  72.834  1.00  0.00    -0.200 OA 
ENDBRANCH  24  27
ENDBRANCH  22  23
ENDBRANCH  21  22
ENDBRANCH  20  21
ENDBRANCH  18  20
ENDBRANCH  14  18
ENDBRANCH   2   3
TORSDOF 8
ENDMDL
MODEL      147
REMARK 921   NORMALIZED FREE ENERGY PREDICTED BY IDOCK:   -4.49 KCAL/MOL
REMARK 922        TOTAL FREE ENERGY PREDICTED BY IDOCK:   -8.12 KCAL/MOL
REMARK 923 INTER-LIGAND FREE ENERGY PREDICTED BY IDOCK:   -6.48 KCAL/MOL
REMARK 924 INTRA-LIGAND FREE ENERGY PREDICTED BY IDOCK:   -1.65 KCAL/MOL
REMARK 927      BINDING AFFINITY PREDICTED BY RF-SCORE:    0.00 PKD
ROOT
HETATM    1  C   UNL     1      -7.769  13.129  68.310  1.00  0.00    -0.141 C  
HETATM    2  O   UNL     1      -8.769  12.797  67.347  1.00  0.00    -0.176 OA 
ENDROOT
BRANCH   2   3
HETATM    3  C   UNL     1      -9.137  11.476  67.318  1.00  0.00    -0.164 A  
HETATM    4  C   UNL     1      -9.015  10.662  68.458  1.00  0.00    -0.156 A  
HETATM    5  C   UNL     1      -9.265   9.299  68.435  1.00  0.00    -0.131 A  
HETATM    6  C   UNL     1      -9.712   8.731  67.251  1.00  0.00    -0.238 A  
HETATM    7  C   UNL     1      -9.955   9.555  66.126  1.00  0.00    -0.342 A  
HETATM    8  C   UNL     1      -9.871   7.347  67.297  1.00  0.00    -0.175 A  
HETATM    9  N   UNL     1     -10.372   6.628  66.206  1.00  0.00    -0.437 NA 
HETATM   10  N   UNL     1      -9.581   6.612  68.378  1.00  0.00    -0.124 NA 
HETATM   11  C   UNL     1      -9.660  10.923  66.144  1.00  0.00    -0.202 A  
HETATM   12  N   UNL     1      -9.039   8.585  69.541  1.00  0.00    -0.149 NA 
HETATM   13  H2  UNL     1      -9.796   6.850  65.394  1.00  0.00     0.000 HD 
HETATM   14  C   UNL     1      -9.172   7.253  69.480  1.00  0.00    -0.149 A  
HETATM   15  H1  UNL     1     -10.488   5.615  66.241  1.00  0.00     0.000 HD 
BRANCH  11  16
HETATM   16  O   UNL     1      -9.926  11.523  64.944  1.00  0.00    -0.241 OA 
HETATM   17  C   UNL     1     -11.273  11.760  64.566  1.00  0.00    -0.305 C  
ENDBRANCH  11  16
BRANCH  14  18
HETATM   18  N   UNL     1      -8.910   6.512  70.607  1.00  0.00    -0.144 NA 
HETATM   19  C   UNL     1      -7.756   6.837  71.416  1.00  0.00    -0.093 C  
BRANCH  18  20
HETATM   20  C   UNL     1      -9.871   5.530  71.081  1.00  0.00    -0.181 C  
BRANCH  20  21
HETATM   21  C   UNL     1     -11.293   6.107  71.128  1.00  0.00    -0.340 C  
BRANCH  21  22
HETATM   22  C   UNL     1     -11.504   7.044  72.318  1.00  0.00    -0.270 C  
BRANCH  22  23
HETATM   23  N   UNL     1     -11.289   8.431  71.964  1.00  0.00    -0.316 N  
HETATM   24  C   UNL     1     -12.294   9.235  71.480  1.00  0.00    -0.360 C  
HETATM   25  H   UNL     1     -10.356   8.828  72.079  1.00  0.00     0.000 HD 
HETATM   26  O   UNL     1     -13.439   8.840  71.284  1.00  0.00    -0.268 OA 
BRANCH  24  27
HETATM   27  C   UNL     1     -11.865  10.682  71.197  1.00  0.00    -0.241 C  
HETATM   28  C   UNL     1     -12.102  11.020  69.737  1.00  0.00    -0.424 C  
HETATM   29  C   UNL     1     -12.148  12.523  69.760  1.00  0.00    -0.293 C  
HETATM   30  C   UNL     1     -12.801  12.814  71.096  1.00  0.00    -0.226 C  
HETATM   31  O   UNL     1     -12.568  11.682  71.950  1.00  0.00    -0.190 OA 
ENDBRANCH  24  27
ENDBRANCH  22  23
ENDBRANCH  21  22
ENDBRANCH  20  21
ENDBRANCH  18  20
ENDBRANCH  14  18
ENDBRANCH   2   3
TORSDOF 8
ENDMDL
MODEL      148
REMARK 921   NORMALIZED FREE ENERGY PREDICTED BY IDOCK:   -4.44 KCAL/MOL
REMARK 922        TOTAL FREE ENERGY PREDICTED BY IDOCK:   -8.06 KCAL/MOL
REMARK 923 INTER-LIGAND FREE ENERGY PREDICTED BY IDOCK:   -7.25 KCAL/MOL
REMARK 924 INTRA-LIGAND FREE ENERGY PREDICTED BY IDOCK:   -0.80 KCAL/MOL
REMARK 927      BINDING AFFINITY PREDICTED BY RF-SCORE:    0.00 PKD
ROOT
HETATM    1  C   UNL     1     -11.860  15.762  72.073  1.00  0.00    -0.490 C  
HETATM    2  O   UNL     1     -12.571  15.773  70.835  1.00  0.00    -0.444 OA 
ENDROOT
BRANCH   2   3
HETATM    3  C   UNL     1     -12.039  14.984  69.848  1.00  0.00    -0.334 A  
HETATM    4  C   UNL     1     -12.062  13.581  69.947  1.00  0.00    -0.408 A  
HETATM    5  C   UNL     1     -11.433  12.755  69.029  1.00  0.00    -0.309 A  
HETATM    6  C   UNL     1     -10.807  13.340  67.938  1.00  0.00    -0.260 A  
HETATM    7  C   UNL     1     -10.875  14.742  67.759  1.00  0.00    -0.278 A  
HETATM    8  C   UNL     1     -10.140  12.443  67.105  1.00  0.00    -0.213 A  
HETATM    9  N   UNL     1      -9.509  12.862  65.928  1.00  0.00    -0.458 NA 
HETATM   10  N   UNL     1     -10.070  11.128  67.350  1.00  0.00    -0.182 NA 
HETATM   11  C   UNL     1     -11.476  15.573  68.711  1.00  0.00    -0.355 A  
HETATM   12  N   UNL     1     -11.429  11.438  69.246  1.00  0.00    -0.273 NA 
HETATM   13  H2  UNL     1      -8.857  13.607  66.171  1.00  0.00     0.000 HD 
HETATM   14  C   UNL     1     -10.723  10.655  68.420  1.00  0.00    -0.222 A  
HETATM   15  H1  UNL     1      -9.022  12.206  65.319  1.00  0.00     0.000 HD 
BRANCH  11  16
HETATM   16  O   UNL     1     -11.393  16.894  68.367  1.00  0.00    -0.230 OA 
HETATM   17  C   UNL     1     -10.560  17.283  67.286  1.00  0.00    -0.283 C  
ENDBRANCH  11  16
BRANCH  14  18
HETATM   18  N   UNL     1     -10.691   9.303  68.658  1.00  0.00    -0.183 NA 
HETATM   19  C   UNL     1     -10.362   8.399  67.577  1.00  0.00    -0.265 C  
BRANCH  18  20
HETATM   20  C   UNL     1     -10.811   8.793  70.014  1.00  0.00    -0.223 C  
BRANCH  20  21
HETATM   21  C   UNL     1      -9.509   8.978  70.806  1.00  0.00    -0.308 C  
BRANCH  21  22
HETATM   22  C   UNL     1      -9.021   7.676  71.440  1.00  0.00    -0.132 C  
BRANCH  22  23
HETATM   23  N   UNL     1      -8.679   6.680  70.445  1.00  0.00    -0.149 N  
HETATM   24  C   UNL     1      -9.308   5.459  70.374  1.00  0.00    -0.159 C  
HETATM   25  H   UNL     1      -7.945   6.893  69.771  1.00  0.00     0.000 HD 
HETATM   26  O   UNL     1     -10.183   5.105  71.158  1.00  0.00    -0.210 OA 
BRANCH  24  27
HETATM   27  C   UNL     1      -8.820   4.563  69.228  1.00  0.00    -0.090 C  
HETATM   28  C   UNL     1      -9.409   3.171  69.368  1.00  0.00    -0.225 C  
HETATM   29  C   UNL     1      -9.285   2.630  67.969  1.00  0.00    -0.254 C  
HETATM   30  C   UNL     1      -9.514   3.861  67.117  1.00  0.00    -0.201 C  
HETATM   31  O   UNL     1      -9.179   5.010  67.911  1.00  0.00    -0.112 OA 
ENDBRANCH  24  27
ENDBRANCH  22  23
ENDBRANCH  21  22
ENDBRANCH  20  21
ENDBRANCH  18  20
ENDBRANCH  14  18
ENDBRANCH   2   3
TORSDOF 8
ENDMDL
MODEL      149
REMARK 921   NORMALIZED FREE ENERGY PREDICTED BY IDOCK:   -4.43 KCAL/MOL
REMARK 922        TOTAL FREE ENERGY PREDICTED BY IDOCK:   -8.04 KCAL/MOL
REMARK 923 INTER-LIGAND FREE ENERGY PREDICTED BY IDOCK:   -6.93 KCAL/MOL
REMARK 924 INTRA-LIGAND FREE ENERGY PREDICTED BY IDOCK:   -1.11 KCAL/MOL
REMARK 927      BINDING AFFINITY PREDICTED BY RF-SCORE:    0.00 PKD
ROOT
HETATM    1  C   UNL     1     -10.859   4.002  64.560  1.00  0.00    -0.116 C  
HETATM    2  O   UNL     1      -9.643   4.084  65.303  1.00  0.00    -0.161 OA 
ENDROOT
BRANCH   2   3
HETATM    3  C   UNL     1      -9.448   5.261  65.978  1.00  0.00    -0.156 A  
HETATM    4  C   UNL     1     -10.118   5.526  67.186  1.00  0.00    -0.220 A  
HETATM    5  C   UNL     1     -10.038   6.748  67.835  1.00  0.00    -0.159 A  
HETATM    6  C   UNL     1      -9.212   7.725  67.298  1.00  0.00    -0.162 A  
HETATM    7  C   UNL     1      -8.437   7.436  66.149  1.00  0.00    -0.147 A  
HETATM    8  C   UNL     1      -9.244   8.944  67.973  1.00  0.00    -0.139 A  
HETATM    9  N   UNL     1      -8.425  10.015  67.598  1.00  0.00    -0.115 NA 
HETATM   10  N   UNL     1     -10.034   9.176  69.030  1.00  0.00    -0.178 NA 
HETATM   11  C   UNL     1      -8.556   6.215  65.475  1.00  0.00    -0.130 A  
HETATM   12  N   UNL     1     -10.776   6.945  68.929  1.00  0.00    -0.225 NA 
HETATM   13  H2  UNL     1      -8.588  10.201  66.608  1.00  0.00     0.000 HD 
HETATM   14  C   UNL     1     -10.782   8.163  69.486  1.00  0.00    -0.175 A  
HETATM   15  H1  UNL     1      -8.449  10.906  68.092  1.00  0.00     0.000 HD 
BRANCH  11  16
HETATM   16  O   UNL     1      -7.756   6.158  64.369  1.00  0.00    -0.092 OA 
HETATM   17  C   UNL     1      -6.360   6.371  64.505  1.00  0.00    -0.030 C  
ENDBRANCH  11  16
BRANCH  14  18
HETATM   18  N   UNL     1     -11.566   8.379  70.594  1.00  0.00    -0.239 NA 
HETATM   19  C   UNL     1     -12.330   7.281  71.146  1.00  0.00    -0.345 C  
BRANCH  18  20
HETATM   20  C   UNL     1     -11.496   9.642  71.309  1.00  0.00    -0.392 C  
BRANCH  20  21
HETATM   21  C   UNL     1     -12.615  10.600  70.878  1.00  0.00    -0.503 C  
BRANCH  21  22
HETATM   22  C   UNL     1     -12.098  12.008  70.585  1.00  0.00    -0.274 C  
BRANCH  22  23
HETATM   23  N   UNL     1     -11.822  12.207  69.178  1.00  0.00    -0.312 N  
HETATM   24  C   UNL     1     -11.746  13.455  68.607  1.00  0.00    -0.349 C  
HETATM   25  H   UNL     1     -11.680  11.388  68.586  1.00  0.00     0.000 HD 
HETATM   26  O   UNL     1     -11.929  14.495  69.234  1.00  0.00    -0.310 OA 
BRANCH  24  27
HETATM   27  C   UNL     1     -11.413  13.447  67.109  1.00  0.00    -0.339 C  
HETATM   28  C   UNL     1     -11.237  12.021  66.622  1.00  0.00    -0.380 C  
HETATM   29  C   UNL     1     -11.452  12.162  65.139  1.00  0.00    -0.376 C  
HETATM   30  C   UNL     1     -12.502  13.251  65.059  1.00  0.00    -0.443 C  
HETATM   31  O   UNL     1     -12.414  14.032  66.261  1.00  0.00    -0.465 OA 
ENDBRANCH  24  27
ENDBRANCH  22  23
ENDBRANCH  21  22
ENDBRANCH  20  21
ENDBRANCH  18  20
ENDBRANCH  14  18
ENDBRANCH   2   3
TORSDOF 8
ENDMDL
MODEL      150
REMARK 921   NORMALIZED FREE ENERGY PREDICTED BY IDOCK:   -4.40 KCAL/MOL
REMARK 922        TOTAL FREE ENERGY PREDICTED BY IDOCK:   -8.00 KCAL/MOL
REMARK 923 INTER-LIGAND FREE ENERGY PREDICTED BY IDOCK:   -7.66 KCAL/MOL
REMARK 924 INTRA-LIGAND FREE ENERGY PREDICTED BY IDOCK:   -0.34 KCAL/MOL
REMARK 927      BINDING AFFINITY PREDICTED BY RF-SCORE:    0.00 PKD
ROOT
HETATM    1  C   UNL     1      -8.501   8.051  73.487  1.00  0.00    -0.245 C  
HETATM    2  O   UNL     1      -9.833   8.167  72.985  1.00  0.00    -0.280 OA 
ENDROOT
BRANCH   2   3
HETATM    3  C   UNL     1      -9.975   7.928  71.643  1.00  0.00    -0.181 A  
HETATM    4  C   UNL     1      -9.877   8.970  70.704  1.00  0.00    -0.284 A  
HETATM    5  C   UNL     1     -10.131   8.789  69.354  1.00  0.00    -0.203 A  
HETATM    6  C   UNL     1     -10.435   7.511  68.907  1.00  0.00    -0.214 A  
HETATM    7  C   UNL     1     -10.421   6.428  69.818  1.00  0.00    -0.266 A  
HETATM    8  C   UNL     1     -10.744   7.432  67.550  1.00  0.00    -0.240 A  
HETATM    9  N   UNL     1     -11.014   6.208  66.927  1.00  0.00    -0.582 NA 
HETATM   10  N   UNL     1     -10.786   8.501  66.744  1.00  0.00    -0.161 NA 
HETATM   11  C   UNL     1     -10.206   6.625  71.186  1.00  0.00    -0.194 A  
HETATM   12  N   UNL     1     -10.101   9.851  68.545  1.00  0.00    -0.162 NA 
HETATM   13  H2  UNL     1     -11.764   5.752  67.447  1.00  0.00     0.000 HD 
HETATM   14  C   UNL     1     -10.459   9.690  67.265  1.00  0.00    -0.258 A  
HETATM   15  H1  UNL     1     -11.240   6.150  65.935  1.00  0.00     0.000 HD 
BRANCH  11  16
HETATM   16  O   UNL     1     -10.279   5.457  71.892  1.00  0.00    -0.190 OA 
HETATM   17  C   UNL     1     -10.069   4.223  71.224  1.00  0.00    -0.108 C  
ENDBRANCH  11  16
BRANCH  14  18
HETATM   18  N   UNL     1     -10.460  10.788  66.437  1.00  0.00    -0.247 NA 
HETATM   19  C   UNL     1     -10.286  10.602  65.014  1.00  0.00    -0.310 C  
BRANCH  18  20
HETATM   20  C   UNL     1     -10.807  12.099  66.958  1.00  0.00    -0.247 C  
BRANCH  20  21
HETATM   21  C   UNL     1     -10.899  13.146  65.840  1.00  0.00    -0.288 C  
BRANCH  21  22
HETATM   22  C   UNL     1      -9.558  13.826  65.563  1.00  0.00     0.044 C  
BRANCH  22  23
HETATM   23  N   UNL     1      -9.442  15.100  66.241  1.00  0.00    -0.290 N  
HETATM   24  C   UNL     1     -10.063  16.239  65.787  1.00  0.00    -0.347 C  
HETATM   25  H   UNL     1      -8.878  15.154  67.089  1.00  0.00     0.000 HD 
HETATM   26  O   UNL     1     -10.739  16.276  64.763  1.00  0.00    -0.680 OA 
BRANCH  24  27
HETATM   27  C   UNL     1      -9.840  17.476  66.668  1.00  0.00    -0.306 C  
HETATM   28  C   UNL     1      -8.356  17.778  66.775  1.00  0.00    -0.271 C  
HETATM   29  C   UNL     1      -8.355  19.227  67.179  1.00  0.00    -0.305 C  
HETATM   30  C   UNL     1      -9.558  19.778  66.442  1.00  0.00    -0.411 C  
HETATM   31  O   UNL     1     -10.452  18.683  66.188  1.00  0.00    -0.433 OA 
ENDBRANCH  24  27
ENDBRANCH  22  23
ENDBRANCH  21  22
ENDBRANCH  20  21
ENDBRANCH  18  20
ENDBRANCH  14  18
ENDBRANCH   2   3
TORSDOF 8
ENDMDL
MODEL      151
REMARK 921   NORMALIZED FREE ENERGY PREDICTED BY IDOCK:   -4.40 KCAL/MOL
REMARK 922        TOTAL FREE ENERGY PREDICTED BY IDOCK:   -7.99 KCAL/MOL
REMARK 923 INTER-LIGAND FREE ENERGY PREDICTED BY IDOCK:   -7.33 KCAL/MOL
REMARK 924 INTRA-LIGAND FREE ENERGY PREDICTED BY IDOCK:   -0.66 KCAL/MOL
REMARK 927      BINDING AFFINITY PREDICTED BY RF-SCORE:    0.00 PKD
ROOT
HETATM    1  C   UNL     1     -13.774   9.496  71.978  1.00  0.00    -0.359 C  
HETATM    2  O   UNL     1     -12.606  10.315  72.026  1.00  0.00    -0.371 OA 
ENDROOT
BRANCH   2   3
HETATM    3  C   UNL     1     -12.494  11.235  71.016  1.00  0.00    -0.400 A  
HETATM    4  C   UNL     1     -12.103  10.849  69.721  1.00  0.00    -0.409 A  
HETATM    5  C   UNL     1     -11.866  11.763  68.707  1.00  0.00    -0.320 A  
HETATM    6  C   UNL     1     -12.083  13.108  68.968  1.00  0.00    -0.240 A  
HETATM    7  C   UNL     1     -12.591  13.505  70.228  1.00  0.00    -0.221 A  
HETATM    8  C   UNL     1     -11.753  13.962  67.917  1.00  0.00    -0.361 A  
HETATM    9  N   UNL     1     -11.970  15.342  67.995  1.00  0.00    -0.452 NA 
HETATM   10  N   UNL     1     -11.232  13.533  66.760  1.00  0.00    -0.303 NA 
HETATM   11  C   UNL     1     -12.787  12.581  71.261  1.00  0.00    -0.241 A  
HETATM   12  N   UNL     1     -11.412  11.317  67.533  1.00  0.00    -0.500 NA 
HETATM   13  H2  UNL     1     -11.502  15.685  68.834  1.00  0.00     0.000 HD 
HETATM   14  C   UNL     1     -11.076  12.213  66.595  1.00  0.00    -0.306 A  
HETATM   15  H1  UNL     1     -11.728  15.966  67.225  1.00  0.00     0.000 HD 
BRANCH  11  16
HETATM   16  O   UNL     1     -13.238  13.177  72.406  1.00  0.00    -0.483 OA 
HETATM   17  C   UNL     1     -14.006  14.368  72.317  1.00  0.00    -0.513 C  
ENDBRANCH  11  16
BRANCH  14  18
HETATM   18  N   UNL     1     -10.579  11.759  65.397  1.00  0.00    -0.268 NA 
HETATM   19  C   UNL     1     -10.652  12.611  64.231  1.00  0.00    -0.384 C  
BRANCH  18  20
HETATM   20  C   UNL     1      -9.832  10.513  65.337  1.00  0.00    -0.274 C  
BRANCH  20  21
HETATM   21  C   UNL     1      -8.398  10.737  64.839  1.00  0.00    -0.018 C  
BRANCH  21  22
HETATM   22  C   UNL     1      -7.427   9.676  65.357  1.00  0.00    -0.111 C  
BRANCH  22  23
HETATM   23  N   UNL     1      -7.928   8.333  65.152  1.00  0.00    -0.120 N  
HETATM   24  C   UNL     1      -7.334   7.446  64.285  1.00  0.00    -0.090 C  
HETATM   25  H   UNL     1      -8.753   8.033  65.671  1.00  0.00     0.000 HD 
HETATM   26  O   UNL     1      -6.355   7.725  63.600  1.00  0.00    -0.060 OA 
BRANCH  24  27
HETATM   27  C   UNL     1      -8.001   6.064  64.239  1.00  0.00    -0.121 C  
HETATM   28  C   UNL     1      -6.945   4.976  64.220  1.00  0.00    -0.049 C  
HETATM   29  C   UNL     1      -7.714   3.776  64.702  1.00  0.00    -0.081 C  
HETATM   30  C   UNL     1      -8.679   4.380  65.700  1.00  0.00    -0.121 C  
HETATM   31  O   UNL     1      -8.854   5.764  65.355  1.00  0.00    -0.151 OA 
ENDBRANCH  24  27
ENDBRANCH  22  23
ENDBRANCH  21  22
ENDBRANCH  20  21
ENDBRANCH  18  20
ENDBRANCH  14  18
ENDBRANCH   2   3
TORSDOF 8
ENDMDL
MODEL      152
REMARK 921   NORMALIZED FREE ENERGY PREDICTED BY IDOCK:   -4.39 KCAL/MOL
REMARK 922        TOTAL FREE ENERGY PREDICTED BY IDOCK:   -7.98 KCAL/MOL
REMARK 923 INTER-LIGAND FREE ENERGY PREDICTED BY IDOCK:   -6.63 KCAL/MOL
REMARK 924 INTRA-LIGAND FREE ENERGY PREDICTED BY IDOCK:   -1.35 KCAL/MOL
REMARK 927      BINDING AFFINITY PREDICTED BY RF-SCORE:    0.00 PKD
ROOT
HETATM    1  C   UNL     1     -10.502   3.986  64.714  1.00  0.00    -0.177 C  
HETATM    2  O   UNL     1      -9.452   3.895  65.678  1.00  0.00    -0.157 OA 
ENDROOT
BRANCH   2   3
HETATM    3  C   UNL     1      -9.362   4.953  66.546  1.00  0.00    -0.142 A  
HETATM    4  C   UNL     1      -9.786   4.836  67.881  1.00  0.00    -0.191 A  
HETATM    5  C   UNL     1      -9.820   5.911  68.754  1.00  0.00    -0.140 A  
HETATM    6  C   UNL     1      -9.357   7.139  68.304  1.00  0.00    -0.130 A  
HETATM    7  C   UNL     1      -8.815   7.249  67.001  1.00  0.00    -0.130 A  
HETATM    8  C   UNL     1      -9.492   8.180  69.221  1.00  0.00    -0.159 A  
HETATM    9  N   UNL     1      -9.019   9.468  68.947  1.00  0.00    -0.138 NA 
HETATM   10  N   UNL     1     -10.057   8.027  70.425  1.00  0.00    -0.193 NA 
HETATM   11  C   UNL     1      -8.823   6.169  66.111  1.00  0.00    -0.152 A  
HETATM   12  N   UNL     1     -10.321   5.731  69.979  1.00  0.00    -0.235 NA 
HETATM   13  H2  UNL     1      -9.433   9.772  68.065  1.00  0.00     0.000 HD 
HETATM   14  C   UNL     1     -10.457   6.798  70.777  1.00  0.00    -0.214 A  
HETATM   15  H1  UNL     1      -9.117  10.229  69.618  1.00  0.00     0.000 HD 
BRANCH  11  16
HETATM   16  O   UNL     1      -8.295   6.500  64.894  1.00  0.00    -0.126 OA 
HETATM   17  C   UNL     1      -7.753   7.796  64.698  1.00  0.00    -0.121 C  
ENDBRANCH  11  16
BRANCH  14  18
HETATM   18  N   UNL     1     -11.002   6.622  72.026  1.00  0.00    -0.234 NA 
HETATM   19  C   UNL     1     -10.431   5.633  72.915  1.00  0.00    -0.214 C  
BRANCH  18  20
HETATM   20  C   UNL     1     -12.022   7.533  72.518  1.00  0.00    -0.171 C  
BRANCH  20  21
HETATM   21  C   UNL     1     -13.352   7.347  71.775  1.00  0.00    -0.373 C  
BRANCH  21  22
HETATM   22  C   UNL     1     -13.980   8.678  71.359  1.00  0.00    -0.270 C  
BRANCH  22  23
HETATM   23  N   UNL     1     -13.055   9.508  70.616  1.00  0.00    -0.544 N  
HETATM   24  C   UNL     1     -12.823  10.826  70.935  1.00  0.00    -0.351 C  
HETATM   25  H   UNL     1     -12.557   9.101  69.826  1.00  0.00     0.000 HD 
HETATM   26  O   UNL     1     -13.395  11.408  71.851  1.00  0.00    -0.435 OA 
BRANCH  24  27
HETATM   27  C   UNL     1     -11.784  11.519  70.044  1.00  0.00    -0.332 C  
HETATM   28  C   UNL     1     -11.978  11.104  68.597  1.00  0.00    -0.289 C  
HETATM   29  C   UNL     1     -11.293  12.217  67.851  1.00  0.00    -0.361 C  
HETATM   30  C   UNL     1     -11.584  13.424  68.718  1.00  0.00    -0.325 C  
HETATM   31  O   UNL     1     -11.838  12.954  70.051  1.00  0.00    -0.326 OA 
ENDBRANCH  24  27
ENDBRANCH  22  23
ENDBRANCH  21  22
ENDBRANCH  20  21
ENDBRANCH  18  20
ENDBRANCH  14  18
ENDBRANCH   2   3
TORSDOF 8
ENDMDL
MODEL      153
REMARK 921   NORMALIZED FREE ENERGY PREDICTED BY IDOCK:   -4.38 KCAL/MOL
REMARK 922        TOTAL FREE ENERGY PREDICTED BY IDOCK:   -7.97 KCAL/MOL
REMARK 923 INTER-LIGAND FREE ENERGY PREDICTED BY IDOCK:   -7.38 KCAL/MOL
REMARK 924 INTRA-LIGAND FREE ENERGY PREDICTED BY IDOCK:   -0.59 KCAL/MOL
REMARK 927      BINDING AFFINITY PREDICTED BY RF-SCORE:    0.00 PKD
ROOT
HETATM    1  C   UNL     1      -7.516   6.274  66.063  1.00  0.00    -0.082 C  
HETATM    2  O   UNL     1      -8.881   5.981  66.359  1.00  0.00    -0.127 OA 
ENDROOT
BRANCH   2   3
HETATM    3  C   UNL     1      -9.388   6.610  67.467  1.00  0.00    -0.123 A  
HETATM    4  C   UNL     1     -10.066   7.837  67.360  1.00  0.00    -0.288 A  
HETATM    5  C   UNL     1     -10.488   8.559  68.466  1.00  0.00    -0.167 A  
HETATM    6  C   UNL     1     -10.284   8.013  69.725  1.00  0.00    -0.206 A  
HETATM    7  C   UNL     1      -9.711   6.724  69.847  1.00  0.00    -0.164 A  
HETATM    8  C   UNL     1     -10.674   8.834  70.781  1.00  0.00    -0.228 A  
HETATM    9  N   UNL     1     -10.593   8.410  72.112  1.00  0.00    -0.304 NA 
HETATM   10  N   UNL     1     -11.169  10.067  70.607  1.00  0.00    -0.328 NA 
HETATM   11  C   UNL     1      -9.249   6.020  68.729  1.00  0.00    -0.123 A  
HETATM   12  N   UNL     1     -11.045   9.757  68.277  1.00  0.00    -0.161 NA 
HETATM   13  H2  UNL     1      -9.633   8.110  72.287  1.00  0.00     0.000 HD 
HETATM   14  C   UNL     1     -11.345  10.499  69.352  1.00  0.00    -0.269 A  
HETATM   15  H1  UNL     1     -10.879   9.011  72.884  1.00  0.00     0.000 HD 
BRANCH  11  16
HETATM   16  O   UNL     1      -8.691   4.820  69.071  1.00  0.00    -0.087 OA 
HETATM   17  C   UNL     1      -9.492   3.649  69.056  1.00  0.00    -0.156 C  
ENDBRANCH  11  16
BRANCH  14  18
HETATM   18  N   UNL     1     -11.890  11.746  69.161  1.00  0.00    -0.321 NA 
HETATM   19  C   UNL     1     -12.286  12.530  70.310  1.00  0.00    -0.267 C  
BRANCH  18  20
HETATM   20  C   UNL     1     -11.906  12.345  67.837  1.00  0.00    -0.308 C  
BRANCH  20  21
HETATM   21  C   UNL     1     -11.897  13.878  67.909  1.00  0.00    -0.413 C  
BRANCH  21  22
HETATM   22  C   UNL     1     -10.505  14.465  67.678  1.00  0.00    -0.245 C  
BRANCH  22  23
HETATM   23  N   UNL     1     -10.562  15.795  67.107  1.00  0.00    -0.310 N  
HETATM   24  C   UNL     1      -9.872  16.859  67.640  1.00  0.00    -0.259 C  
HETATM   25  H   UNL     1     -11.135  15.948  66.278  1.00  0.00     0.000 HD 
HETATM   26  O   UNL     1      -9.179  16.776  68.650  1.00  0.00    -0.241 OA 
BRANCH  24  27
HETATM   27  C   UNL     1     -10.042  18.173  66.867  1.00  0.00    -0.357 C  
HETATM   28  C   UNL     1     -10.216  19.329  67.835  1.00  0.00    -0.511 C  
HETATM   29  C   UNL     1      -9.838  20.514  66.988  1.00  0.00    -0.534 C  
HETATM   30  C   UNL     1      -8.746  19.952  66.101  1.00  0.00    -0.307 C  
HETATM   31  O   UNL     1      -8.935  18.530  66.024  1.00  0.00    -0.491 OA 
ENDBRANCH  24  27
ENDBRANCH  22  23
ENDBRANCH  21  22
ENDBRANCH  20  21
ENDBRANCH  18  20
ENDBRANCH  14  18
ENDBRANCH   2   3
TORSDOF 8
ENDMDL
MODEL      154
REMARK 921   NORMALIZED FREE ENERGY PREDICTED BY IDOCK:   -4.38 KCAL/MOL
REMARK 922        TOTAL FREE ENERGY PREDICTED BY IDOCK:   -7.96 KCAL/MOL
REMARK 923 INTER-LIGAND FREE ENERGY PREDICTED BY IDOCK:   -7.41 KCAL/MOL
REMARK 924 INTRA-LIGAND FREE ENERGY PREDICTED BY IDOCK:   -0.55 KCAL/MOL
REMARK 927      BINDING AFFINITY PREDICTED BY RF-SCORE:    0.00 PKD
ROOT
HETATM    1  C   UNL     1     -11.122  15.204  70.019  1.00  0.00    -0.275 C  
HETATM    2  O   UNL     1     -12.365  14.520  69.862  1.00  0.00    -0.320 OA 
ENDROOT
BRANCH   2   3
HETATM    3  C   UNL     1     -12.446  13.301  70.486  1.00  0.00    -0.260 A  
HETATM    4  C   UNL     1     -11.695  12.202  70.034  1.00  0.00    -0.330 A  
HETATM    5  C   UNL     1     -11.837  10.929  70.563  1.00  0.00    -0.360 A  
HETATM    6  C   UNL     1     -12.714  10.751  71.623  1.00  0.00    -0.520 A  
HETATM    7  C   UNL     1     -13.390  11.868  72.170  1.00  0.00    -0.361 A  
HETATM    8  C   UNL     1     -12.849   9.430  72.047  1.00  0.00    -0.414 A  
HETATM    9  N   UNL     1     -13.646   9.087  73.144  1.00  0.00    -0.975 NA 
HETATM   10  N   UNL     1     -12.218   8.404  71.460  1.00  0.00    -0.293 NA 
HETATM   11  C   UNL     1     -13.273  13.143  71.603  1.00  0.00    -0.346 A  
HETATM   12  N   UNL     1     -11.150   9.924  70.015  1.00  0.00    -0.268 NA 
HETATM   13  H2  UNL     1     -14.582   9.459  72.979  1.00  0.00     0.000 HD 
HETATM   14  C   UNL     1     -11.377   8.679  70.454  1.00  0.00    -0.187 A  
HETATM   15  H1  UNL     1     -13.744   8.120  73.454  1.00  0.00     0.000 HD 
BRANCH  11  16
HETATM   16  O   UNL     1     -14.041  14.067  72.255  1.00  0.00    -0.500 OA 
HETATM   17  C   UNL     1     -13.411  15.116  72.974  1.00  0.00    -0.452 C  
ENDBRANCH  11  16
BRANCH  14  18
HETATM   18  N   UNL     1     -10.694   7.639  69.871  1.00  0.00    -0.249 NA 
HETATM   19  C   UNL     1     -11.404   6.424  69.537  1.00  0.00    -0.393 C  
BRANCH  18  20
HETATM   20  C   UNL     1      -9.320   7.816  69.434  1.00  0.00    -0.152 C  
BRANCH  20  21
HETATM   21  C   UNL     1      -8.896   6.724  68.443  1.00  0.00    -0.122 C  
BRANCH  21  22
HETATM   22  C   UNL     1      -8.438   7.296  67.102  1.00  0.00    -0.118 C  
BRANCH  22  23
HETATM   23  N   UNL     1      -8.089   6.257  66.156  1.00  0.00    -0.112 N  
HETATM   24  C   UNL     1      -7.616   6.533  64.895  1.00  0.00    -0.097 C  
HETATM   25  H   UNL     1      -8.198   5.283  66.436  1.00  0.00     0.000 HD 
HETATM   26  O   UNL     1      -7.477   7.673  64.461  1.00  0.00    -0.080 OA 
BRANCH  24  27
HETATM   27  C   UNL     1      -7.274   5.290  64.061  1.00  0.00    -0.050 C  
HETATM   28  C   UNL     1      -5.850   4.850  64.342  1.00  0.00    -0.017 C  
HETATM   29  C   UNL     1      -5.868   3.411  63.901  1.00  0.00    -0.014 C  
HETATM   30  C   UNL     1      -7.269   2.969  64.271  1.00  0.00    -0.058 C  
HETATM   31  O   UNL     1      -8.098   4.142  64.318  1.00  0.00    -0.088 OA 
ENDBRANCH  24  27
ENDBRANCH  22  23
ENDBRANCH  21  22
ENDBRANCH  20  21
ENDBRANCH  18  20
ENDBRANCH  14  18
ENDBRANCH   2   3
TORSDOF 8
ENDMDL
MODEL      155
REMARK 921   NORMALIZED FREE ENERGY PREDICTED BY IDOCK:   -4.38 KCAL/MOL
REMARK 922        TOTAL FREE ENERGY PREDICTED BY IDOCK:   -7.96 KCAL/MOL
REMARK 923 INTER-LIGAND FREE ENERGY PREDICTED BY IDOCK:   -7.15 KCAL/MOL
REMARK 924 INTRA-LIGAND FREE ENERGY PREDICTED BY IDOCK:   -0.81 KCAL/MOL
REMARK 927      BINDING AFFINITY PREDICTED BY RF-SCORE:    0.00 PKD
ROOT
HETATM    1  C   UNL     1     -12.701  14.017  65.349  1.00  0.00    -0.471 C  
HETATM    2  O   UNL     1     -11.302  13.739  65.399  1.00  0.00    -0.303 OA 
ENDROOT
BRANCH   2   3
HETATM    3  C   UNL     1     -10.973  12.430  65.638  1.00  0.00    -0.286 A  
HETATM    4  C   UNL     1     -11.284  11.814  66.863  1.00  0.00    -0.387 A  
HETATM    5  C   UNL     1     -10.866  10.533  67.185  1.00  0.00    -0.259 A  
HETATM    6  C   UNL     1     -10.163   9.810  66.231  1.00  0.00    -0.282 A  
HETATM    7  C   UNL     1      -9.944  10.369  64.949  1.00  0.00    -0.409 A  
HETATM    8  C   UNL     1      -9.721   8.561  66.662  1.00  0.00    -0.249 A  
HETATM    9  N   UNL     1      -9.050   7.682  65.804  1.00  0.00    -0.381 NA 
HETATM   10  N   UNL     1      -9.918   8.102  67.905  1.00  0.00    -0.173 NA 
HETATM   11  C   UNL     1     -10.332  11.679  64.646  1.00  0.00    -0.292 A  
HETATM   12  N   UNL     1     -11.130  10.057  68.404  1.00  0.00    -0.218 NA 
HETATM   13  H2  UNL     1      -8.251   8.178  65.411  1.00  0.00     0.000 HD 
HETATM   14  C   UNL     1     -10.624   8.865  68.749  1.00  0.00    -0.157 A  
HETATM   15  H1  UNL     1      -8.727   6.768  66.120  1.00  0.00     0.000 HD 
BRANCH  11  16
HETATM   16  O   UNL     1      -9.987  12.036  63.373  1.00  0.00    -0.417 OA 
HETATM   17  C   UNL     1      -9.374  11.081  62.522  1.00  0.00    -0.259 C  
ENDBRANCH  11  16
BRANCH  14  18
HETATM   18  N   UNL     1     -10.867   8.387  70.014  1.00  0.00    -0.240 NA 
HETATM   19  C   UNL     1     -10.805   9.294  71.139  1.00  0.00    -0.337 C  
BRANCH  18  20
HETATM   20  C   UNL     1     -11.352   7.030  70.205  1.00  0.00    -0.295 C  
BRANCH  20  21
HETATM   21  C   UNL     1     -12.484   6.974  71.241  1.00  0.00    -0.430 C  
BRANCH  21  22
HETATM   22  C   UNL     1     -12.134   6.096  72.442  1.00  0.00    -0.135 C  
BRANCH  22  23
HETATM   23  N   UNL     1     -10.744   5.689  72.434  1.00  0.00    -0.226 N  
HETATM   24  C   UNL     1      -9.862   6.050  73.424  1.00  0.00    -0.165 C  
HETATM   25  H   UNL     1     -10.407   5.113  71.663  1.00  0.00     0.000 HD 
HETATM   26  O   UNL     1     -10.169   6.762  74.375  1.00  0.00    -0.355 OA 
BRANCH  24  27
HETATM   27  C   UNL     1      -8.445   5.488  73.244  1.00  0.00    -0.117 C  
HETATM   28  C   UNL     1      -8.068   4.629  74.437  1.00  0.00    -0.099 C  
HETATM   29  C   UNL     1      -6.960   3.777  73.880  1.00  0.00    -0.051 C  
HETATM   30  C   UNL     1      -7.394   3.568  72.443  1.00  0.00    -0.049 C  
HETATM   31  O   UNL     1      -8.264   4.655  72.088  1.00  0.00    -0.105 OA 
ENDBRANCH  24  27
ENDBRANCH  22  23
ENDBRANCH  21  22
ENDBRANCH  20  21
ENDBRANCH  18  20
ENDBRANCH  14  18
ENDBRANCH   2   3
TORSDOF 8
ENDMDL
MODEL      156
REMARK 921   NORMALIZED FREE ENERGY PREDICTED BY IDOCK:   -4.37 KCAL/MOL
REMARK 922        TOTAL FREE ENERGY PREDICTED BY IDOCK:   -7.95 KCAL/MOL
REMARK 923 INTER-LIGAND FREE ENERGY PREDICTED BY IDOCK:   -7.17 KCAL/MOL
REMARK 924 INTRA-LIGAND FREE ENERGY PREDICTED BY IDOCK:   -0.78 KCAL/MOL
REMARK 927      BINDING AFFINITY PREDICTED BY RF-SCORE:    0.00 PKD
ROOT
HETATM    1  C   UNL     1      -9.972   7.205  68.013  1.00  0.00    -0.158 C  
HETATM    2  O   UNL     1      -9.454   8.029  69.057  1.00  0.00    -0.151 OA 
ENDROOT
BRANCH   2   3
HETATM    3  C   UNL     1     -10.349   8.912  69.605  1.00  0.00    -0.212 A  
HETATM    4  C   UNL     1     -10.518  10.202  69.072  1.00  0.00    -0.239 A  
HETATM    5  C   UNL     1     -11.324  11.159  69.667  1.00  0.00    -0.294 A  
HETATM    6  C   UNL     1     -12.038  10.805  70.803  1.00  0.00    -0.473 A  
HETATM    7  C   UNL     1     -11.974   9.476  71.286  1.00  0.00    -0.445 A  
HETATM    8  C   UNL     1     -12.767  11.845  71.376  1.00  0.00    -0.290 A  
HETATM    9  N   UNL     1     -13.589  11.641  72.490  1.00  0.00    -0.379 NA 
HETATM   10  N   UNL     1     -12.754  13.097  70.901  1.00  0.00    -0.277 NA 
HETATM   11  C   UNL     1     -11.125   8.526  70.704  1.00  0.00    -0.252 A  
HETATM   12  N   UNL     1     -11.359  12.387  69.144  1.00  0.00    -0.264 NA 
HETATM   13  H2  UNL     1     -13.023  11.215  73.223  1.00  0.00     0.000 HD 
HETATM   14  C   UNL     1     -12.048  13.338  69.789  1.00  0.00    -0.290 A  
HETATM   15  H1  UNL     1     -14.122  12.403  72.908  1.00  0.00     0.000 HD 
BRANCH  11  16
HETATM   16  O   UNL     1     -11.181   7.323  71.349  1.00  0.00    -0.242 OA 
HETATM   17  C   UNL     1     -12.436   6.816  71.776  1.00  0.00    -0.349 C  
ENDBRANCH  11  16
BRANCH  14  18
HETATM   18  N   UNL     1     -12.059  14.610  69.270  1.00  0.00    -0.298 NA 
HETATM   19  C   UNL     1     -12.408  15.722  70.127  1.00  0.00    -0.279 C  
BRANCH  18  20
HETATM   20  C   UNL     1     -11.559  14.861  67.929  1.00  0.00    -0.344 C  
BRANCH  20  21
HETATM   21  C   UNL     1     -10.445  15.916  67.928  1.00  0.00    -0.288 C  
BRANCH  21  22
HETATM   22  C   UNL     1      -9.130  15.378  68.494  1.00  0.00    -0.197 C  
BRANCH  22  23
HETATM   23  N   UNL     1      -8.161  16.431  68.715  1.00  0.00    -0.223 N  
HETATM   24  C   UNL     1      -6.864  16.175  69.092  1.00  0.00    -0.196 C  
HETATM   25  H   UNL     1      -8.452  17.400  68.587  1.00  0.00     0.000 HD 
HETATM   26  O   UNL     1      -6.431  15.044  69.295  1.00  0.00    -0.109 OA 
BRANCH  24  27
HETATM   27  C   UNL     1      -5.990  17.427  69.243  1.00  0.00    -0.219 C  
HETATM   28  C   UNL     1      -5.737  18.053  67.884  1.00  0.00    -0.158 C  
HETATM   29  C   UNL     1      -5.365  19.465  68.247  1.00  0.00    -0.193 C  
HETATM   30  C   UNL     1      -6.233  19.735  69.459  1.00  0.00    -0.324 C  
HETATM   31  O   UNL     1      -6.555  18.468  70.055  1.00  0.00    -0.026 OA 
ENDBRANCH  24  27
ENDBRANCH  22  23
ENDBRANCH  21  22
ENDBRANCH  20  21
ENDBRANCH  18  20
ENDBRANCH  14  18
ENDBRANCH   2   3
TORSDOF 8
ENDMDL
MODEL      157
REMARK 921   NORMALIZED FREE ENERGY PREDICTED BY IDOCK:   -4.37 KCAL/MOL
REMARK 922        TOTAL FREE ENERGY PREDICTED BY IDOCK:   -7.94 KCAL/MOL
REMARK 923 INTER-LIGAND FREE ENERGY PREDICTED BY IDOCK:   -7.00 KCAL/MOL
REMARK 924 INTRA-LIGAND FREE ENERGY PREDICTED BY IDOCK:   -0.95 KCAL/MOL
REMARK 927      BINDING AFFINITY PREDICTED BY RF-SCORE:    0.00 PKD
ROOT
HETATM    1  C   UNL     1      -8.925   8.595  65.262  1.00  0.00    -0.098 C  
HETATM    2  O   UNL     1      -9.718   9.029  66.367  1.00  0.00    -0.223 OA 
ENDROOT
BRANCH   2   3
HETATM    3  C   UNL     1      -9.238  10.123  67.039  1.00  0.00    -0.146 A  
HETATM    4  C   UNL     1      -9.475  11.427  66.570  1.00  0.00    -0.218 A  
HETATM    5  C   UNL     1      -8.909  12.548  67.154  1.00  0.00    -0.202 A  
HETATM    6  C   UNL     1      -8.126  12.376  68.287  1.00  0.00    -0.166 A  
HETATM    7  C   UNL     1      -7.974  11.084  68.844  1.00  0.00    -0.138 A  
HETATM    8  C   UNL     1      -7.540  13.546  68.768  1.00  0.00    -0.066 A  
HETATM    9  N   UNL     1      -6.771  13.556  69.937  1.00  0.00    -0.352 NA 
HETATM   10  N   UNL     1      -7.683  14.736  68.171  1.00  0.00    -0.114 NA 
HETATM   11  C   UNL     1      -8.513   9.951  68.224  1.00  0.00    -0.111 A  
HETATM   12  N   UNL     1      -9.115  13.741  66.591  1.00  0.00    -0.219 NA 
HETATM   13  H2  UNL     1      -6.035  12.857  69.833  1.00  0.00     0.000 HD 
HETATM   14  C   UNL     1      -8.474  14.805  67.092  1.00  0.00    -0.223 A  
HETATM   15  H1  UNL     1      -6.343  14.412  70.288  1.00  0.00     0.000 HD 
BRANCH  11  16
HETATM   16  O   UNL     1      -8.212   8.802  68.900  1.00  0.00    -0.115 OA 
HETATM   17  C   UNL     1      -9.260   7.941  69.316  1.00  0.00    -0.148 C  
ENDBRANCH  11  16
BRANCH  14  18
HETATM   18  N   UNL     1      -8.659  16.028  66.495  1.00  0.00    -0.280 NA 
HETATM   19  C   UNL     1      -7.508  16.849  66.189  1.00  0.00    -0.159 C  
BRANCH  18  20
HETATM   20  C   UNL     1      -9.974  16.420  66.017  1.00  0.00    -0.345 C  
BRANCH  20  21
HETATM   21  C   UNL     1     -10.590  17.521  66.891  1.00  0.00    -0.219 C  
BRANCH  21  22
HETATM   22  C   UNL     1     -10.418  17.245  68.385  1.00  0.00    -0.381 C  
BRANCH  22  23
HETATM   23  N   UNL     1     -11.542  16.520  68.939  1.00  0.00    -0.159 N  
HETATM   24  C   UNL     1     -11.392  15.526  69.878  1.00  0.00    -0.314 C  
HETATM   25  H   UNL     1     -12.482  16.755  68.620  1.00  0.00     0.000 HD 
HETATM   26  O   UNL     1     -10.300  15.158  70.300  1.00  0.00    -0.199 OA 
BRANCH  24  27
HETATM   27  C   UNL     1     -12.710  14.906  70.358  1.00  0.00    -0.321 C  
HETATM   28  C   UNL     1     -12.430  13.692  71.225  1.00  0.00    -0.412 C  
HETATM   29  C   UNL     1     -13.710  13.553  72.003  1.00  0.00    -0.568 C  
HETATM   30  C   UNL     1     -14.136  14.993  72.199  1.00  0.00    -0.529 C  
HETATM   31  O   UNL     1     -13.536  15.772  71.152  1.00  0.00    -0.576 OA 
ENDBRANCH  24  27
ENDBRANCH  22  23
ENDBRANCH  21  22
ENDBRANCH  20  21
ENDBRANCH  18  20
ENDBRANCH  14  18
ENDBRANCH   2   3
TORSDOF 8
ENDMDL
MODEL      158
REMARK 921   NORMALIZED FREE ENERGY PREDICTED BY IDOCK:   -4.36 KCAL/MOL
REMARK 922        TOTAL FREE ENERGY PREDICTED BY IDOCK:   -7.93 KCAL/MOL
REMARK 923 INTER-LIGAND FREE ENERGY PREDICTED BY IDOCK:   -6.92 KCAL/MOL
REMARK 924 INTRA-LIGAND FREE ENERGY PREDICTED BY IDOCK:   -1.02 KCAL/MOL
REMARK 927      BINDING AFFINITY PREDICTED BY RF-SCORE:    0.00 PKD
ROOT
HETATM    1  C   UNL     1      -7.242  17.140  66.220  1.00  0.00    -0.273 C  
HETATM    2  O   UNL     1      -8.505  16.606  65.823  1.00  0.00    -0.433 OA 
ENDROOT
BRANCH   2   3
HETATM    3  C   UNL     1      -9.352  16.281  66.851  1.00  0.00    -0.224 A  
HETATM    4  C   UNL     1      -9.464  14.957  67.310  1.00  0.00    -0.216 A  
HETATM    5  C   UNL     1     -10.392  14.571  68.264  1.00  0.00    -0.236 A  
HETATM    6  C   UNL     1     -11.200  15.547  68.829  1.00  0.00    -0.316 A  
HETATM    7  C   UNL     1     -11.020  16.903  68.466  1.00  0.00    -0.290 A  
HETATM    8  C   UNL     1     -12.151  15.062  69.726  1.00  0.00    -0.314 A  
HETATM    9  N   UNL     1     -13.004  15.921  70.429  1.00  0.00    -0.710 NA 
HETATM   10  N   UNL     1     -12.307  13.760  69.996  1.00  0.00    -0.324 NA 
HETATM   11  C   UNL     1     -10.110  17.280  67.472  1.00  0.00    -0.315 A  
HETATM   12  N   UNL     1     -10.492  13.277  68.578  1.00  0.00    -0.251 NA 
HETATM   13  H2  UNL     1     -13.486  16.508  69.749  1.00  0.00     0.000 HD 
HETATM   14  C   UNL     1     -11.466  12.895  69.414  1.00  0.00    -0.260 A  
HETATM   15  H1  UNL     1     -13.699  15.566  71.085  1.00  0.00     0.000 HD 
BRANCH  11  16
HETATM   16  O   UNL     1     -10.126  18.628  67.244  1.00  0.00    -0.321 OA 
HETATM   17  C   UNL     1     -10.667  19.125  66.031  1.00  0.00    -0.364 C  
ENDBRANCH  11  16
BRANCH  14  18
HETATM   18  N   UNL     1     -11.591  11.560  69.715  1.00  0.00    -0.314 NA 
HETATM   19  C   UNL     1     -12.855  11.060  70.208  1.00  0.00    -0.110 C  
BRANCH  18  20
HETATM   20  C   UNL     1     -10.527  10.629  69.378  1.00  0.00    -0.225 C  
BRANCH  20  21
HETATM   21  C   UNL     1     -10.408   9.505  70.417  1.00  0.00    -0.334 C  
BRANCH  21  22
HETATM   22  C   UNL     1      -8.956   9.111  70.688  1.00  0.00    -0.244 C  
BRANCH  22  23
HETATM   23  N   UNL     1      -8.020  10.068  70.136  1.00  0.00    -0.288 N  
HETATM   24  C   UNL     1      -6.968   9.695  69.334  1.00  0.00    -0.056 C  
HETATM   25  H   UNL     1      -8.145  11.057  70.351  1.00  0.00     0.000 HD 
HETATM   26  O   UNL     1      -6.722   8.528  69.043  1.00  0.00    -0.050 OA 
BRANCH  24  27
HETATM   27  C   UNL     1      -6.113  10.864  68.827  1.00  0.00    -0.039 C  
HETATM   28  C   UNL     1      -6.577  11.289  67.446  1.00  0.00    -0.081 C  
HETATM   29  C   UNL     1      -6.041  12.692  67.348  1.00  0.00    -0.142 C  
HETATM   30  C   UNL     1      -6.161  13.193  68.772  1.00  0.00    -0.079 C  
HETATM   31  O   UNL     1      -6.160  12.048  69.639  1.00  0.00    -0.103 OA 
ENDBRANCH  24  27
ENDBRANCH  22  23
ENDBRANCH  21  22
ENDBRANCH  20  21
ENDBRANCH  18  20
ENDBRANCH  14  18
ENDBRANCH   2   3
TORSDOF 8
ENDMDL
MODEL      159
REMARK 921   NORMALIZED FREE ENERGY PREDICTED BY IDOCK:   -4.35 KCAL/MOL
REMARK 922        TOTAL FREE ENERGY PREDICTED BY IDOCK:   -7.92 KCAL/MOL
REMARK 923 INTER-LIGAND FREE ENERGY PREDICTED BY IDOCK:   -6.19 KCAL/MOL
REMARK 924 INTRA-LIGAND FREE ENERGY PREDICTED BY IDOCK:   -1.73 KCAL/MOL
REMARK 927      BINDING AFFINITY PREDICTED BY RF-SCORE:    0.00 PKD
ROOT
HETATM    1  C   UNL     1     -10.701  11.758  63.509  1.00  0.00    -0.436 C  
HETATM    2  O   UNL     1     -11.245  11.213  64.711  1.00  0.00    -0.146 OA 
ENDROOT
BRANCH   2   3
HETATM    3  C   UNL     1     -10.344  11.022  65.727  1.00  0.00    -0.257 A  
HETATM    4  C   UNL     1      -9.777   9.758  65.967  1.00  0.00    -0.319 A  
HETATM    5  C   UNL     1      -8.956   9.499  67.053  1.00  0.00    -0.134 A  
HETATM    6  C   UNL     1      -8.635  10.550  67.901  1.00  0.00    -0.123 A  
HETATM    7  C   UNL     1      -9.099  11.855  67.607  1.00  0.00    -0.179 A  
HETATM    8  C   UNL     1      -7.863  10.189  69.004  1.00  0.00    -0.107 A  
HETATM    9  N   UNL     1      -7.402  11.138  69.922  1.00  0.00    -0.379 NA 
HETATM   10  N   UNL     1      -7.491   8.927  69.255  1.00  0.00    -0.073 NA 
HETATM   11  C   UNL     1      -9.962  12.100  66.533  1.00  0.00    -0.213 A  
HETATM   12  N   UNL     1      -8.532   8.250  67.256  1.00  0.00    -0.123 NA 
HETATM   13  H2  UNL     1      -8.209  11.661  70.263  1.00  0.00     0.000 HD 
HETATM   14  C   UNL     1      -7.834   7.984  68.369  1.00  0.00    -0.122 A  
HETATM   15  H1  UNL     1      -6.838  10.873  70.729  1.00  0.00     0.000 HD 
BRANCH  11  16
HETATM   16  O   UNL     1     -10.326  13.415  66.455  1.00  0.00    -0.277 OA 
HETATM   17  C   UNL     1     -11.534  13.843  67.063  1.00  0.00    -0.346 C  
ENDBRANCH  11  16
BRANCH  14  18
HETATM   18  N   UNL     1      -7.423   6.693  68.597  1.00  0.00    -0.087 NA 
HETATM   19  C   UNL     1      -6.769   6.367  69.845  1.00  0.00    -0.053 C  
BRANCH  18  20
HETATM   20  C   UNL     1      -7.795   5.631  67.677  1.00  0.00    -0.097 C  
BRANCH  20  21
HETATM   21  C   UNL     1      -8.130   4.330  68.419  1.00  0.00    -0.081 C  
BRANCH  21  22
HETATM   22  C   UNL     1      -9.628   4.173  68.677  1.00  0.00    -0.130 C  
BRANCH  22  23
HETATM   23  N   UNL     1     -10.127   5.162  69.610  1.00  0.00    -0.242 N  
HETATM   24  C   UNL     1     -10.991   6.164  69.235  1.00  0.00    -0.381 C  
HETATM   25  H   UNL     1      -9.826   5.113  70.583  1.00  0.00     0.000 HD 
HETATM   26  O   UNL     1     -11.386   6.317  68.083  1.00  0.00    -0.278 OA 
BRANCH  24  27
HETATM   27  C   UNL     1     -11.424   7.087  70.382  1.00  0.00    -0.310 C  
HETATM   28  C   UNL     1     -10.926   6.542  71.707  1.00  0.00    -0.287 C  
HETATM   29  C   UNL     1     -10.956   7.763  72.586  1.00  0.00    -0.422 C  
HETATM   30  C   UNL     1     -10.588   8.873  71.623  1.00  0.00    -0.352 C  
HETATM   31  O   UNL     1     -10.928   8.432  70.299  1.00  0.00    -0.240 OA 
ENDBRANCH  24  27
ENDBRANCH  22  23
ENDBRANCH  21  22
ENDBRANCH  20  21
ENDBRANCH  18  20
ENDBRANCH  14  18
ENDBRANCH   2   3
TORSDOF 8
ENDMDL
MODEL      160
REMARK 921   NORMALIZED FREE ENERGY PREDICTED BY IDOCK:   -4.34 KCAL/MOL
REMARK 922        TOTAL FREE ENERGY PREDICTED BY IDOCK:   -7.91 KCAL/MOL
REMARK 923 INTER-LIGAND FREE ENERGY PREDICTED BY IDOCK:   -6.62 KCAL/MOL
REMARK 924 INTRA-LIGAND FREE ENERGY PREDICTED BY IDOCK:   -1.29 KCAL/MOL
REMARK 927      BINDING AFFINITY PREDICTED BY RF-SCORE:    0.00 PKD
ROOT
HETATM    1  C   UNL     1      -7.809  12.969  68.375  1.00  0.00    -0.134 C  
HETATM    2  O   UNL     1      -9.165  12.728  67.998  1.00  0.00    -0.196 OA 
ENDROOT
BRANCH   2   3
HETATM    3  C   UNL     1      -9.534  11.409  67.950  1.00  0.00    -0.174 A  
HETATM    4  C   UNL     1      -8.779  10.418  68.603  1.00  0.00    -0.138 A  
HETATM    5  C   UNL     1      -9.052   9.065  68.480  1.00  0.00    -0.133 A  
HETATM    6  C   UNL     1     -10.155   8.682  67.730  1.00  0.00    -0.266 A  
HETATM    7  C   UNL     1     -10.996   9.670  67.164  1.00  0.00    -0.066 A  
HETATM    8  C   UNL     1     -10.316   7.303  67.601  1.00  0.00    -0.227 A  
HETATM    9  N   UNL     1     -11.411   6.750  66.928  1.00  0.00    -0.792 NA 
HETATM   10  N   UNL     1      -9.460   6.414  68.121  1.00  0.00    -0.115 NA 
HETATM   11  C   UNL     1     -10.690  11.032  67.257  1.00  0.00    -0.265 A  
HETATM   12  N   UNL     1      -8.231   8.187  69.061  1.00  0.00    -0.125 NA 
HETATM   13  H2  UNL     1     -11.441   7.158  65.993  1.00  0.00     0.000 HD 
HETATM   14  C   UNL     1      -8.434   6.881  68.844  1.00  0.00    -0.125 A  
HETATM   15  H1  UNL     1     -11.528   5.742  66.834  1.00  0.00     0.000 HD 
BRANCH  11  16
HETATM   16  O   UNL     1     -11.605  11.811  66.605  1.00  0.00    -0.490 OA 
HETATM   17  C   UNL     1     -11.345  12.228  65.275  1.00  0.00    -0.338 C  
ENDBRANCH  11  16
BRANCH  14  18
HETATM   18  N   UNL     1      -7.572   5.976  69.416  1.00  0.00    -0.095 NA 
HETATM   19  C   UNL     1      -6.287   6.429  69.900  1.00  0.00    -0.039 C  
BRANCH  18  20
HETATM   20  C   UNL     1      -8.011   4.618  69.691  1.00  0.00    -0.065 C  
BRANCH  20  21
HETATM   21  C   UNL     1      -9.132   4.587  70.739  1.00  0.00    -0.182 C  
BRANCH  21  22
HETATM   22  C   UNL     1      -8.813   5.446  71.962  1.00  0.00    -0.134 C  
BRANCH  22  23
HETATM   23  N   UNL     1      -9.599   6.662  71.994  1.00  0.00    -0.150 N  
HETATM   24  C   UNL     1     -10.837   6.727  72.587  1.00  0.00    -0.250 C  
HETATM   25  H   UNL     1      -9.219   7.503  71.559  1.00  0.00     0.000 HD 
HETATM   26  O   UNL     1     -11.386   5.762  73.111  1.00  0.00    -0.246 OA 
BRANCH  24  27
HETATM   27  C   UNL     1     -11.489   8.116  72.540  1.00  0.00    -0.404 C  
HETATM   28  C   UNL     1     -10.725   9.018  71.589  1.00  0.00    -0.441 C  
HETATM   29  C   UNL     1     -11.746  10.075  71.264  1.00  0.00    -0.452 C  
HETATM   30  C   UNL     1     -13.044   9.295  71.266  1.00  0.00    -0.265 C  
HETATM   31  O   UNL     1     -12.852   8.132  72.087  1.00  0.00    -0.320 OA 
ENDBRANCH  24  27
ENDBRANCH  22  23
ENDBRANCH  21  22
ENDBRANCH  20  21
ENDBRANCH  18  20
ENDBRANCH  14  18
ENDBRANCH   2   3
TORSDOF 8
ENDMDL
MODEL      161
REMARK 921   NORMALIZED FREE ENERGY PREDICTED BY IDOCK:   -4.34 KCAL/MOL
REMARK 922        TOTAL FREE ENERGY PREDICTED BY IDOCK:   -7.91 KCAL/MOL
REMARK 923 INTER-LIGAND FREE ENERGY PREDICTED BY IDOCK:   -7.04 KCAL/MOL
REMARK 924 INTRA-LIGAND FREE ENERGY PREDICTED BY IDOCK:   -0.87 KCAL/MOL
REMARK 927      BINDING AFFINITY PREDICTED BY RF-SCORE:    0.00 PKD
ROOT
HETATM    1  C   UNL     1     -10.225  19.009  67.478  1.00  0.00    -0.394 C  
HETATM    2  O   UNL     1      -9.339  18.489  68.469  1.00  0.00    -0.319 OA 
ENDROOT
BRANCH   2   3
HETATM    3  C   UNL     1      -8.712  17.316  68.136  1.00  0.00    -0.243 A  
HETATM    4  C   UNL     1      -9.439  16.123  67.973  1.00  0.00    -0.211 A  
HETATM    5  C   UNL     1      -8.829  14.898  67.753  1.00  0.00    -0.173 A  
HETATM    6  C   UNL     1      -7.448  14.863  67.630  1.00  0.00    -0.205 A  
HETATM    7  C   UNL     1      -6.709  16.070  67.672  1.00  0.00    -0.188 A  
HETATM    8  C   UNL     1      -6.913  13.585  67.481  1.00  0.00    -0.145 A  
HETATM    9  N   UNL     1      -5.543  13.379  67.282  1.00  0.00    -0.326 NA 
HETATM   10  N   UNL     1      -7.658  12.472  67.494  1.00  0.00    -0.145 NA 
HETATM   11  C   UNL     1      -7.327  17.298  67.937  1.00  0.00    -0.184 A  
HETATM   12  N   UNL     1      -9.589  13.802  67.698  1.00  0.00    -0.214 NA 
HETATM   13  H2  UNL     1      -5.044  13.840  68.044  1.00  0.00     0.000 HD 
HETATM   14  C   UNL     1      -8.986  12.610  67.600  1.00  0.00    -0.186 A  
HETATM   15  H1  UNL     1      -5.152  12.444  67.173  1.00  0.00     0.000 HD 
BRANCH  11  16
HETATM   16  O   UNL     1      -6.429  18.327  67.979  1.00  0.00    -0.188 OA 
HETATM   17  C   UNL     1      -6.098  19.014  66.783  1.00  0.00    -0.169 C  
ENDBRANCH  11  16
BRANCH  14  18
HETATM   18  N   UNL     1      -9.764  11.477  67.575  1.00  0.00    -0.178 NA 
HETATM   19  C   UNL     1     -11.204  11.605  67.622  1.00  0.00    -0.281 C  
BRANCH  18  20
HETATM   20  C   UNL     1      -9.161  10.179  67.326  1.00  0.00    -0.138 C  
BRANCH  20  21
HETATM   21  C   UNL     1     -10.153   9.212  66.663  1.00  0.00    -0.343 C  
BRANCH  21  22
HETATM   22  C   UNL     1     -10.151   7.832  67.321  1.00  0.00    -0.238 C  
BRANCH  22  23
HETATM   23  N   UNL     1     -10.811   7.842  68.610  1.00  0.00    -0.413 N  
HETATM   24  C   UNL     1     -10.121   7.741  69.795  1.00  0.00    -0.194 C  
HETATM   25  H   UNL     1     -11.827   7.927  68.640  1.00  0.00     0.000 HD 
HETATM   26  O   UNL     1      -8.902   7.608  69.856  1.00  0.00    -0.142 OA 
BRANCH  24  27
HETATM   27  C   UNL     1     -11.004   7.803  71.049  1.00  0.00    -0.244 C  
HETATM   28  C   UNL     1     -11.548   9.208  71.234  1.00  0.00    -0.401 C  
HETATM   29  C   UNL     1     -12.743   8.974  72.117  1.00  0.00    -0.470 C  
HETATM   30  C   UNL     1     -13.253   7.631  71.635  1.00  0.00    -0.352 C  
HETATM   31  O   UNL     1     -12.151   6.939  71.028  1.00  0.00    -0.354 OA 
ENDBRANCH  24  27
ENDBRANCH  22  23
ENDBRANCH  21  22
ENDBRANCH  20  21
ENDBRANCH  18  20
ENDBRANCH  14  18
ENDBRANCH   2   3
TORSDOF 8
ENDMDL
MODEL      162
REMARK 921   NORMALIZED FREE ENERGY PREDICTED BY IDOCK:   -4.33 KCAL/MOL
REMARK 922        TOTAL FREE ENERGY PREDICTED BY IDOCK:   -7.89 KCAL/MOL
REMARK 923 INTER-LIGAND FREE ENERGY PREDICTED BY IDOCK:   -7.08 KCAL/MOL
REMARK 924 INTRA-LIGAND FREE ENERGY PREDICTED BY IDOCK:   -0.82 KCAL/MOL
REMARK 927      BINDING AFFINITY PREDICTED BY RF-SCORE:    0.00 PKD
ROOT
HETATM    1  C   UNL     1      -8.530   9.440  69.783  1.00  0.00    -0.165 C  
HETATM    2  O   UNL     1      -9.745   9.244  69.060  1.00  0.00    -0.157 OA 
ENDROOT
BRANCH   2   3
HETATM    3  C   UNL     1      -9.825   9.900  67.859  1.00  0.00    -0.143 A  
HETATM    4  C   UNL     1      -9.963  11.298  67.802  1.00  0.00    -0.193 A  
HETATM    5  C   UNL     1     -10.164  11.983  66.615  1.00  0.00    -0.204 A  
HETATM    6  C   UNL     1     -10.168  11.261  65.430  1.00  0.00    -0.323 A  
HETATM    7  C   UNL     1      -9.912   9.869  65.457  1.00  0.00    -0.363 A  
HETATM    8  C   UNL     1     -10.446  12.016  64.293  1.00  0.00    -0.328 A  
HETATM    9  N   UNL     1     -10.428  11.453  63.012  1.00  0.00    -0.680 NA 
HETATM   10  N   UNL     1     -10.727  13.325  64.333  1.00  0.00    -0.403 NA 
HETATM   11  C   UNL     1      -9.752   9.177  66.663  1.00  0.00    -0.223 A  
HETATM   12  N   UNL     1     -10.374  13.301  66.660  1.00  0.00    -0.270 NA 
HETATM   13  H2  UNL     1     -11.057  10.649  63.016  1.00  0.00     0.000 HD 
HETATM   14  C   UNL     1     -10.681  13.939  65.523  1.00  0.00    -0.302 A  
HETATM   15  H1  UNL     1     -10.632  12.006  62.180  1.00  0.00     0.000 HD 
BRANCH  11  16
HETATM   16  O   UNL     1      -9.560   7.838  66.467  1.00  0.00    -0.202 OA 
HETATM   17  C   UNL     1     -10.485   6.913  67.015  1.00  0.00    -0.304 C  
ENDBRANCH  11  16
BRANCH  14  18
HETATM   18  N   UNL     1     -10.929  15.290  65.570  1.00  0.00    -0.350 NA 
HETATM   19  C   UNL     1     -11.507  15.946  64.419  1.00  0.00    -0.264 C  
BRANCH  18  20
HETATM   20  C   UNL     1     -10.777  16.020  66.818  1.00  0.00    -0.259 C  
BRANCH  20  21
HETATM   21  C   UNL     1      -9.972  17.312  66.624  1.00  0.00    -0.296 C  
BRANCH  21  22
HETATM   22  C   UNL     1      -9.109  17.651  67.839  1.00  0.00    -0.260 C  
BRANCH  22  23
HETATM   23  N   UNL     1      -7.979  16.755  67.973  1.00  0.00    -0.174 N  
HETATM   24  C   UNL     1      -6.840  17.099  68.660  1.00  0.00    -0.197 C  
HETATM   25  H   UNL     1      -8.032  15.833  67.541  1.00  0.00     0.000 HD 
HETATM   26  O   UNL     1      -6.676  18.194  69.190  1.00  0.00    -0.255 OA 
BRANCH  24  27
HETATM   27  C   UNL     1      -5.774  15.996  68.711  1.00  0.00    -0.108 C  
HETATM   28  C   UNL     1      -6.051  15.057  69.870  1.00  0.00    -0.143 C  
HETATM   29  C   UNL     1      -5.297  13.819  69.466  1.00  0.00    -0.085 C  
HETATM   30  C   UNL     1      -5.454  13.813  67.959  1.00  0.00    -0.115 C  
HETATM   31  O   UNL     1      -5.704  15.165  67.541  1.00  0.00    -0.316 OA 
ENDBRANCH  24  27
ENDBRANCH  22  23
ENDBRANCH  21  22
ENDBRANCH  20  21
ENDBRANCH  18  20
ENDBRANCH  14  18
ENDBRANCH   2   3
TORSDOF 8
ENDMDL
MODEL      163
REMARK 921   NORMALIZED FREE ENERGY PREDICTED BY IDOCK:   -4.32 KCAL/MOL
REMARK 922        TOTAL FREE ENERGY PREDICTED BY IDOCK:   -7.88 KCAL/MOL
REMARK 923 INTER-LIGAND FREE ENERGY PREDICTED BY IDOCK:   -7.18 KCAL/MOL
REMARK 924 INTRA-LIGAND FREE ENERGY PREDICTED BY IDOCK:   -0.70 KCAL/MOL
REMARK 927      BINDING AFFINITY PREDICTED BY RF-SCORE:    0.00 PKD
ROOT
HETATM    1  C   UNL     1      -8.953   8.099  73.654  1.00  0.00    -0.205 C  
HETATM    2  O   UNL     1      -8.513   7.063  72.776  1.00  0.00    -0.114 OA 
ENDROOT
BRANCH   2   3
HETATM    3  C   UNL     1      -8.978   7.150  71.489  1.00  0.00    -0.134 A  
HETATM    4  C   UNL     1      -8.788   8.315  70.724  1.00  0.00    -0.162 A  
HETATM    5  C   UNL     1      -9.344   8.485  69.466  1.00  0.00    -0.161 A  
HETATM    6  C   UNL     1     -10.066   7.434  68.919  1.00  0.00    -0.188 A  
HETATM    7  C   UNL     1     -10.168   6.211  69.623  1.00  0.00    -0.255 A  
HETATM    8  C   UNL     1     -10.648   7.714  67.684  1.00  0.00    -0.224 A  
HETATM    9  N   UNL     1     -11.358   6.744  66.968  1.00  0.00    -0.778 NA 
HETATM   10  N   UNL     1     -10.556   8.909  67.084  1.00  0.00    -0.274 NA 
HETATM   11  C   UNL     1      -9.641   6.062  70.911  1.00  0.00    -0.169 A  
HETATM   12  N   UNL     1      -9.187   9.656  68.846  1.00  0.00    -0.143 NA 
HETATM   13  H2  UNL     1     -12.086   6.375  67.580  1.00  0.00     0.000 HD 
HETATM   14  C   UNL     1      -9.821   9.855  67.683  1.00  0.00    -0.163 A  
HETATM   15  H1  UNL     1     -11.783   6.950  66.064  1.00  0.00     0.000 HD 
BRANCH  11  16
HETATM   16  O   UNL     1      -9.888   4.820  71.428  1.00  0.00    -0.169 OA 
HETATM   17  C   UNL     1     -10.839   4.675  72.470  1.00  0.00    -0.107 C  
ENDBRANCH  11  16
BRANCH  14  18
HETATM   18  N   UNL     1      -9.687  11.071  67.058  1.00  0.00    -0.180 NA 
HETATM   19  C   UNL     1      -9.394  11.111  65.642  1.00  0.00    -0.219 C  
BRANCH  18  20
HETATM   20  C   UNL     1     -10.008  12.299  67.765  1.00  0.00    -0.200 C  
BRANCH  20  21
HETATM   21  C   UNL     1     -11.525  12.506  67.881  1.00  0.00    -0.369 C  
BRANCH  21  22
HETATM   22  C   UNL     1     -11.885  13.738  68.712  1.00  0.00    -0.363 C  
BRANCH  22  23
HETATM   23  N   UNL     1     -11.236  14.935  68.219  1.00  0.00    -0.280 N  
HETATM   24  C   UNL     1     -10.718  15.894  69.058  1.00  0.00    -0.251 C  
HETATM   25  H   UNL     1     -11.160  15.073  67.212  1.00  0.00     0.000 HD 
HETATM   26  O   UNL     1     -10.786  15.828  70.282  1.00  0.00    -0.311 OA 
BRANCH  24  27
HETATM   27  C   UNL     1     -10.044  17.069  68.336  1.00  0.00    -0.302 C  
HETATM   28  C   UNL     1     -10.408  17.053  66.863  1.00  0.00    -0.303 C  
HETATM   29  C   UNL     1     -10.139  18.476  66.453  1.00  0.00    -0.430 C  
HETATM   30  C   UNL     1     -10.524  19.256  67.692  1.00  0.00    -0.453 C  
HETATM   31  O   UNL     1     -10.413  18.371  68.818  1.00  0.00    -0.270 OA 
ENDBRANCH  24  27
ENDBRANCH  22  23
ENDBRANCH  21  22
ENDBRANCH  20  21
ENDBRANCH  18  20
ENDBRANCH  14  18
ENDBRANCH   2   3
TORSDOF 8
ENDMDL
MODEL      164
REMARK 921   NORMALIZED FREE ENERGY PREDICTED BY IDOCK:   -4.32 KCAL/MOL
REMARK 922        TOTAL FREE ENERGY PREDICTED BY IDOCK:   -7.87 KCAL/MOL
REMARK 923 INTER-LIGAND FREE ENERGY PREDICTED BY IDOCK:   -6.76 KCAL/MOL
REMARK 924 INTRA-LIGAND FREE ENERGY PREDICTED BY IDOCK:   -1.11 KCAL/MOL
REMARK 927      BINDING AFFINITY PREDICTED BY RF-SCORE:    0.00 PKD
ROOT
HETATM    1  C   UNL     1     -12.776  13.889  65.774  1.00  0.00    -0.461 C  
HETATM    2  O   UNL     1     -11.420  13.574  66.091  1.00  0.00    -0.311 OA 
ENDROOT
BRANCH   2   3
HETATM    3  C   UNL     1     -11.206  12.299  66.547  1.00  0.00    -0.324 A  
HETATM    4  C   UNL     1     -11.714  11.876  67.788  1.00  0.00    -0.362 A  
HETATM    5  C   UNL     1     -11.421  10.637  68.335  1.00  0.00    -0.259 A  
HETATM    6  C   UNL     1     -10.643   9.758  67.594  1.00  0.00    -0.333 A  
HETATM    7  C   UNL     1     -10.222  10.120  66.292  1.00  0.00    -0.288 A  
HETATM    8  C   UNL     1     -10.339   8.564  68.246  1.00  0.00    -0.201 A  
HETATM    9  N   UNL     1      -9.616   7.546  67.616  1.00  0.00    -0.140 NA 
HETATM   10  N   UNL     1     -10.727   8.295  69.499  1.00  0.00    -0.210 NA 
HETATM   11  C   UNL     1     -10.486  11.390  65.764  1.00  0.00    -0.262 A  
HETATM   12  N   UNL     1     -11.872  10.350  69.558  1.00  0.00    -0.193 NA 
HETATM   13  H2  UNL     1      -8.742   7.947  67.275  1.00  0.00     0.000 HD 
HETATM   14  C   UNL     1     -11.490   9.199  70.127  1.00  0.00    -0.087 A  
HETATM   15  H1  UNL     1      -9.393   6.673  68.094  1.00  0.00     0.000 HD 
BRANCH  11  16
HETATM   16  O   UNL     1      -9.954  11.548  64.515  1.00  0.00    -0.242 OA 
HETATM   17  C   UNL     1     -10.817  11.592  63.389  1.00  0.00    -0.379 C  
ENDBRANCH  11  16
BRANCH  14  18
HETATM   18  N   UNL     1     -11.927   8.915  71.398  1.00  0.00    -0.295 NA 
HETATM   19  C   UNL     1     -12.811   9.843  72.068  1.00  0.00    -0.395 C  
BRANCH  18  20
HETATM   20  C   UNL     1     -11.650   7.620  71.997  1.00  0.00    -0.291 C  
BRANCH  20  21
HETATM   21  C   UNL     1     -10.573   7.718  73.085  1.00  0.00    -0.415 C  
BRANCH  21  22
HETATM   22  C   UNL     1      -9.811   6.406  73.274  1.00  0.00    -0.170 C  
BRANCH  22  23
HETATM   23  N   UNL     1      -9.368   5.847  72.013  1.00  0.00    -0.150 N  
HETATM   24  C   UNL     1      -9.363   4.495  71.765  1.00  0.00    -0.142 C  
HETATM   25  H   UNL     1      -9.048   6.481  71.282  1.00  0.00     0.000 HD 
HETATM   26  O   UNL     1      -9.705   3.656  72.593  1.00  0.00    -0.128 OA 
BRANCH  24  27
HETATM   27  C   UNL     1      -8.888   4.112  70.357  1.00  0.00    -0.085 C  
HETATM   28  C   UNL     1      -9.359   2.712  70.011  1.00  0.00    -0.192 C  
HETATM   29  C   UNL     1      -9.289   2.714  68.507  1.00  0.00    -0.251 C  
HETATM   30  C   UNL     1      -9.668   4.140  68.161  1.00  0.00    -0.088 C  
HETATM   31  O   UNL     1      -9.369   4.960  69.302  1.00  0.00    -0.109 OA 
ENDBRANCH  24  27
ENDBRANCH  22  23
ENDBRANCH  21  22
ENDBRANCH  20  21
ENDBRANCH  18  20
ENDBRANCH  14  18
ENDBRANCH   2   3
TORSDOF 8
ENDMDL
MODEL      165
REMARK 921   NORMALIZED FREE ENERGY PREDICTED BY IDOCK:   -4.31 KCAL/MOL
REMARK 922        TOTAL FREE ENERGY PREDICTED BY IDOCK:   -7.86 KCAL/MOL
REMARK 923 INTER-LIGAND FREE ENERGY PREDICTED BY IDOCK:   -7.41 KCAL/MOL
REMARK 924 INTRA-LIGAND FREE ENERGY PREDICTED BY IDOCK:   -0.45 KCAL/MOL
REMARK 927      BINDING AFFINITY PREDICTED BY RF-SCORE:    0.00 PKD
ROOT
HETATM    1  C   UNL     1     -13.412  12.117  72.279  1.00  0.00    -0.193 C  
HETATM    2  O   UNL     1     -13.174  13.488  72.599  1.00  0.00    -0.491 OA 
ENDROOT
BRANCH   2   3
HETATM    3  C   UNL     1     -12.579  14.226  71.608  1.00  0.00    -0.351 A  
HETATM    4  C   UNL     1     -12.798  13.931  70.251  1.00  0.00    -0.132 A  
HETATM    5  C   UNL     1     -12.125  14.576  69.226  1.00  0.00    -0.290 A  
HETATM    6  C   UNL     1     -11.245  15.597  69.557  1.00  0.00    -0.313 A  
HETATM    7  C   UNL     1     -11.102  15.989  70.910  1.00  0.00    -0.288 A  
HETATM    8  C   UNL     1     -10.560  16.144  68.473  1.00  0.00    -0.284 A  
HETATM    9  N   UNL     1      -9.682  17.222  68.626  1.00  0.00    -0.289 NA 
HETATM   10  N   UNL     1     -10.702  15.700  67.217  1.00  0.00    -0.304 NA 
HETATM   11  C   UNL     1     -11.752  15.304  71.943  1.00  0.00    -0.433 A  
HETATM   12  N   UNL     1     -12.327  14.173  67.970  1.00  0.00    -0.129 NA 
HETATM   13  H2  UNL     1      -8.994  16.967  69.335  1.00  0.00     0.000 HD 
HETATM   14  C   UNL     1     -11.589  14.722  66.995  1.00  0.00    -0.339 A  
HETATM   15  H1  UNL     1      -9.181  17.622  67.833  1.00  0.00     0.000 HD 
BRANCH  11  16
HETATM   16  O   UNL     1     -11.443  15.814  73.172  1.00  0.00    -0.245 OA 
HETATM   17  C   UNL     1     -12.488  16.177  74.061  1.00  0.00    -0.595 C  
ENDBRANCH  11  16
BRANCH  14  18
HETATM   18  N   UNL     1     -11.772  14.287  65.705  1.00  0.00    -0.350 NA 
HETATM   19  C   UNL     1     -11.667  15.233  64.616  1.00  0.00    -0.308 C  
BRANCH  18  20
HETATM   20  C   UNL     1     -11.894  12.867  65.419  1.00  0.00    -0.403 C  
BRANCH  20  21
HETATM   21  C   UNL     1     -11.107  12.473  64.162  1.00  0.00    -0.426 C  
BRANCH  21  22
HETATM   22  C   UNL     1      -9.615  12.288  64.440  1.00  0.00     0.121 C  
BRANCH  22  23
HETATM   23  N   UNL     1      -9.083  11.105  63.796  1.00  0.00    -0.386 N  
HETATM   24  C   UNL     1      -9.216   9.847  64.335  1.00  0.00    -0.264 C  
HETATM   25  H   UNL     1      -8.591  11.209  62.909  1.00  0.00     0.000 HD 
HETATM   26  O   UNL     1      -9.768   9.628  65.409  1.00  0.00    -0.297 OA 
BRANCH  24  27
HETATM   27  C   UNL     1      -8.610   8.726  63.480  1.00  0.00    -0.045 C  
HETATM   28  C   UNL     1      -7.445   9.261  62.668  1.00  0.00    -0.103 C  
HETATM   29  C   UNL     1      -6.680   8.007  62.341  1.00  0.00    -0.086 C  
HETATM   30  C   UNL     1      -6.884   7.163  63.582  1.00  0.00    -0.052 C  
HETATM   31  O   UNL     1      -8.091   7.610  64.220  1.00  0.00    -0.134 OA 
ENDBRANCH  24  27
ENDBRANCH  22  23
ENDBRANCH  21  22
ENDBRANCH  20  21
ENDBRANCH  18  20
ENDBRANCH  14  18
ENDBRANCH   2   3
TORSDOF 8
ENDMDL
MODEL      166
REMARK 921   NORMALIZED FREE ENERGY PREDICTED BY IDOCK:   -4.30 KCAL/MOL
REMARK 922        TOTAL FREE ENERGY PREDICTED BY IDOCK:   -7.85 KCAL/MOL
REMARK 923 INTER-LIGAND FREE ENERGY PREDICTED BY IDOCK:   -6.93 KCAL/MOL
REMARK 924 INTRA-LIGAND FREE ENERGY PREDICTED BY IDOCK:   -0.92 KCAL/MOL
REMARK 927      BINDING AFFINITY PREDICTED BY RF-SCORE:    0.00 PKD
ROOT
HETATM    1  C   UNL     1     -11.074  13.454  66.554  1.00  0.00    -0.297 C  
HETATM    2  O   UNL     1     -10.115  13.630  67.597  1.00  0.00    -0.235 OA 
ENDROOT
BRANCH   2   3
HETATM    3  C   UNL     1      -9.542  12.476  68.066  1.00  0.00    -0.212 A  
HETATM    4  C   UNL     1     -10.277  11.280  68.149  1.00  0.00    -0.196 A  
HETATM    5  C   UNL     1      -9.769  10.127  68.725  1.00  0.00    -0.172 A  
HETATM    6  C   UNL     1      -8.459  10.141  69.182  1.00  0.00    -0.157 A  
HETATM    7  C   UNL     1      -7.665  11.298  68.999  1.00  0.00    -0.095 A  
HETATM    8  C   UNL     1      -8.053   8.965  69.809  1.00  0.00    -0.109 A  
HETATM    9  N   UNL     1      -6.744   8.792  70.272  1.00  0.00    -0.039 NA 
HETATM   10  N   UNL     1      -8.864   7.916  69.996  1.00  0.00    -0.140 NA 
HETATM   11  C   UNL     1      -8.198  12.473  68.454  1.00  0.00    -0.136 A  
HETATM   12  N   UNL     1     -10.566   9.062  68.844  1.00  0.00    -0.210 NA 
HETATM   13  H2  UNL     1      -6.528   9.570  70.896  1.00  0.00     0.000 HD 
HETATM   14  C   UNL     1     -10.107   7.990  69.503  1.00  0.00    -0.196 A  
HETATM   15  H1  UNL     1      -6.447   7.931  70.731  1.00  0.00     0.000 HD 
BRANCH  11  16
HETATM   16  O   UNL     1      -7.277  13.482  68.408  1.00  0.00    -0.092 OA 
HETATM   17  C   UNL     1      -6.112  13.328  67.612  1.00  0.00    -0.135 C  
ENDBRANCH  11  16
BRANCH  14  18
HETATM   18  N   UNL     1     -10.936   6.904  69.654  1.00  0.00    -0.256 NA 
HETATM   19  C   UNL     1     -10.671   5.700  68.898  1.00  0.00    -0.209 C  
BRANCH  18  20
HETATM   20  C   UNL     1     -11.958   6.899  70.687  1.00  0.00    -0.348 C  
BRANCH  20  21
HETATM   21  C   UNL     1     -11.798   8.085  71.648  1.00  0.00    -0.329 C  
BRANCH  21  22
HETATM   22  C   UNL     1     -13.142   8.642  72.118  1.00  0.00    -0.383 C  
BRANCH  22  23
HETATM   23  N   UNL     1     -13.064  10.049  72.448  1.00  0.00    -0.501 N  
HETATM   24  C   UNL     1     -13.171  11.039  71.500  1.00  0.00    -0.299 C  
HETATM   25  H   UNL     1     -12.925  10.317  73.423  1.00  0.00     0.000 HD 
HETATM   26  O   UNL     1     -13.313  10.812  70.302  1.00  0.00    -0.007 OA 
BRANCH  24  27
HETATM   27  C   UNL     1     -13.093  12.465  72.062  1.00  0.00    -0.365 C  
HETATM   28  C   UNL     1     -12.391  13.377  71.074  1.00  0.00    -0.401 C  
HETATM   29  C   UNL     1     -12.862  14.739  71.506  1.00  0.00    -0.406 C  
HETATM   30  C   UNL     1     -14.280  14.468  71.965  1.00  0.00    -0.544 C  
HETATM   31  O   UNL     1     -14.362  13.081  72.331  1.00  0.00    -0.458 OA 
ENDBRANCH  24  27
ENDBRANCH  22  23
ENDBRANCH  21  22
ENDBRANCH  20  21
ENDBRANCH  18  20
ENDBRANCH  14  18
ENDBRANCH   2   3
TORSDOF 8
ENDMDL
MODEL      167
REMARK 921   NORMALIZED FREE ENERGY PREDICTED BY IDOCK:   -4.29 KCAL/MOL
REMARK 922        TOTAL FREE ENERGY PREDICTED BY IDOCK:   -7.84 KCAL/MOL
REMARK 923 INTER-LIGAND FREE ENERGY PREDICTED BY IDOCK:   -6.59 KCAL/MOL
REMARK 924 INTRA-LIGAND FREE ENERGY PREDICTED BY IDOCK:   -1.25 KCAL/MOL
REMARK 927      BINDING AFFINITY PREDICTED BY RF-SCORE:    0.00 PKD
ROOT
HETATM    1  C   UNL     1      -7.440   7.094  69.187  1.00  0.00    -0.094 C  
HETATM    2  O   UNL     1      -8.684   6.689  69.759  1.00  0.00    -0.138 OA 
ENDROOT
BRANCH   2   3
HETATM    3  C   UNL     1      -9.587   7.699  69.971  1.00  0.00    -0.164 A  
HETATM    4  C   UNL     1      -9.696   8.776  69.074  1.00  0.00    -0.172 A  
HETATM    5  C   UNL     1     -10.511   9.871  69.315  1.00  0.00    -0.221 A  
HETATM    6  C   UNL     1     -11.295   9.870  70.460  1.00  0.00    -0.399 A  
HETATM    7  C   UNL     1     -11.287   8.741  71.314  1.00  0.00    -0.357 A  
HETATM    8  C   UNL     1     -12.029  11.037  70.659  1.00  0.00    -0.365 A  
HETATM    9  N   UNL     1     -12.916  11.174  71.733  1.00  0.00    -0.457 NA 
HETATM   10  N   UNL     1     -11.961  12.095  69.840  1.00  0.00    -0.325 NA 
HETATM   11  C   UNL     1     -10.430   7.658  71.087  1.00  0.00    -0.208 A  
HETATM   12  N   UNL     1     -10.489  10.891  68.454  1.00  0.00    -0.173 NA 
HETATM   13  H2  UNL     1     -12.400  10.979  72.591  1.00  0.00     0.000 HD 
HETATM   14  C   UNL     1     -11.190  11.994  68.750  1.00  0.00    -0.263 A  
HETATM   15  H1  UNL     1     -13.453  12.029  71.878  1.00  0.00     0.000 HD 
BRANCH  11  16
HETATM   16  O   UNL     1     -10.549   6.697  72.051  1.00  0.00    -0.207 OA 
HETATM   17  C   UNL     1      -9.452   6.432  72.912  1.00  0.00    -0.145 C  
ENDBRANCH  11  16
BRANCH  14  18
HETATM   18  N   UNL     1     -11.144  13.058  67.881  1.00  0.00    -0.245 NA 
HETATM   19  C   UNL     1     -11.933  14.237  68.163  1.00  0.00    -0.308 C  
BRANCH  18  20
HETATM   20  C   UNL     1     -10.185  13.073  66.790  1.00  0.00    -0.246 C  
BRANCH  20  21
HETATM   21  C   UNL     1     -10.871  13.296  65.436  1.00  0.00    -0.304 C  
BRANCH  21  22
HETATM   22  C   UNL     1     -11.301  11.986  64.776  1.00  0.00    -0.313 C  
BRANCH  22  23
HETATM   23  N   UNL     1     -10.340  10.925  64.995  1.00  0.00    -0.295 N  
HETATM   24  C   UNL     1      -9.618  10.358  63.971  1.00  0.00    -0.317 C  
HETATM   25  H   UNL     1     -10.193  10.585  65.945  1.00  0.00     0.000 HD 
HETATM   26  O   UNL     1      -9.747  10.683  62.794  1.00  0.00    -0.304 OA 
BRANCH  24  27
HETATM   27  C   UNL     1      -8.631   9.272  64.419  1.00  0.00    -0.195 C  
HETATM   28  C   UNL     1      -7.286   9.482  63.750  1.00  0.00    -0.107 C  
HETATM   29  C   UNL     1      -6.355   8.724  64.658  1.00  0.00    -0.066 C  
HETATM   30  C   UNL     1      -6.972   8.946  66.024  1.00  0.00    -0.084 C  
HETATM   31  O   UNL     1      -8.366   9.237  65.831  1.00  0.00    -0.112 OA 
ENDBRANCH  24  27
ENDBRANCH  22  23
ENDBRANCH  21  22
ENDBRANCH  20  21
ENDBRANCH  18  20
ENDBRANCH  14  18
ENDBRANCH   2   3
TORSDOF 8
ENDMDL
MODEL      168
REMARK 921   NORMALIZED FREE ENERGY PREDICTED BY IDOCK:   -4.29 KCAL/MOL
REMARK 922        TOTAL FREE ENERGY PREDICTED BY IDOCK:   -7.83 KCAL/MOL
REMARK 923 INTER-LIGAND FREE ENERGY PREDICTED BY IDOCK:   -6.61 KCAL/MOL
REMARK 924 INTRA-LIGAND FREE ENERGY PREDICTED BY IDOCK:   -1.22 KCAL/MOL
REMARK 927      BINDING AFFINITY PREDICTED BY RF-SCORE:    0.00 PKD
ROOT
HETATM    1  C   UNL     1     -11.355   7.606  72.591  1.00  0.00    -0.370 C  
HETATM    2  O   UNL     1      -9.978   7.330  72.334  1.00  0.00    -0.169 OA 
ENDROOT
BRANCH   2   3
HETATM    3  C   UNL     1      -9.618   7.329  71.011  1.00  0.00    -0.158 A  
HETATM    4  C   UNL     1      -9.639   8.511  70.251  1.00  0.00    -0.177 A  
HETATM    5  C   UNL     1      -9.397   8.530  68.887  1.00  0.00    -0.146 A  
HETATM    6  C   UNL     1      -9.060   7.337  68.262  1.00  0.00    -0.134 A  
HETATM    7  C   UNL     1      -8.917   6.158  69.032  1.00  0.00    -0.125 A  
HETATM    8  C   UNL     1      -8.902   7.433  66.880  1.00  0.00    -0.132 A  
HETATM    9  N   UNL     1      -8.503   6.337  66.108  1.00  0.00    -0.132 NA 
HETATM   10  N   UNL     1      -9.095   8.569  66.198  1.00  0.00    -0.183 NA 
HETATM   11  C   UNL     1      -9.206   6.139  70.401  1.00  0.00    -0.153 A  
HETATM   12  N   UNL     1      -9.524   9.683  68.226  1.00  0.00    -0.136 NA 
HETATM   13  H2  UNL     1      -9.149   5.570  66.297  1.00  0.00     0.000 HD 
HETATM   14  C   UNL     1      -9.400   9.673  66.892  1.00  0.00    -0.146 A  
HETATM   15  H1  UNL     1      -8.387   6.407  65.098  1.00  0.00     0.000 HD 
BRANCH  11  16
HETATM   16  O   UNL     1      -9.047   4.894  70.943  1.00  0.00    -0.133 OA 
HETATM   17  C   UNL     1      -8.611   3.825  70.119  1.00  0.00    -0.065 C  
ENDBRANCH  11  16
BRANCH  14  18
HETATM   18  N   UNL     1      -9.562  10.852  66.206  1.00  0.00    -0.193 NA 
HETATM   19  C   UNL     1      -8.699  11.973  66.509  1.00  0.00    -0.138 C  
BRANCH  18  20
HETATM   20  C   UNL     1     -10.466  10.923  65.070  1.00  0.00    -0.261 C  
BRANCH  20  21
HETATM   21  C   UNL     1     -10.924  12.362  64.799  1.00  0.00    -0.340 C  
BRANCH  21  22
HETATM   22  C   UNL     1     -12.189  12.729  65.575  1.00  0.00    -0.463 C  
BRANCH  22  23
HETATM   23  N   UNL     1     -11.887  13.405  66.820  1.00  0.00    -0.387 N  
HETATM   24  C   UNL     1     -11.940  12.769  68.038  1.00  0.00    -0.264 C  
HETATM   25  H   UNL     1     -11.626  14.390  66.792  1.00  0.00     0.000 HD 
HETATM   26  O   UNL     1     -12.269  11.594  68.172  1.00  0.00    -0.537 OA 
BRANCH  24  27
HETATM   27  C   UNL     1     -11.553  13.655  69.231  1.00  0.00    -0.311 C  
HETATM   28  C   UNL     1     -11.343  15.085  68.771  1.00  0.00    -0.306 C  
HETATM   29  C   UNL     1     -11.506  15.859  70.052  1.00  0.00    -0.354 C  
HETATM   30  C   UNL     1     -12.566  15.064  70.785  1.00  0.00    -0.370 C  
HETATM   31  O   UNL     1     -12.531  13.720  70.281  1.00  0.00    -0.326 OA 
ENDBRANCH  24  27
ENDBRANCH  22  23
ENDBRANCH  21  22
ENDBRANCH  20  21
ENDBRANCH  18  20
ENDBRANCH  14  18
ENDBRANCH   2   3
TORSDOF 8
ENDMDL
MODEL      169
REMARK 921   NORMALIZED FREE ENERGY PREDICTED BY IDOCK:   -4.28 KCAL/MOL
REMARK 922        TOTAL FREE ENERGY PREDICTED BY IDOCK:   -7.82 KCAL/MOL
REMARK 923 INTER-LIGAND FREE ENERGY PREDICTED BY IDOCK:   -6.91 KCAL/MOL
REMARK 924 INTRA-LIGAND FREE ENERGY PREDICTED BY IDOCK:   -0.91 KCAL/MOL
REMARK 927      BINDING AFFINITY PREDICTED BY RF-SCORE:    0.00 PKD
ROOT
HETATM    1  C   UNL     1      -8.428  15.190  69.795  1.00  0.00     0.053 C  
HETATM    2  O   UNL     1      -8.931  15.756  68.585  1.00  0.00    -0.184 OA 
ENDROOT
BRANCH   2   3
HETATM    3  C   UNL     1      -9.663  14.902  67.800  1.00  0.00    -0.212 A  
HETATM    4  C   UNL     1      -9.058  13.810  67.154  1.00  0.00    -0.243 A  
HETATM    5  C   UNL     1      -9.737  12.996  66.261  1.00  0.00    -0.263 A  
HETATM    6  C   UNL     1     -11.087  13.238  66.047  1.00  0.00    -0.298 A  
HETATM    7  C   UNL     1     -11.742  14.258  66.778  1.00  0.00    -0.424 A  
HETATM    8  C   UNL     1     -11.675  12.420  65.084  1.00  0.00    -0.382 A  
HETATM    9  N   UNL     1     -13.041  12.492  64.792  1.00  0.00    -0.814 NA 
HETATM   10  N   UNL     1     -10.994  11.500  64.389  1.00  0.00    -0.336 NA 
HETATM   11  C   UNL     1     -11.039  15.102  67.646  1.00  0.00    -0.318 A  
HETATM   12  N   UNL     1      -9.064  12.035  65.625  1.00  0.00    -0.012 NA 
HETATM   13  H2  UNL     1     -13.260  13.460  64.555  1.00  0.00     0.000 HD 
HETATM   14  C   UNL     1      -9.698  11.328  64.680  1.00  0.00    -0.253 A  
HETATM   15  H1  UNL     1     -13.471  11.893  64.088  1.00  0.00     0.000 HD 
BRANCH  11  16
HETATM   16  O   UNL     1     -11.849  16.045  68.214  1.00  0.00    -0.250 OA 
HETATM   17  C   UNL     1     -12.350  15.836  69.525  1.00  0.00    -0.060 C  
ENDBRANCH  11  16
BRANCH  14  18
HETATM   18  N   UNL     1      -8.999  10.359  64.001  1.00  0.00    -0.210 NA 
HETATM   19  C   UNL     1      -9.373  10.037  62.641  1.00  0.00    -0.266 C  
BRANCH  18  20
HETATM   20  C   UNL     1      -7.790   9.789  64.572  1.00  0.00    -0.137 C  
BRANCH  20  21
HETATM   21  C   UNL     1      -8.098   8.558  65.435  1.00  0.00    -0.127 C  
BRANCH  21  22
HETATM   22  C   UNL     1      -9.551   8.524  65.908  1.00  0.00    -0.094 C  
BRANCH  22  23
HETATM   23  N   UNL     1      -9.660   8.194  67.313  1.00  0.00    -0.153 N  
HETATM   24  C   UNL     1     -10.369   8.968  68.202  1.00  0.00    -0.214 C  
HETATM   25  H   UNL     1      -9.193   7.356  67.658  1.00  0.00     0.000 HD 
HETATM   26  O   UNL     1     -10.940  10.007  67.885  1.00  0.00    -0.274 OA 
BRANCH  24  27
HETATM   27  C   UNL     1     -10.386   8.426  69.638  1.00  0.00    -0.218 C  
HETATM   28  C   UNL     1      -9.223   8.999  70.426  1.00  0.00    -0.243 C  
HETATM   29  C   UNL     1      -9.680   8.817  71.848  1.00  0.00    -0.386 C  
HETATM   30  C   UNL     1     -11.175   9.033  71.745  1.00  0.00    -0.378 C  
HETATM   31  O   UNL     1     -11.566   8.744  70.393  1.00  0.00    -0.213 OA 
ENDBRANCH  24  27
ENDBRANCH  22  23
ENDBRANCH  21  22
ENDBRANCH  20  21
ENDBRANCH  18  20
ENDBRANCH  14  18
ENDBRANCH   2   3
TORSDOF 8
ENDMDL
MODEL      170
REMARK 921   NORMALIZED FREE ENERGY PREDICTED BY IDOCK:   -4.27 KCAL/MOL
REMARK 922        TOTAL FREE ENERGY PREDICTED BY IDOCK:   -7.81 KCAL/MOL
REMARK 923 INTER-LIGAND FREE ENERGY PREDICTED BY IDOCK:   -7.31 KCAL/MOL
REMARK 924 INTRA-LIGAND FREE ENERGY PREDICTED BY IDOCK:   -0.49 KCAL/MOL
REMARK 927      BINDING AFFINITY PREDICTED BY RF-SCORE:    0.00 PKD
ROOT
HETATM    1  C   UNL     1     -10.808  19.434  67.419  1.00  0.00    -0.440 C  
HETATM    2  O   UNL     1     -10.089  18.808  68.481  1.00  0.00    -0.375 OA 
ENDROOT
BRANCH   2   3
HETATM    3  C   UNL     1      -9.454  17.639  68.149  1.00  0.00    -0.286 A  
HETATM    4  C   UNL     1     -10.156  16.423  68.079  1.00  0.00    -0.248 A  
HETATM    5  C   UNL     1      -9.529  15.207  67.863  1.00  0.00    -0.194 A  
HETATM    6  C   UNL     1      -8.159  15.202  67.646  1.00  0.00    -0.177 A  
HETATM    7  C   UNL     1      -7.453  16.428  67.594  1.00  0.00    -0.153 A  
HETATM    8  C   UNL     1      -7.600  13.933  67.507  1.00  0.00    -0.176 A  
HETATM    9  N   UNL     1      -6.242  13.754  67.222  1.00  0.00    -0.412 NA 
HETATM   10  N   UNL     1      -8.311  12.803  67.611  1.00  0.00    -0.162 NA 
HETATM   11  C   UNL     1      -8.086  17.648  67.855  1.00  0.00    -0.233 A  
HETATM   12  N   UNL     1     -10.261  14.090  67.899  1.00  0.00    -0.236 NA 
HETATM   13  H2  UNL     1      -5.705  14.257  67.930  1.00  0.00     0.000 HD 
HETATM   14  C   UNL     1      -9.633  12.911  67.804  1.00  0.00    -0.212 A  
HETATM   15  H1  UNL     1      -5.833  12.826  67.120  1.00  0.00     0.000 HD 
BRANCH  11  16
HETATM   16  O   UNL     1      -7.216  18.701  67.798  1.00  0.00    -0.223 OA 
HETATM   17  C   UNL     1      -6.867  19.385  68.991  1.00  0.00    -0.342 C  
ENDBRANCH  11  16
BRANCH  14  18
HETATM   18  N   UNL     1     -10.378  11.759  67.873  1.00  0.00    -0.189 NA 
HETATM   19  C   UNL     1     -11.282  11.433  66.792  1.00  0.00    -0.252 C  
BRANCH  18  20
HETATM   20  C   UNL     1     -10.137  10.791  68.930  1.00  0.00    -0.205 C  
BRANCH  20  21
HETATM   21  C   UNL     1     -11.444  10.161  69.430  1.00  0.00    -0.202 C  
BRANCH  21  22
HETATM   22  C   UNL     1     -11.511  10.085  70.955  1.00  0.00    -0.383 C  
BRANCH  22  23
HETATM   23  N   UNL     1     -10.821   8.921  71.473  1.00  0.00    -0.298 N  
HETATM   24  C   UNL     1     -11.480   7.890  72.100  1.00  0.00    -0.324 C  
HETATM   25  H   UNL     1      -9.808   8.865  71.370  1.00  0.00     0.000 HD 
HETATM   26  O   UNL     1     -12.692   7.882  72.294  1.00  0.00    -0.256 OA 
BRANCH  24  27
HETATM   27  C   UNL     1     -10.570   6.737  72.547  1.00  0.00    -0.221 C  
HETATM   28  C   UNL     1     -10.378   6.778  74.051  1.00  0.00    -0.377 C  
HETATM   29  C   UNL     1      -9.953   5.367  74.357  1.00  0.00    -0.251 C  
HETATM   30  C   UNL     1     -10.746   4.557  73.351  1.00  0.00    -0.248 C  
HETATM   31  O   UNL     1     -11.065   5.422  72.249  1.00  0.00    -0.238 OA 
ENDBRANCH  24  27
ENDBRANCH  22  23
ENDBRANCH  21  22
ENDBRANCH  20  21
ENDBRANCH  18  20
ENDBRANCH  14  18
ENDBRANCH   2   3
TORSDOF 8
ENDMDL
MODEL      171
REMARK 921   NORMALIZED FREE ENERGY PREDICTED BY IDOCK:   -4.27 KCAL/MOL
REMARK 922        TOTAL FREE ENERGY PREDICTED BY IDOCK:   -7.80 KCAL/MOL
REMARK 923 INTER-LIGAND FREE ENERGY PREDICTED BY IDOCK:   -6.49 KCAL/MOL
REMARK 924 INTRA-LIGAND FREE ENERGY PREDICTED BY IDOCK:   -1.31 KCAL/MOL
REMARK 927      BINDING AFFINITY PREDICTED BY RF-SCORE:    0.00 PKD
ROOT
HETATM    1  C   UNL     1     -12.208  12.535  65.381  1.00  0.00    -0.412 C  
HETATM    2  O   UNL     1     -11.665  11.624  66.337  1.00  0.00    -0.472 OA 
ENDROOT
BRANCH   2   3
HETATM    3  C   UNL     1     -10.324  11.765  66.584  1.00  0.00    -0.218 A  
HETATM    4  C   UNL     1      -9.838  12.817  67.380  1.00  0.00    -0.210 A  
HETATM    5  C   UNL     1      -8.485  13.061  67.556  1.00  0.00    -0.190 A  
HETATM    6  C   UNL     1      -7.578  12.190  66.969  1.00  0.00    -0.093 A  
HETATM    7  C   UNL     1      -8.049  11.057  66.264  1.00  0.00    -0.159 A  
HETATM    8  C   UNL     1      -6.241  12.548  67.137  1.00  0.00    -0.036 A  
HETATM    9  N   UNL     1      -5.199  11.745  66.660  1.00  0.00    -0.273 NA 
HETATM   10  N   UNL     1      -5.855  13.660  67.776  1.00  0.00    -0.242 NA 
HETATM   11  C   UNL     1      -9.416  10.841  66.055  1.00  0.00    -0.194 A  
HETATM   12  N   UNL     1      -8.110  14.134  68.255  1.00  0.00    -0.138 NA 
HETATM   13  H2  UNL     1      -5.358  11.585  65.665  1.00  0.00     0.000 HD 
HETATM   14  C   UNL     1      -6.805  14.428  68.325  1.00  0.00    -0.111 A  
HETATM   15  H1  UNL     1      -4.222  12.007  66.784  1.00  0.00     0.000 HD 
BRANCH  11  16
HETATM   16  O   UNL     1      -9.652   9.717  65.313  1.00  0.00    -0.269 OA 
HETATM   17  C   UNL     1      -9.365   8.443  65.866  1.00  0.00    -0.136 C  
ENDBRANCH  11  16
BRANCH  14  18
HETATM   18  N   UNL     1      -6.418  15.550  69.017  1.00  0.00    -0.117 NA 
HETATM   19  C   UNL     1      -5.258  15.486  69.879  1.00  0.00    -0.104 C  
BRANCH  18  20
HETATM   20  C   UNL     1      -7.054  16.830  68.756  1.00  0.00    -0.202 C  
BRANCH  20  21
HETATM   21  C   UNL     1      -7.029  17.181  67.262  1.00  0.00    -0.196 C  
BRANCH  21  22
HETATM   22  C   UNL     1      -8.431  17.288  66.662  1.00  0.00    -0.260 C  
BRANCH  22  23
HETATM   23  N   UNL     1      -9.439  16.710  67.527  1.00  0.00    -0.227 N  
HETATM   24  C   UNL     1     -10.572  17.392  67.900  1.00  0.00    -0.383 C  
HETATM   25  H   UNL     1      -9.302  15.760  67.871  1.00  0.00     0.000 HD 
HETATM   26  O   UNL     1     -10.809  18.546  67.557  1.00  0.00    -0.422 OA 
BRANCH  24  27
HETATM   27  C   UNL     1     -11.528  16.589  68.793  1.00  0.00    -0.143 C  
HETATM   28  C   UNL     1     -11.750  15.206  68.208  1.00  0.00    -0.336 C  
HETATM   29  C   UNL     1     -12.227  14.427  69.404  1.00  0.00    -0.305 C  
HETATM   30  C   UNL     1     -11.439  15.048  70.539  1.00  0.00    -0.290 C  
HETATM   31  O   UNL     1     -11.070  16.377  70.138  1.00  0.00    -0.355 OA 
ENDBRANCH  24  27
ENDBRANCH  22  23
ENDBRANCH  21  22
ENDBRANCH  20  21
ENDBRANCH  18  20
ENDBRANCH  14  18
ENDBRANCH   2   3
TORSDOF 8
ENDMDL
MODEL      172
REMARK 921   NORMALIZED FREE ENERGY PREDICTED BY IDOCK:   -4.26 KCAL/MOL
REMARK 922        TOTAL FREE ENERGY PREDICTED BY IDOCK:   -7.79 KCAL/MOL
REMARK 923 INTER-LIGAND FREE ENERGY PREDICTED BY IDOCK:   -6.29 KCAL/MOL
REMARK 924 INTRA-LIGAND FREE ENERGY PREDICTED BY IDOCK:   -1.50 KCAL/MOL
REMARK 927      BINDING AFFINITY PREDICTED BY RF-SCORE:    0.00 PKD
ROOT
HETATM    1  C   UNL     1      -5.849  10.082  63.610  1.00  0.00    -0.128 C  
HETATM    2  O   UNL     1      -5.762   9.278  64.786  1.00  0.00    -0.061 OA 
ENDROOT
BRANCH   2   3
HETATM    3  C   UNL     1      -6.958   8.804  65.260  1.00  0.00    -0.076 A  
HETATM    4  C   UNL     1      -7.716   9.540  66.188  1.00  0.00    -0.101 A  
HETATM    5  C   UNL     1      -8.867   9.043  66.778  1.00  0.00    -0.127 A  
HETATM    6  C   UNL     1      -9.319   7.791  66.387  1.00  0.00    -0.237 A  
HETATM    7  C   UNL     1      -8.636   7.085  65.367  1.00  0.00    -0.048 A  
HETATM    8  C   UNL     1     -10.441   7.339  67.079  1.00  0.00    -0.328 A  
HETATM    9  N   UNL     1     -11.059   6.123  66.765  1.00  0.00    -0.725 NA 
HETATM   10  N   UNL     1     -11.020   8.031  68.068  1.00  0.00     0.075 NA 
HETATM   11  C   UNL     1      -7.450   7.575  64.807  1.00  0.00    -0.091 A  
HETATM   12  N   UNL     1      -9.477   9.773  67.714  1.00  0.00    -0.133 NA 
HETATM   13  H2  UNL     1     -10.349   5.392  66.808  1.00  0.00     0.000 HD 
HETATM   14  C   UNL     1     -10.521   9.239  68.361  1.00  0.00    -0.206 A  
HETATM   15  H1  UNL     1     -11.880   5.793  67.271  1.00  0.00     0.000 HD 
BRANCH  11  16
HETATM   16  O   UNL     1      -6.930   6.720  63.876  1.00  0.00    -0.051 OA 
HETATM   17  C   UNL     1      -7.805   5.927  63.089  1.00  0.00    -0.099 C  
ENDBRANCH  11  16
BRANCH  14  18
HETATM   18  N   UNL     1     -11.132   9.976  69.348  1.00  0.00    -0.235 NA 
HETATM   19  C   UNL     1     -10.897   9.635  70.734  1.00  0.00    -0.330 C  
BRANCH  18  20
HETATM   20  C   UNL     1     -11.862  11.187  69.015  1.00  0.00    -0.348 C  
BRANCH  20  21
HETATM   21  C   UNL     1     -11.362  12.391  69.826  1.00  0.00    -0.125 C  
BRANCH  21  22
HETATM   22  C   UNL     1     -10.593  13.395  68.968  1.00  0.00    -0.077 C  
BRANCH  22  23
HETATM   23  N   UNL     1     -10.606  13.036  67.565  1.00  0.00    -0.229 N  
HETATM   24  C   UNL     1     -10.592  13.975  66.561  1.00  0.00    -0.279 C  
HETATM   25  H   UNL     1     -10.625  12.049  67.313  1.00  0.00     0.000 HD 
HETATM   26  O   UNL     1     -10.595  15.185  66.769  1.00  0.00    -0.286 OA 
BRANCH  24  27
HETATM   27  C   UNL     1     -10.576  13.386  65.144  1.00  0.00    -0.343 C  
HETATM   28  C   UNL     1     -11.008  11.932  65.180  1.00  0.00    -0.365 C  
HETATM   29  C   UNL     1     -11.439  11.692  63.758  1.00  0.00    -0.457 C  
HETATM   30  C   UNL     1     -12.036  13.027  63.364  1.00  0.00    -0.515 C  
HETATM   31  O   UNL     1     -11.452  14.033  64.207  1.00  0.00    -0.366 OA 
ENDBRANCH  24  27
ENDBRANCH  22  23
ENDBRANCH  21  22
ENDBRANCH  20  21
ENDBRANCH  18  20
ENDBRANCH  14  18
ENDBRANCH   2   3
TORSDOF 8
ENDMDL
MODEL      173
REMARK 921   NORMALIZED FREE ENERGY PREDICTED BY IDOCK:   -4.26 KCAL/MOL
REMARK 922        TOTAL FREE ENERGY PREDICTED BY IDOCK:   -7.78 KCAL/MOL
REMARK 923 INTER-LIGAND FREE ENERGY PREDICTED BY IDOCK:   -6.13 KCAL/MOL
REMARK 924 INTRA-LIGAND FREE ENERGY PREDICTED BY IDOCK:   -1.66 KCAL/MOL
REMARK 927      BINDING AFFINITY PREDICTED BY RF-SCORE:    0.00 PKD
ROOT
HETATM    1  C   UNL     1     -14.134   7.258  71.506  1.00  0.00    -0.378 C  
HETATM    2  O   UNL     1     -12.791   7.453  71.948  1.00  0.00    -0.317 OA 
ENDROOT
BRANCH   2   3
HETATM    3  C   UNL     1     -11.865   6.601  71.403  1.00  0.00    -0.337 A  
HETATM    4  C   UNL     1     -11.515   6.682  70.043  1.00  0.00    -0.434 A  
HETATM    5  C   UNL     1     -10.675   5.766  69.430  1.00  0.00    -0.326 A  
HETATM    6  C   UNL     1     -10.111   4.766  70.210  1.00  0.00    -0.304 A  
HETATM    7  C   UNL     1     -10.357   4.740  71.603  1.00  0.00    -0.215 A  
HETATM    8  C   UNL     1      -9.336   3.849  69.501  1.00  0.00    -0.176 A  
HETATM    9  N   UNL     1      -8.647   2.816  70.146  1.00  0.00    -0.057 NA 
HETATM   10  N   UNL     1      -9.175   3.897  68.173  1.00  0.00    -0.143 NA 
HETATM   11  C   UNL     1     -11.240   5.642  72.207  1.00  0.00    -0.259 A  
HETATM   12  N   UNL     1     -10.465   5.865  68.116  1.00  0.00    -0.212 NA 
HETATM   13  H2  UNL     1      -9.321   2.291  70.704  1.00  0.00     0.000 HD 
HETATM   14  C   UNL     1      -9.745   4.912  67.509  1.00  0.00    -0.164 A  
HETATM   15  H1  UNL     1      -8.080   2.145  69.627  1.00  0.00     0.000 HD 
BRANCH  11  16
HETATM   16  O   UNL     1     -11.369   5.415  73.549  1.00  0.00    -0.225 OA 
HETATM   17  C   UNL     1     -10.519   4.473  74.183  1.00  0.00    -0.266 C  
ENDBRANCH  11  16
BRANCH  14  18
HETATM   18  N   UNL     1      -9.554   4.993  66.151  1.00  0.00    -0.157 NA 
HETATM   19  C   UNL     1     -10.035   3.925  65.302  1.00  0.00    -0.154 C  
BRANCH  18  20
HETATM   20  C   UNL     1      -9.035   6.212  65.555  1.00  0.00     0.012 C  
BRANCH  20  21
HETATM   21  C   UNL     1      -7.588   6.484  65.990  1.00  0.00    -0.087 C  
BRANCH  21  22
HETATM   22  C   UNL     1      -7.468   7.724  66.876  1.00  0.00    -0.094 C  
BRANCH  22  23
HETATM   23  N   UNL     1      -8.760   8.301  67.185  1.00  0.00    -0.122 N  
HETATM   24  C   UNL     1      -8.947   9.184  68.222  1.00  0.00    -0.129 C  
HETATM   25  H   UNL     1      -9.562   8.042  66.611  1.00  0.00     0.000 HD 
HETATM   26  O   UNL     1      -8.048   9.532  68.982  1.00  0.00    -0.094 OA 
BRANCH  24  27
HETATM   27  C   UNL     1     -10.385   9.702  68.360  1.00  0.00    -0.204 C  
HETATM   28  C   UNL     1     -10.606  10.262  69.753  1.00  0.00    -0.312 C  
HETATM   29  C   UNL     1     -11.796  11.161  69.550  1.00  0.00    -0.423 C  
HETATM   30  C   UNL     1     -11.571  11.698  68.151  1.00  0.00    -0.319 C  
HETATM   31  O   UNL     1     -10.740  10.757  67.452  1.00  0.00    -0.231 OA 
ENDBRANCH  24  27
ENDBRANCH  22  23
ENDBRANCH  21  22
ENDBRANCH  20  21
ENDBRANCH  18  20
ENDBRANCH  14  18
ENDBRANCH   2   3
TORSDOF 8
ENDMDL
MODEL      174
REMARK 921   NORMALIZED FREE ENERGY PREDICTED BY IDOCK:   -4.25 KCAL/MOL
REMARK 922        TOTAL FREE ENERGY PREDICTED BY IDOCK:   -7.78 KCAL/MOL
REMARK 923 INTER-LIGAND FREE ENERGY PREDICTED BY IDOCK:   -7.13 KCAL/MOL
REMARK 924 INTRA-LIGAND FREE ENERGY PREDICTED BY IDOCK:   -0.65 KCAL/MOL
REMARK 927      BINDING AFFINITY PREDICTED BY RF-SCORE:    0.00 PKD
ROOT
HETATM    1  C   UNL     1     -10.525  16.951  69.437  1.00  0.00    -0.283 C  
HETATM    2  O   UNL     1     -11.397  16.496  68.403  1.00  0.00    -0.348 OA 
ENDROOT
BRANCH   2   3
HETATM    3  C   UNL     1     -11.413  15.139  68.205  1.00  0.00    -0.336 A  
HETATM    4  C   UNL     1     -11.875  14.264  69.204  1.00  0.00    -0.368 A  
HETATM    5  C   UNL     1     -11.797  12.885  69.088  1.00  0.00    -0.303 A  
HETATM    6  C   UNL     1     -11.297  12.352  67.909  1.00  0.00    -0.344 A  
HETATM    7  C   UNL     1     -10.938  13.214  66.845  1.00  0.00    -0.295 A  
HETATM    8  C   UNL     1     -11.188  10.962  67.903  1.00  0.00    -0.321 A  
HETATM    9  N   UNL     1     -10.760  10.262  66.770  1.00  0.00    -0.188 NA 
HETATM   10  N   UNL     1     -11.501  10.198  68.958  1.00  0.00    -0.137 NA 
HETATM   11  C   UNL     1     -10.979  14.606  66.986  1.00  0.00    -0.317 A  
HETATM   12  N   UNL     1     -12.178  12.129  70.120  1.00  0.00    -0.270 NA 
HETATM   13  H2  UNL     1      -9.858  10.648  66.487  1.00  0.00     0.000 HD 
HETATM   14  C   UNL     1     -11.994  10.805  70.046  1.00  0.00    -0.347 A  
HETATM   15  H1  UNL     1     -10.681   9.246  66.766  1.00  0.00     0.000 HD 
BRANCH  11  16
HETATM   16  O   UNL     1     -10.549  15.250  65.860  1.00  0.00    -0.304 OA 
HETATM   17  C   UNL     1     -11.321  15.171  64.672  1.00  0.00    -0.356 C  
ENDBRANCH  11  16
BRANCH  14  18
HETATM   18  N   UNL     1     -12.355  10.027  71.119  1.00  0.00    -0.347 NA 
HETATM   19  C   UNL     1     -13.406  10.483  72.003  1.00  0.00    -0.314 C  
BRANCH  18  20
HETATM   20  C   UNL     1     -11.816   8.686  71.269  1.00  0.00    -0.295 C  
BRANCH  20  21
HETATM   21  C   UNL     1     -10.505   8.688  72.066  1.00  0.00    -0.422 C  
BRANCH  21  22
HETATM   22  C   UNL     1     -10.426   7.534  73.065  1.00  0.00    -0.342 C  
BRANCH  22  23
HETATM   23  N   UNL     1      -9.762   6.374  72.507  1.00  0.00    -0.162 N  
HETATM   24  C   UNL     1      -9.386   5.297  73.274  1.00  0.00    -0.138 C  
HETATM   25  H   UNL     1      -9.565   6.356  71.506  1.00  0.00     0.000 HD 
HETATM   26  O   UNL     1      -9.557   5.241  74.488  1.00  0.00    -0.132 OA 
BRANCH  24  27
HETATM   27  C   UNL     1      -8.725   4.159  72.484  1.00  0.00    -0.104 C  
HETATM   28  C   UNL     1      -9.223   4.161  71.051  1.00  0.00    -0.202 C  
HETATM   29  C   UNL     1      -8.142   3.396  70.336  1.00  0.00    -0.057 C  
HETATM   30  C   UNL     1      -6.893   3.809  71.087  1.00  0.00    -0.032 C  
HETATM   31  O   UNL     1      -7.293   4.228  72.402  1.00  0.00    -0.064 OA 
ENDBRANCH  24  27
ENDBRANCH  22  23
ENDBRANCH  21  22
ENDBRANCH  20  21
ENDBRANCH  18  20
ENDBRANCH  14  18
ENDBRANCH   2   3
TORSDOF 8
ENDMDL
MODEL      175
REMARK 921   NORMALIZED FREE ENERGY PREDICTED BY IDOCK:   -4.20 KCAL/MOL
REMARK 922        TOTAL FREE ENERGY PREDICTED BY IDOCK:   -7.70 KCAL/MOL
REMARK 923 INTER-LIGAND FREE ENERGY PREDICTED BY IDOCK:   -6.32 KCAL/MOL
REMARK 924 INTRA-LIGAND FREE ENERGY PREDICTED BY IDOCK:   -1.38 KCAL/MOL
REMARK 927      BINDING AFFINITY PREDICTED BY RF-SCORE:    0.00 PKD
ROOT
HETATM    1  C   UNL     1      -8.821   3.342  68.833  1.00  0.00    -0.114 C  
HETATM    2  O   UNL     1      -8.615   3.998  70.084  1.00  0.00    -0.063 OA 
ENDROOT
BRANCH   2   3
HETATM    3  C   UNL     1      -9.158   5.253  70.184  1.00  0.00    -0.133 A  
HETATM    4  C   UNL     1      -8.773   6.283  69.308  1.00  0.00    -0.124 A  
HETATM    5  C   UNL     1      -9.210   7.590  69.450  1.00  0.00    -0.149 A  
HETATM    6  C   UNL     1     -10.112   7.876  70.465  1.00  0.00    -0.192 A  
HETATM    7  C   UNL     1     -10.603   6.829  71.282  1.00  0.00    -0.246 A  
HETATM    8  C   UNL     1     -10.445   9.224  70.581  1.00  0.00    -0.262 A  
HETATM    9  N   UNL     1     -11.387   9.672  71.513  1.00  0.00    -0.380 NA 
HETATM   10  N   UNL     1      -9.912  10.179  69.807  1.00  0.00    -0.235 NA 
HETATM   11  C   UNL     1     -10.125   5.520  71.159  1.00  0.00    -0.207 A  
HETATM   12  N   UNL     1      -8.726   8.524  68.628  1.00  0.00    -0.138 NA 
HETATM   13  H2  UNL     1     -11.098   9.341  72.433  1.00  0.00     0.000 HD 
HETATM   14  C   UNL     1      -9.063   9.803  68.843  1.00  0.00    -0.148 A  
HETATM   15  H1  UNL     1     -11.630  10.659  71.597  1.00  0.00     0.000 HD 
BRANCH  11  16
HETATM   16  O   UNL     1     -10.695   4.676  72.071  1.00  0.00    -0.128 OA 
HETATM   17  C   UNL     1     -11.463   5.215  73.136  1.00  0.00    -0.272 C  
ENDBRANCH  11  16
BRANCH  14  18
HETATM   18  N   UNL     1      -8.541  10.770  68.017  1.00  0.00    -0.125 NA 
HETATM   19  C   UNL     1      -7.679  11.788  68.575  1.00  0.00    -0.137 C  
BRANCH  18  20
HETATM   20  C   UNL     1      -8.708  10.674  66.577  1.00  0.00    -0.146 C  
BRANCH  20  21
HETATM   21  C   UNL     1     -10.156  10.339  66.195  1.00  0.00    -0.307 C  
BRANCH  21  22
HETATM   22  C   UNL     1     -11.070  11.564  66.240  1.00  0.00    -0.263 C  
BRANCH  22  23
HETATM   23  N   UNL     1     -11.091  12.181  67.550  1.00  0.00    -0.259 N  
HETATM   24  C   UNL     1     -11.016  13.542  67.728  1.00  0.00    -0.266 C  
HETATM   25  H   UNL     1     -11.165  11.582  68.372  1.00  0.00     0.000 HD 
HETATM   26  O   UNL     1     -10.900  14.338  66.801  1.00  0.00    -0.292 OA 
BRANCH  24  27
HETATM   27  C   UNL     1     -11.088  13.993  69.193  1.00  0.00    -0.259 C  
HETATM   28  C   UNL     1     -11.616  15.413  69.276  1.00  0.00    -0.354 C  
HETATM   29  C   UNL     1     -12.110  15.487  70.696  1.00  0.00    -0.430 C  
HETATM   30  C   UNL     1     -12.628  14.085  70.940  1.00  0.00    -0.361 C  
HETATM   31  O   UNL     1     -11.948  13.205  70.030  1.00  0.00    -0.328 OA 
ENDBRANCH  24  27
ENDBRANCH  22  23
ENDBRANCH  21  22
ENDBRANCH  20  21
ENDBRANCH  18  20
ENDBRANCH  14  18
ENDBRANCH   2   3
TORSDOF 8
ENDMDL
MODEL      176
REMARK 921   NORMALIZED FREE ENERGY PREDICTED BY IDOCK:   -4.20 KCAL/MOL
REMARK 922        TOTAL FREE ENERGY PREDICTED BY IDOCK:   -7.70 KCAL/MOL
REMARK 923 INTER-LIGAND FREE ENERGY PREDICTED BY IDOCK:   -7.12 KCAL/MOL
REMARK 924 INTRA-LIGAND FREE ENERGY PREDICTED BY IDOCK:   -0.58 KCAL/MOL
REMARK 927      BINDING AFFINITY PREDICTED BY RF-SCORE:    0.00 PKD
ROOT
HETATM    1  C   UNL     1      -9.558   4.320  66.554  1.00  0.00    -0.200 C  
HETATM    2  O   UNL     1     -10.337   5.198  67.367  1.00  0.00    -0.191 OA 
ENDROOT
BRANCH   2   3
HETATM    3  C   UNL     1      -9.861   6.480  67.468  1.00  0.00    -0.124 A  
HETATM    4  C   UNL     1     -10.519   7.552  66.840  1.00  0.00    -0.385 A  
HETATM    5  C   UNL     1     -10.005   8.839  66.821  1.00  0.00    -0.268 A  
HETATM    6  C   UNL     1      -8.823   9.086  67.504  1.00  0.00    -0.128 A  
HETATM    7  C   UNL     1      -8.209   8.045  68.242  1.00  0.00    -0.123 A  
HETATM    8  C   UNL     1      -8.342  10.387  67.375  1.00  0.00    -0.121 A  
HETATM    9  N   UNL     1      -7.195  10.818  68.050  1.00  0.00    -0.085 NA 
HETATM   10  N   UNL     1      -8.942  11.319  66.624  1.00  0.00    -0.170 NA 
HETATM   11  C   UNL     1      -8.711   6.739  68.221  1.00  0.00    -0.123 A  
HETATM   12  N   UNL     1     -10.650   9.779  66.126  1.00  0.00    -0.039 NA 
HETATM   13  H2  UNL     1      -6.435  10.178  67.814  1.00  0.00     0.000 HD 
HETATM   14  C   UNL     1     -10.090  10.990  66.016  1.00  0.00    -0.247 A  
HETATM   15  H1  UNL     1      -6.843  11.770  67.956  1.00  0.00     0.000 HD 
BRANCH  11  16
HETATM   16  O   UNL     1      -7.945   5.882  68.962  1.00  0.00    -0.096 OA 
HETATM   17  C   UNL     1      -8.330   5.574  70.292  1.00  0.00    -0.110 C  
ENDBRANCH  11  16
BRANCH  14  18
HETATM   18  N   UNL     1     -10.735  11.951  65.276  1.00  0.00    -0.275 NA 
HETATM   19  C   UNL     1     -10.341  12.170  63.901  1.00  0.00    -0.415 C  
BRANCH  18  20
HETATM   20  C   UNL     1     -11.914  12.617  65.804  1.00  0.00    -0.446 C  
BRANCH  20  21
HETATM   21  C   UNL     1     -11.830  14.140  65.629  1.00  0.00    -0.377 C  
BRANCH  21  22
HETATM   22  C   UNL     1     -11.183  14.831  66.829  1.00  0.00    -0.344 C  
BRANCH  22  23
HETATM   23  N   UNL     1     -10.621  16.119  66.479  1.00  0.00    -0.297 N  
HETATM   24  C   UNL     1     -10.640  17.193  67.337  1.00  0.00    -0.297 C  
HETATM   25  H   UNL     1     -10.194  16.233  65.560  1.00  0.00     0.000 HD 
HETATM   26  O   UNL     1     -11.155  17.157  68.451  1.00  0.00    -0.291 OA 
BRANCH  24  27
HETATM   27  C   UNL     1      -9.964  18.455  66.786  1.00  0.00    -0.360 C  
HETATM   28  C   UNL     1      -9.682  19.431  67.913  1.00  0.00    -0.445 C  
HETATM   29  C   UNL     1      -8.602  20.296  67.324  1.00  0.00    -0.425 C  
HETATM   30  C   UNL     1      -7.822  19.317  66.471  1.00  0.00    -0.278 C  
HETATM   31  O   UNL     1      -8.703  18.234  66.134  1.00  0.00    -0.461 OA 
ENDBRANCH  24  27
ENDBRANCH  22  23
ENDBRANCH  21  22
ENDBRANCH  20  21
ENDBRANCH  18  20
ENDBRANCH  14  18
ENDBRANCH   2   3
TORSDOF 8
ENDMDL
MODEL      177
REMARK 921   NORMALIZED FREE ENERGY PREDICTED BY IDOCK:   -4.17 KCAL/MOL
REMARK 922        TOTAL FREE ENERGY PREDICTED BY IDOCK:   -7.65 KCAL/MOL
REMARK 923 INTER-LIGAND FREE ENERGY PREDICTED BY IDOCK:   -6.37 KCAL/MOL
REMARK 924 INTRA-LIGAND FREE ENERGY PREDICTED BY IDOCK:   -1.28 KCAL/MOL
REMARK 927      BINDING AFFINITY PREDICTED BY RF-SCORE:    0.00 PKD
ROOT
HETATM    1  C   UNL     1     -11.945  12.201  69.200  1.00  0.00    -0.255 C  
HETATM    2  O   UNL     1     -12.026  12.518  67.810  1.00  0.00    -0.386 OA 
ENDROOT
BRANCH   2   3
HETATM    3  C   UNL     1     -11.362  11.657  66.974  1.00  0.00    -0.305 A  
HETATM    4  C   UNL     1     -10.690  10.529  67.476  1.00  0.00    -0.326 A  
HETATM    5  C   UNL     1      -9.912   9.704  66.680  1.00  0.00    -0.236 A  
HETATM    6  C   UNL     1      -9.847   9.973  65.320  1.00  0.00    -0.388 A  
HETATM    7  C   UNL     1     -10.612  11.032  64.777  1.00  0.00    -0.350 A  
HETATM    8  C   UNL     1      -8.988   9.138  64.607  1.00  0.00    -0.110 A  
HETATM    9  N   UNL     1      -8.854   9.236  63.217  1.00  0.00    -0.392 NA 
HETATM   10  N   UNL     1      -8.252   8.179  65.183  1.00  0.00    -0.149 NA 
HETATM   11  C   UNL     1     -11.361  11.887  65.594  1.00  0.00    -0.284 A  
HETATM   12  N   UNL     1      -9.236   8.706  67.254  1.00  0.00    -0.138 NA 
HETATM   13  H2  UNL     1      -8.610  10.201  62.994  1.00  0.00     0.000 HD 
HETATM   14  C   UNL     1      -8.398   7.984  66.500  1.00  0.00    -0.121 A  
HETATM   15  H1  UNL     1      -8.226   8.625  62.696  1.00  0.00     0.000 HD 
BRANCH  11  16
HETATM   16  O   UNL     1     -11.986  12.868  64.875  1.00  0.00    -0.347 OA 
HETATM   17  C   UNL     1     -12.119  12.727  63.470  1.00  0.00    -0.559 C  
ENDBRANCH  11  16
BRANCH  14  18
HETATM   18  N   UNL     1      -7.677   6.976  67.094  1.00  0.00    -0.106 NA 
HETATM   19  C   UNL     1      -7.399   5.769  66.348  1.00  0.00    -0.078 C  
BRANCH  18  20
HETATM   20  C   UNL     1      -7.051   7.186  68.389  1.00  0.00    -0.085 C  
BRANCH  20  21
HETATM   21  C   UNL     1      -6.404   5.900  68.920  1.00  0.00    -0.041 C  
BRANCH  21  22
HETATM   22  C   UNL     1      -7.362   5.075  69.779  1.00  0.00    -0.056 C  
BRANCH  22  23
HETATM   23  N   UNL     1      -8.497   5.853  70.230  1.00  0.00    -0.125 N  
HETATM   24  C   UNL     1      -8.718   6.138  71.557  1.00  0.00    -0.135 C  
HETATM   25  H   UNL     1      -9.157   6.203  69.537  1.00  0.00     0.000 HD 
HETATM   26  O   UNL     1      -7.993   5.738  72.463  1.00  0.00    -0.102 OA 
BRANCH  24  27
HETATM   27  C   UNL     1      -9.959   7.003  71.820  1.00  0.00    -0.176 C  
HETATM   28  C   UNL     1      -9.938   8.229  70.927  1.00  0.00    -0.223 C  
HETATM   29  C   UNL     1     -11.386   8.641  70.916  1.00  0.00    -0.314 C  
HETATM   30  C   UNL     1     -12.108   7.311  70.974  1.00  0.00    -0.324 C  
HETATM   31  O   UNL     1     -11.216   6.354  71.567  1.00  0.00    -0.261 OA 
ENDBRANCH  24  27
ENDBRANCH  22  23
ENDBRANCH  21  22
ENDBRANCH  20  21
ENDBRANCH  18  20
ENDBRANCH  14  18
ENDBRANCH   2   3
TORSDOF 8
ENDMDL
MODEL      178
REMARK 921   NORMALIZED FREE ENERGY PREDICTED BY IDOCK:   -4.16 KCAL/MOL
REMARK 922        TOTAL FREE ENERGY PREDICTED BY IDOCK:   -7.64 KCAL/MOL
REMARK 923 INTER-LIGAND FREE ENERGY PREDICTED BY IDOCK:   -6.34 KCAL/MOL
REMARK 924 INTRA-LIGAND FREE ENERGY PREDICTED BY IDOCK:   -1.31 KCAL/MOL
REMARK 927      BINDING AFFINITY PREDICTED BY RF-SCORE:    0.00 PKD
ROOT
HETATM    1  C   UNL     1     -10.748  20.179  65.617  1.00  0.00    -0.137 C  
HETATM    2  O   UNL     1     -10.571  19.729  66.960  1.00  0.00    -0.458 OA 
ENDROOT
BRANCH   2   3
HETATM    3  C   UNL     1     -10.011  18.484  67.092  1.00  0.00    -0.336 A  
HETATM    4  C   UNL     1     -10.424  17.412  66.281  1.00  0.00    -0.276 A  
HETATM    5  C   UNL     1      -9.967  16.116  66.463  1.00  0.00    -0.280 A  
HETATM    6  C   UNL     1      -9.017  15.885  67.448  1.00  0.00    -0.203 A  
HETATM    7  C   UNL     1      -8.501  16.972  68.194  1.00  0.00    -0.227 A  
HETATM    8  C   UNL     1      -8.666  14.546  67.610  1.00  0.00    -0.183 A  
HETATM    9  N   UNL     1      -7.678  14.149  68.517  1.00  0.00    -0.133 NA 
HETATM   10  N   UNL     1      -9.222  13.552  66.905  1.00  0.00    -0.245 NA 
HETATM   11  C   UNL     1      -8.998  18.271  68.034  1.00  0.00    -0.290 A  
HETATM   12  N   UNL     1     -10.478  15.142  65.707  1.00  0.00    -0.315 NA 
HETATM   13  H2  UNL     1      -7.929  14.520  69.434  1.00  0.00     0.000 HD 
HETATM   14  C   UNL     1     -10.118  13.877  65.964  1.00  0.00    -0.313 A  
HETATM   15  H1  UNL     1      -7.421  13.169  68.635  1.00  0.00     0.000 HD 
BRANCH  11  16
HETATM   16  O   UNL     1      -8.397  19.160  68.880  1.00  0.00    -0.352 OA 
HETATM   17  C   UNL     1      -7.153  19.738  68.517  1.00  0.00    -0.318 C  
ENDBRANCH  11  16
BRANCH  14  18
HETATM   18  N   UNL     1     -10.666  12.869  65.208  1.00  0.00    -0.289 NA 
HETATM   19  C   UNL     1     -10.035  12.495  63.961  1.00  0.00    -0.198 C  
BRANCH  18  20
HETATM   20  C   UNL     1     -11.759  12.069  65.733  1.00  0.00    -0.245 C  
BRANCH  20  21
HETATM   21  C   UNL     1     -11.668  11.917  67.258  1.00  0.00    -0.319 C  
BRANCH  21  22
HETATM   22  C   UNL     1     -10.962  10.627  67.675  1.00  0.00    -0.310 C  
BRANCH  22  23
HETATM   23  N   UNL     1      -9.538  10.677  67.420  1.00  0.00    -0.157 N  
HETATM   24  C   UNL     1      -8.609  10.179  68.303  1.00  0.00    -0.116 C  
HETATM   25  H   UNL     1      -9.210  11.099  66.551  1.00  0.00     0.000 HD 
HETATM   26  O   UNL     1      -8.907   9.679  69.384  1.00  0.00    -0.153 OA 
BRANCH  24  27
HETATM   27  C   UNL     1      -7.155  10.302  67.829  1.00  0.00    -0.085 C  
HETATM   28  C   UNL     1      -7.072  10.055  66.334  1.00  0.00    -0.102 C  
HETATM   29  C   UNL     1      -5.767  10.713  65.974  1.00  0.00    -0.122 C  
HETATM   30  C   UNL     1      -5.724  11.898  66.916  1.00  0.00    -0.114 C  
HETATM   31  O   UNL     1      -6.551  11.586  68.049  1.00  0.00    -0.056 OA 
ENDBRANCH  24  27
ENDBRANCH  22  23
ENDBRANCH  21  22
ENDBRANCH  20  21
ENDBRANCH  18  20
ENDBRANCH  14  18
ENDBRANCH   2   3
TORSDOF 8
ENDMDL
MODEL      179
REMARK 921   NORMALIZED FREE ENERGY PREDICTED BY IDOCK:   -4.15 KCAL/MOL
REMARK 922        TOTAL FREE ENERGY PREDICTED BY IDOCK:   -7.62 KCAL/MOL
REMARK 923 INTER-LIGAND FREE ENERGY PREDICTED BY IDOCK:   -6.01 KCAL/MOL
REMARK 924 INTRA-LIGAND FREE ENERGY PREDICTED BY IDOCK:   -1.62 KCAL/MOL
REMARK 927      BINDING AFFINITY PREDICTED BY RF-SCORE:    0.00 PKD
ROOT
HETATM    1  C   UNL     1     -10.082   4.501  65.919  1.00  0.00    -0.258 C  
HETATM    2  O   UNL     1     -10.007   4.370  67.339  1.00  0.00    -0.170 OA 
ENDROOT
BRANCH   2   3
HETATM    3  C   UNL     1      -9.598   5.493  68.010  1.00  0.00    -0.125 A  
HETATM    4  C   UNL     1     -10.507   6.513  68.342  1.00  0.00    -0.258 A  
HETATM    5  C   UNL     1     -10.113   7.712  68.914  1.00  0.00    -0.197 A  
HETATM    6  C   UNL     1      -8.771   7.883  69.225  1.00  0.00    -0.138 A  
HETATM    7  C   UNL     1      -7.860   6.821  69.008  1.00  0.00    -0.111 A  
HETATM    8  C   UNL     1      -8.450   9.141  69.731  1.00  0.00    -0.139 A  
HETATM    9  N   UNL     1      -7.154   9.457  70.151  1.00  0.00    -0.069 NA 
HETATM   10  N   UNL     1      -9.348  10.125  69.872  1.00  0.00    -0.163 NA 
HETATM   11  C   UNL     1      -8.259   5.630  68.391  1.00  0.00    -0.103 A  
HETATM   12  N   UNL     1     -11.029   8.661  69.116  1.00  0.00    -0.025 NA 
HETATM   13  H2  UNL     1      -6.518   9.259  69.378  1.00  0.00     0.000 HD 
HETATM   14  C   UNL     1     -10.624   9.858  69.561  1.00  0.00    -0.242 A  
HETATM   15  H1  UNL     1      -6.920  10.377  70.521  1.00  0.00     0.000 HD 
BRANCH  11  16
HETATM   16  O   UNL     1      -7.218   4.757  68.236  1.00  0.00    -0.063 OA 
HETATM   17  C   UNL     1      -5.946   5.250  67.843  1.00  0.00    -0.022 C  
ENDBRANCH  11  16
BRANCH  14  18
HETATM   18  N   UNL     1     -11.560  10.847  69.740  1.00  0.00    -0.292 NA 
HETATM   19  C   UNL     1     -11.289  12.178  69.241  1.00  0.00    -0.266 C  
BRANCH  18  20
HETATM   20  C   UNL     1     -12.877  10.526  70.263  1.00  0.00    -0.129 C  
BRANCH  20  21
HETATM   21  C   UNL     1     -12.879  10.474  71.797  1.00  0.00    -0.559 C  
BRANCH  21  22
HETATM   22  C   UNL     1     -13.558   9.216  72.339  1.00  0.00    -0.483 C  
BRANCH  22  23
HETATM   23  N   UNL     1     -12.599   8.246  72.825  1.00  0.00    -0.609 N  
HETATM   24  C   UNL     1     -12.268   7.114  72.117  1.00  0.00    -0.218 C  
HETATM   25  H   UNL     1     -12.152   8.408  73.727  1.00  0.00     0.000 HD 
HETATM   26  O   UNL     1     -12.773   6.823  71.037  1.00  0.00    -0.321 OA 
BRANCH  24  27
HETATM   27  C   UNL     1     -11.208   6.233  72.792  1.00  0.00    -0.237 C  
HETATM   28  C   UNL     1     -10.405   5.487  71.743  1.00  0.00    -0.272 C  
HETATM   29  C   UNL     1      -9.149   5.134  72.494  1.00  0.00    -0.142 C  
HETATM   30  C   UNL     1      -8.962   6.329  73.406  1.00  0.00    -0.124 C  
HETATM   31  O   UNL     1     -10.247   6.943  73.591  1.00  0.00    -0.269 OA 
ENDBRANCH  24  27
ENDBRANCH  22  23
ENDBRANCH  21  22
ENDBRANCH  20  21
ENDBRANCH  18  20
ENDBRANCH  14  18
ENDBRANCH   2   3
TORSDOF 8
ENDMDL
MODEL      180
REMARK 921   NORMALIZED FREE ENERGY PREDICTED BY IDOCK:   -4.13 KCAL/MOL
REMARK 922        TOTAL FREE ENERGY PREDICTED BY IDOCK:   -7.59 KCAL/MOL
REMARK 923 INTER-LIGAND FREE ENERGY PREDICTED BY IDOCK:   -5.19 KCAL/MOL
REMARK 924 INTRA-LIGAND FREE ENERGY PREDICTED BY IDOCK:   -2.41 KCAL/MOL
REMARK 927      BINDING AFFINITY PREDICTED BY RF-SCORE:    0.00 PKD
ROOT
HETATM    1  C   UNL     1     -10.468  13.147  66.846  1.00  0.00    -0.256 C  
HETATM    2  O   UNL     1     -10.845  11.862  66.350  1.00  0.00    -0.256 OA 
ENDROOT
BRANCH   2   3
HETATM    3  C   UNL     1     -10.238  10.797  66.965  1.00  0.00    -0.217 A  
HETATM    4  C   UNL     1     -10.857  10.127  68.035  1.00  0.00    -0.320 A  
HETATM    5  C   UNL     1     -10.227   9.125  68.756  1.00  0.00    -0.210 A  
HETATM    6  C   UNL     1      -8.957   8.729  68.362  1.00  0.00    -0.141 A  
HETATM    7  C   UNL     1      -8.366   9.310  67.214  1.00  0.00    -0.125 A  
HETATM    8  C   UNL     1      -8.370   7.768  69.183  1.00  0.00    -0.134 A  
HETATM    9  N   UNL     1      -7.117   7.217  68.891  1.00  0.00    -0.081 NA 
HETATM   10  N   UNL     1      -8.959   7.287  70.286  1.00  0.00    -0.151 NA 
HETATM   11  C   UNL     1      -8.990  10.350  66.517  1.00  0.00    -0.145 A  
HETATM   12  N   UNL     1     -10.853   8.602  69.813  1.00  0.00    -0.217 NA 
HETATM   13  H2  UNL     1      -6.455   7.986  68.787  1.00  0.00     0.000 HD 
HETATM   14  C   UNL     1     -10.194   7.717  70.573  1.00  0.00    -0.201 A  
HETATM   15  H1  UNL     1      -6.689   6.514  69.492  1.00  0.00     0.000 HD 
BRANCH  11  16
HETATM   16  O   UNL     1      -8.232  10.796  65.471  1.00  0.00    -0.159 OA 
HETATM   17  C   UNL     1      -7.426   9.877  64.751  1.00  0.00    -0.136 C  
ENDBRANCH  11  16
BRANCH  14  18
HETATM   18  N   UNL     1     -10.824   7.201  71.681  1.00  0.00    -0.224 NA 
HETATM   19  C   UNL     1     -11.081   8.061  72.815  1.00  0.00    -0.381 C  
BRANCH  18  20
HETATM   20  C   UNL     1     -11.383   5.860  71.649  1.00  0.00    -0.207 C  
BRANCH  20  21
HETATM   21  C   UNL     1     -10.567   4.886  72.510  1.00  0.00    -0.271 C  
BRANCH  21  22
HETATM   22  C   UNL     1      -9.661   3.983  71.672  1.00  0.00    -0.172 C  
BRANCH  22  23
HETATM   23  N   UNL     1      -9.883   4.156  70.251  1.00  0.00    -0.204 N  
HETATM   24  C   UNL     1      -8.855   4.171  69.339  1.00  0.00    -0.094 C  
HETATM   25  H   UNL     1     -10.839   4.272  69.915  1.00  0.00     0.000 HD 
HETATM   26  O   UNL     1      -7.673   4.066  69.652  1.00  0.00    -0.052 OA 
BRANCH  24  27
HETATM   27  C   UNL     1      -9.306   4.334  67.881  1.00  0.00    -0.156 C  
HETATM   28  C   UNL     1     -10.524   5.236  67.809  1.00  0.00    -0.164 C  
HETATM   29  C   UNL     1     -10.494   5.700  66.378  1.00  0.00    -0.256 C  
HETATM   30  C   UNL     1      -9.009   5.799  66.093  1.00  0.00    -0.149 C  
HETATM   31  O   UNL     1      -8.330   4.921  67.005  1.00  0.00    -0.107 OA 
ENDBRANCH  24  27
ENDBRANCH  22  23
ENDBRANCH  21  22
ENDBRANCH  20  21
ENDBRANCH  18  20
ENDBRANCH  14  18
ENDBRANCH   2   3
TORSDOF 8
ENDMDL
MODEL      181
REMARK 921   NORMALIZED FREE ENERGY PREDICTED BY IDOCK:   -4.12 KCAL/MOL
REMARK 922        TOTAL FREE ENERGY PREDICTED BY IDOCK:   -7.59 KCAL/MOL
REMARK 923 INTER-LIGAND FREE ENERGY PREDICTED BY IDOCK:   -6.96 KCAL/MOL
REMARK 924 INTRA-LIGAND FREE ENERGY PREDICTED BY IDOCK:   -0.63 KCAL/MOL
REMARK 927      BINDING AFFINITY PREDICTED BY RF-SCORE:    0.00 PKD
ROOT
HETATM    1  C   UNL     1     -10.272  20.077  65.912  1.00  0.00    -0.421 C  
HETATM    2  O   UNL     1     -10.818  19.461  67.079  1.00  0.00    -0.476 OA 
ENDROOT
BRANCH   2   3
HETATM    3  C   UNL     1     -10.184  18.316  67.487  1.00  0.00    -0.369 A  
HETATM    4  C   UNL     1     -10.643  17.048  67.087  1.00  0.00    -0.245 A  
HETATM    5  C   UNL     1     -10.103  15.868  67.572  1.00  0.00    -0.247 A  
HETATM    6  C   UNL     1      -9.024  15.946  68.442  1.00  0.00    -0.189 A  
HETATM    7  C   UNL     1      -8.472  17.210  68.762  1.00  0.00    -0.225 A  
HETATM    8  C   UNL     1      -8.589  14.718  68.935  1.00  0.00    -0.160 A  
HETATM    9  N   UNL     1      -7.474  14.615  69.774  1.00  0.00    -0.389 NA 
HETATM   10  N   UNL     1      -9.180  13.555  68.632  1.00  0.00    -0.089 NA 
HETATM   11  C   UNL     1      -9.050  18.399  68.303  1.00  0.00    -0.312 A  
HETATM   12  N   UNL     1     -10.657  14.709  67.208  1.00  0.00    -0.280 NA 
HETATM   13  H2  UNL     1      -7.623  15.236  70.569  1.00  0.00     0.000 HD 
HETATM   14  C   UNL     1     -10.204  13.580  67.769  1.00  0.00    -0.242 A  
HETATM   15  H1  UNL     1      -7.155  13.716  70.134  1.00  0.00     0.000 HD 
BRANCH  11  16
HETATM   16  O   UNL     1      -8.390  19.503  68.764  1.00  0.00    -0.362 OA 
HETATM   17  C   UNL     1      -6.979  19.581  68.630  1.00  0.00    -0.322 C  
ENDBRANCH  11  16
BRANCH  14  18
HETATM   18  N   UNL     1     -10.794  12.389  67.420  1.00  0.00    -0.231 NA 
HETATM   19  C   UNL     1     -11.013  12.088  66.022  1.00  0.00    -0.304 C  
BRANCH  18  20
HETATM   20  C   UNL     1     -11.033  11.366  68.425  1.00  0.00    -0.215 C  
BRANCH  20  21
HETATM   21  C   UNL     1     -11.002   9.957  67.818  1.00  0.00    -0.278 C  
BRANCH  21  22
HETATM   22  C   UNL     1     -10.356   8.933  68.752  1.00  0.00    -0.211 C  
BRANCH  22  23
HETATM   23  N   UNL     1     -10.234   7.631  68.131  1.00  0.00    -0.190 N  
HETATM   24  C   UNL     1      -9.084   7.216  67.502  1.00  0.00    -0.123 C  
HETATM   25  H   UNL     1     -11.032   6.996  68.162  1.00  0.00     0.000 HD 
HETATM   26  O   UNL     1      -8.084   7.919  67.392  1.00  0.00    -0.119 OA 
BRANCH  24  27
HETATM   27  C   UNL     1      -9.150   5.790  66.938  1.00  0.00    -0.118 C  
HETATM   28  C   UNL     1     -10.574   5.455  66.534  1.00  0.00    -0.353 C  
HETATM   29  C   UNL     1     -10.372   4.322  65.565  1.00  0.00    -0.210 C  
HETATM   30  C   UNL     1      -9.074   4.698  64.881  1.00  0.00    -0.154 C  
HETATM   31  O   UNL     1      -8.346   5.560  65.771  1.00  0.00    -0.118 OA 
ENDBRANCH  24  27
ENDBRANCH  22  23
ENDBRANCH  21  22
ENDBRANCH  20  21
ENDBRANCH  18  20
ENDBRANCH  14  18
ENDBRANCH   2   3
TORSDOF 8
ENDMDL
MODEL      182
REMARK 921   NORMALIZED FREE ENERGY PREDICTED BY IDOCK:   -4.11 KCAL/MOL
REMARK 922        TOTAL FREE ENERGY PREDICTED BY IDOCK:   -7.57 KCAL/MOL
REMARK 923 INTER-LIGAND FREE ENERGY PREDICTED BY IDOCK:   -6.16 KCAL/MOL
REMARK 924 INTRA-LIGAND FREE ENERGY PREDICTED BY IDOCK:   -1.40 KCAL/MOL
REMARK 927      BINDING AFFINITY PREDICTED BY RF-SCORE:    0.00 PKD
ROOT
HETATM    1  C   UNL     1     -12.295   8.459  72.559  1.00  0.00    -0.296 C  
HETATM    2  O   UNL     1     -11.254   9.348  72.154  1.00  0.00    -0.177 OA 
ENDROOT
BRANCH   2   3
HETATM    3  C   UNL     1     -11.407   9.899  70.908  1.00  0.00    -0.370 A  
HETATM    4  C   UNL     1     -10.755   9.356  69.787  1.00  0.00    -0.250 A  
HETATM    5  C   UNL     1     -10.790   9.953  68.537  1.00  0.00    -0.217 A  
HETATM    6  C   UNL     1     -11.553  11.101  68.377  1.00  0.00    -0.376 A  
HETATM    7  C   UNL     1     -12.312  11.596  69.464  1.00  0.00    -0.152 A  
HETATM    8  C   UNL     1     -11.477  11.674  67.109  1.00  0.00    -0.271 A  
HETATM    9  N   UNL     1     -12.232  12.800  66.764  1.00  0.00    -0.459 NA 
HETATM   10  N   UNL     1     -10.704  11.187  66.130  1.00  0.00    -0.252 NA 
HETATM   11  C   UNL     1     -12.238  11.012  70.735  1.00  0.00    -0.380 A  
HETATM   12  N   UNL     1     -10.070   9.418  67.548  1.00  0.00    -0.200 NA 
HETATM   13  H2  UNL     1     -12.036  13.530  67.449  1.00  0.00     0.000 HD 
HETATM   14  C   UNL     1     -10.018  10.063  66.375  1.00  0.00    -0.237 A  
HETATM   15  H1  UNL     1     -12.176  13.218  65.836  1.00  0.00     0.000 HD 
BRANCH  11  16
HETATM   16  O   UNL     1     -13.012  11.669  71.649  1.00  0.00    -0.432 OA 
HETATM   17  C   UNL     1     -12.894  13.077  71.780  1.00  0.00    -0.249 C  
ENDBRANCH  11  16
BRANCH  14  18
HETATM   18  N   UNL     1      -9.252   9.532  65.364  1.00  0.00    -0.231 NA 
HETATM   19  C   UNL     1      -8.712  10.409  64.349  1.00  0.00    -0.198 C  
BRANCH  18  20
HETATM   20  C   UNL     1      -8.842   8.138  65.409  1.00  0.00    -0.044 C  
BRANCH  20  21
HETATM   21  C   UNL     1      -7.365   7.995  65.803  1.00  0.00    -0.079 C  
BRANCH  21  22
HETATM   22  C   UNL     1      -7.174   7.868  67.315  1.00  0.00    -0.090 C  
BRANCH  22  23
HETATM   23  N   UNL     1      -8.268   7.160  67.945  1.00  0.00    -0.118 N  
HETATM   24  C   UNL     1      -8.260   5.797  68.128  1.00  0.00    -0.104 C  
HETATM   25  H   UNL     1      -9.077   7.692  68.266  1.00  0.00     0.000 HD 
HETATM   26  O   UNL     1      -7.344   5.072  67.752  1.00  0.00    -0.073 OA 
BRANCH  24  27
HETATM   27  C   UNL     1      -9.501   5.247  68.845  1.00  0.00    -0.128 C  
HETATM   28  C   UNL     1      -9.298   5.294  70.348  1.00  0.00    -0.208 C  
HETATM   29  C   UNL     1     -10.711   5.245  70.862  1.00  0.00    -0.189 C  
HETATM   30  C   UNL     1     -11.473   6.027  69.811  1.00  0.00    -0.137 C  
HETATM   31  O   UNL     1     -10.718   5.966  68.590  1.00  0.00    -0.248 OA 
ENDBRANCH  24  27
ENDBRANCH  22  23
ENDBRANCH  21  22
ENDBRANCH  20  21
ENDBRANCH  18  20
ENDBRANCH  14  18
ENDBRANCH   2   3
TORSDOF 8
ENDMDL
MODEL      183
REMARK 921   NORMALIZED FREE ENERGY PREDICTED BY IDOCK:   -4.10 KCAL/MOL
REMARK 922        TOTAL FREE ENERGY PREDICTED BY IDOCK:   -7.56 KCAL/MOL
REMARK 923 INTER-LIGAND FREE ENERGY PREDICTED BY IDOCK:   -5.85 KCAL/MOL
REMARK 924 INTRA-LIGAND FREE ENERGY PREDICTED BY IDOCK:   -1.71 KCAL/MOL
REMARK 927      BINDING AFFINITY PREDICTED BY RF-SCORE:    0.00 PKD
ROOT
HETATM    1  C   UNL     1     -12.546  11.874  71.255  1.00  0.00    -0.277 C  
HETATM    2  O   UNL     1     -12.520  12.200  69.865  1.00  0.00    -0.085 OA 
ENDROOT
BRANCH   2   3
HETATM    3  C   UNL     1     -11.604  11.505  69.118  1.00  0.00    -0.316 A  
HETATM    4  C   UNL     1     -10.960  10.365  69.633  1.00  0.00    -0.325 A  
HETATM    5  C   UNL     1      -9.946   9.708  68.955  1.00  0.00    -0.185 A  
HETATM    6  C   UNL     1      -9.598  10.160  67.691  1.00  0.00    -0.170 A  
HETATM    7  C   UNL     1     -10.315  11.232  67.107  1.00  0.00    -0.244 A  
HETATM    8  C   UNL     1      -8.524   9.487  67.111  1.00  0.00    -0.131 A  
HETATM    9  N   UNL     1      -8.086   9.779  65.815  1.00  0.00    -0.116 NA 
HETATM   10  N   UNL     1      -7.851   8.509  67.731  1.00  0.00    -0.102 NA 
HETATM   11  C   UNL     1     -11.309  11.918  67.814  1.00  0.00    -0.292 A  
HETATM   12  N   UNL     1      -9.328   8.687  69.555  1.00  0.00    -0.153 NA 
HETATM   13  H2  UNL     1      -7.889  10.780  65.769  1.00  0.00     0.000 HD 
HETATM   14  C   UNL     1      -8.275   8.129  68.944  1.00  0.00    -0.124 A  
HETATM   15  H1  UNL     1      -7.300   9.287  65.391  1.00  0.00     0.000 HD 
BRANCH  11  16
HETATM   16  O   UNL     1     -11.843  12.944  67.086  1.00  0.00    -0.365 OA 
HETATM   17  C   UNL     1     -12.201  12.726  65.731  1.00  0.00    -0.408 C  
ENDBRANCH  11  16
BRANCH  14  18
HETATM   18  N   UNL     1      -7.617   7.100  69.572  1.00  0.00    -0.098 NA 
HETATM   19  C   UNL     1      -7.258   7.234  70.967  1.00  0.00    -0.073 C  
BRANCH  18  20
HETATM   20  C   UNL     1      -7.439   5.823  68.900  1.00  0.00    -0.085 C  
BRANCH  20  21
HETATM   21  C   UNL     1      -8.075   4.673  69.691  1.00  0.00    -0.064 C  
BRANCH  21  22
HETATM   22  C   UNL     1      -9.569   4.521  69.403  1.00  0.00    -0.194 C  
BRANCH  22  23
HETATM   23  N   UNL     1     -10.375   5.399  70.226  1.00  0.00    -0.271 N  
HETATM   24  C   UNL     1     -10.764   5.065  71.501  1.00  0.00    -0.043 C  
HETATM   25  H   UNL     1     -10.664   6.299  69.844  1.00  0.00     0.000 HD 
HETATM   26  O   UNL     1     -10.486   3.995  72.033  1.00  0.00    -0.105 OA 
BRANCH  24  27
HETATM   27  C   UNL     1     -11.586   6.147  72.215  1.00  0.00    -0.313 C  
HETATM   28  C   UNL     1     -10.734   7.380  72.449  1.00  0.00    -0.295 C  
HETATM   29  C   UNL     1     -11.771   8.454  72.637  1.00  0.00    -0.364 C  
HETATM   30  C   UNL     1     -12.873   8.019  71.693  1.00  0.00    -0.329 C  
HETATM   31  O   UNL     1     -12.745   6.602  71.497  1.00  0.00    -0.323 OA 
ENDBRANCH  24  27
ENDBRANCH  22  23
ENDBRANCH  21  22
ENDBRANCH  20  21
ENDBRANCH  18  20
ENDBRANCH  14  18
ENDBRANCH   2   3
TORSDOF 8
ENDMDL
MODEL      184
REMARK 921   NORMALIZED FREE ENERGY PREDICTED BY IDOCK:   -4.10 KCAL/MOL
REMARK 922        TOTAL FREE ENERGY PREDICTED BY IDOCK:   -7.55 KCAL/MOL
REMARK 923 INTER-LIGAND FREE ENERGY PREDICTED BY IDOCK:   -6.76 KCAL/MOL
REMARK 924 INTRA-LIGAND FREE ENERGY PREDICTED BY IDOCK:   -0.78 KCAL/MOL
REMARK 927      BINDING AFFINITY PREDICTED BY RF-SCORE:    0.00 PKD
ROOT
HETATM    1  C   UNL     1      -6.947  18.459  68.079  1.00  0.00    -0.226 C  
HETATM    2  O   UNL     1      -8.206  18.524  68.750  1.00  0.00    -0.312 OA 
ENDROOT
BRANCH   2   3
HETATM    3  C   UNL     1      -9.092  17.528  68.429  1.00  0.00    -0.276 A  
HETATM    4  C   UNL     1      -8.831  16.187  68.758  1.00  0.00    -0.233 A  
HETATM    5  C   UNL     1      -9.644  15.142  68.348  1.00  0.00    -0.212 A  
HETATM    6  C   UNL     1     -10.794  15.445  67.635  1.00  0.00    -0.304 A  
HETATM    7  C   UNL     1     -11.137  16.797  67.396  1.00  0.00     0.019 A  
HETATM    8  C   UNL     1     -11.516  14.333  67.202  1.00  0.00    -0.359 A  
HETATM    9  N   UNL     1     -12.732  14.464  66.523  1.00  0.00    -0.386 NA 
HETATM   10  N   UNL     1     -11.118  13.072  67.418  1.00  0.00    -0.263 NA 
HETATM   11  C   UNL     1     -10.289  17.844  67.776  1.00  0.00    -0.387 A  
HETATM   12  N   UNL     1      -9.274  13.890  68.630  1.00  0.00    -0.145 NA 
HETATM   13  H2  UNL     1     -12.576  15.069  65.716  1.00  0.00     0.000 HD 
HETATM   14  C   UNL     1     -10.002  12.882  68.133  1.00  0.00    -0.234 A  
HETATM   15  H1  UNL     1     -13.259  13.651  66.207  1.00  0.00     0.000 HD 
BRANCH  11  16
HETATM   16  O   UNL     1     -10.785  19.065  67.412  1.00  0.00    -0.461 OA 
HETATM   17  C   UNL     1     -10.378  19.646  66.184  1.00  0.00    -0.530 C  
ENDBRANCH  11  16
BRANCH  14  18
HETATM   18  N   UNL     1      -9.607  11.592  68.394  1.00  0.00    -0.192 NA 
HETATM   19  C   UNL     1      -8.202  11.306  68.586  1.00  0.00    -0.146 C  
BRANCH  18  20
HETATM   20  C   UNL     1     -10.596  10.559  68.651  1.00  0.00    -0.200 C  
BRANCH  20  21
HETATM   21  C   UNL     1     -11.405  10.852  69.922  1.00  0.00    -0.381 C  
BRANCH  21  22
HETATM   22  C   UNL     1     -11.321   9.718  70.943  1.00  0.00    -0.365 C  
BRANCH  22  23
HETATM   23  N   UNL     1     -10.460   8.643  70.495  1.00  0.00    -0.200 N  
HETATM   24  C   UNL     1      -9.297   8.308  71.145  1.00  0.00    -0.165 C  
HETATM   25  H   UNL     1     -10.728   8.115  69.665  1.00  0.00     0.000 HD 
HETATM   26  O   UNL     1      -8.882   8.903  72.135  1.00  0.00    -0.381 OA 
BRANCH  24  27
HETATM   27  C   UNL     1      -8.547   7.119  70.528  1.00  0.00    -0.144 C  
HETATM   28  C   UNL     1      -7.583   7.607  69.463  1.00  0.00    -0.098 C  
HETATM   29  C   UNL     1      -6.609   6.464  69.365  1.00  0.00    -0.044 C  
HETATM   30  C   UNL     1      -6.540   5.966  70.794  1.00  0.00    -0.044 C  
HETATM   31  O   UNL     1      -7.757   6.353  71.451  1.00  0.00    -0.096 OA 
ENDBRANCH  24  27
ENDBRANCH  22  23
ENDBRANCH  21  22
ENDBRANCH  20  21
ENDBRANCH  18  20
ENDBRANCH  14  18
ENDBRANCH   2   3
TORSDOF 8
ENDMDL
MODEL      185
REMARK 921   NORMALIZED FREE ENERGY PREDICTED BY IDOCK:   -4.09 KCAL/MOL
REMARK 922        TOTAL FREE ENERGY PREDICTED BY IDOCK:   -7.54 KCAL/MOL
REMARK 923 INTER-LIGAND FREE ENERGY PREDICTED BY IDOCK:   -6.85 KCAL/MOL
REMARK 924 INTRA-LIGAND FREE ENERGY PREDICTED BY IDOCK:   -0.68 KCAL/MOL
REMARK 927      BINDING AFFINITY PREDICTED BY RF-SCORE:    0.00 PKD
ROOT
HETATM    1  C   UNL     1      -6.539  18.235  68.023  1.00  0.00    -0.202 C  
HETATM    2  O   UNL     1      -7.907  18.178  68.427  1.00  0.00    -0.278 OA 
ENDROOT
BRANCH   2   3
HETATM    3  C   UNL     1      -8.713  17.382  67.654  1.00  0.00    -0.221 A  
HETATM    4  C   UNL     1      -8.845  16.007  67.916  1.00  0.00    -0.180 A  
HETATM    5  C   UNL     1      -9.555  15.151  67.089  1.00  0.00    -0.218 A  
HETATM    6  C   UNL     1     -10.211  15.690  65.992  1.00  0.00    -0.354 A  
HETATM    7  C   UNL     1     -10.188  17.089  65.778  1.00  0.00    -0.262 A  
HETATM    8  C   UNL     1     -10.841  14.751  65.176  1.00  0.00    -0.404 A  
HETATM    9  N   UNL     1     -11.597  15.133  64.063  1.00  0.00    -0.731 NA 
HETATM   10  N   UNL     1     -10.789  13.432  65.403  1.00  0.00    -0.288 NA 
HETATM   11  C   UNL     1      -9.435  17.942  66.593  1.00  0.00    -0.298 A  
HETATM   12  N   UNL     1      -9.556  13.845  67.364  1.00  0.00    -0.229 NA 
HETATM   13  H2  UNL     1     -11.008  15.717  63.470  1.00  0.00     0.000 HD 
HETATM   14  C   UNL     1     -10.146  13.010  66.499  1.00  0.00    -0.270 A  
HETATM   15  H1  UNL     1     -12.058  14.446  63.467  1.00  0.00     0.000 HD 
BRANCH  11  16
HETATM   16  O   UNL     1      -9.515  19.245  66.188  1.00  0.00    -0.346 OA 
HETATM   17  C   UNL     1     -10.218  20.183  66.986  1.00  0.00    -0.419 C  
ENDBRANCH  11  16
BRANCH  14  18
HETATM   18  N   UNL     1     -10.122  11.661  66.763  1.00  0.00    -0.210 NA 
HETATM   19  C   UNL     1     -11.352  10.984  67.110  1.00  0.00    -0.136 C  
BRANCH  18  20
HETATM   20  C   UNL     1      -8.913  10.889  66.526  1.00  0.00    -0.168 C  
BRANCH  20  21
HETATM   21  C   UNL     1      -8.569  10.822  65.031  1.00  0.00    -0.115 C  
BRANCH  21  22
HETATM   22  C   UNL     1      -8.989   9.497  64.394  1.00  0.00    -0.212 C  
BRANCH  22  23
HETATM   23  N   UNL     1      -9.277   8.482  65.386  1.00  0.00    -0.427 N  
HETATM   24  C   UNL     1      -8.346   7.553  65.786  1.00  0.00    -0.142 C  
HETATM   25  H   UNL     1     -10.207   8.455  65.804  1.00  0.00     0.000 HD 
HETATM   26  O   UNL     1      -7.212   7.491  65.321  1.00  0.00    -0.062 OA 
BRANCH  24  27
HETATM   27  C   UNL     1      -8.842   6.587  66.870  1.00  0.00    -0.120 C  
HETATM   28  C   UNL     1      -9.537   5.399  66.231  1.00  0.00    -0.175 C  
HETATM   29  C   UNL     1      -9.469   4.365  67.323  1.00  0.00    -0.197 C  
HETATM   30  C   UNL     1      -8.136   4.662  67.978  1.00  0.00    -0.088 C  
HETATM   31  O   UNL     1      -7.814   6.036  67.709  1.00  0.00    -0.102 OA 
ENDBRANCH  24  27
ENDBRANCH  22  23
ENDBRANCH  21  22
ENDBRANCH  20  21
ENDBRANCH  18  20
ENDBRANCH  14  18
ENDBRANCH   2   3
TORSDOF 8
ENDMDL
MODEL      186
REMARK 921   NORMALIZED FREE ENERGY PREDICTED BY IDOCK:   -4.08 KCAL/MOL
REMARK 922        TOTAL FREE ENERGY PREDICTED BY IDOCK:   -7.53 KCAL/MOL
REMARK 923 INTER-LIGAND FREE ENERGY PREDICTED BY IDOCK:   -6.71 KCAL/MOL
REMARK 924 INTRA-LIGAND FREE ENERGY PREDICTED BY IDOCK:   -0.82 KCAL/MOL
REMARK 927      BINDING AFFINITY PREDICTED BY RF-SCORE:    0.00 PKD
ROOT
HETATM    1  C   UNL     1     -13.187  12.138  72.073  1.00  0.00    -0.391 C  
HETATM    2  O   UNL     1     -13.481  13.204  71.169  1.00  0.00    -0.052 OA 
ENDROOT
BRANCH   2   3
HETATM    3  C   UNL     1     -12.418  13.655  70.431  1.00  0.00    -0.294 A  
HETATM    4  C   UNL     1     -11.694  12.789  69.593  1.00  0.00    -0.372 A  
HETATM    5  C   UNL     1     -10.546  13.179  68.923  1.00  0.00    -0.131 A  
HETATM    6  C   UNL     1     -10.132  14.499  69.041  1.00  0.00    -0.187 A  
HETATM    7  C   UNL     1     -10.914  15.415  69.783  1.00  0.00    -0.294 A  
HETATM    8  C   UNL     1      -8.932  14.788  68.393  1.00  0.00    -0.187 A  
HETATM    9  N   UNL     1      -8.407  16.085  68.363  1.00  0.00    -0.171 NA 
HETATM   10  N   UNL     1      -8.210  13.867  67.742  1.00  0.00    -0.158 NA 
HETATM   11  C   UNL     1     -12.049  15.004  70.491  1.00  0.00    -0.326 A  
HETATM   12  N   UNL     1      -9.870  12.269  68.218  1.00  0.00    -0.215 NA 
HETATM   13  H2  UNL     1      -8.330  16.414  69.325  1.00  0.00     0.000 HD 
HETATM   14  C   UNL     1      -8.701  12.623  67.669  1.00  0.00    -0.179 A  
HETATM   15  H1  UNL     1      -7.529  16.296  67.889  1.00  0.00     0.000 HD 
BRANCH  11  16
HETATM   16  O   UNL     1     -12.629  16.034  71.177  1.00  0.00    -0.412 OA 
HETATM   17  C   UNL     1     -12.257  16.274  72.524  1.00  0.00    -0.478 C  
ENDBRANCH  11  16
BRANCH  14  18
HETATM   18  N   UNL     1      -7.988  11.680  66.969  1.00  0.00    -0.159 NA 
HETATM   19  C   UNL     1      -6.545  11.765  66.933  1.00  0.00    -0.114 C  
BRANCH  18  20
HETATM   20  C   UNL     1      -8.657  10.512  66.419  1.00  0.00    -0.144 C  
BRANCH  20  21
HETATM   21  C   UNL     1      -8.098   9.210  67.008  1.00  0.00    -0.109 C  
BRANCH  21  22
HETATM   22  C   UNL     1      -8.936   7.989  66.627  1.00  0.00    -0.150 C  
BRANCH  22  23
HETATM   23  N   UNL     1      -9.422   7.277  67.790  1.00  0.00    -0.131 N  
HETATM   24  C   UNL     1     -10.563   6.511  67.765  1.00  0.00    -0.259 C  
HETATM   25  H   UNL     1      -8.897   7.347  68.662  1.00  0.00     0.000 HD 
HETATM   26  O   UNL     1     -11.272   6.389  66.771  1.00  0.00    -0.327 OA 
BRANCH  24  27
HETATM   27  C   UNL     1     -10.886   5.814  69.094  1.00  0.00    -0.285 C  
HETATM   28  C   UNL     1      -9.621   5.642  69.914  1.00  0.00    -0.208 C  
HETATM   29  C   UNL     1     -10.164   5.465  71.306  1.00  0.00    -0.287 C  
HETATM   30  C   UNL     1     -11.382   6.365  71.303  1.00  0.00    -0.306 C  
HETATM   31  O   UNL     1     -11.810   6.517  69.940  1.00  0.00    -0.381 OA 
ENDBRANCH  24  27
ENDBRANCH  22  23
ENDBRANCH  21  22
ENDBRANCH  20  21
ENDBRANCH  18  20
ENDBRANCH  14  18
ENDBRANCH   2   3
TORSDOF 8
ENDMDL
MODEL      187
REMARK 921   NORMALIZED FREE ENERGY PREDICTED BY IDOCK:   -4.08 KCAL/MOL
REMARK 922        TOTAL FREE ENERGY PREDICTED BY IDOCK:   -7.52 KCAL/MOL
REMARK 923 INTER-LIGAND FREE ENERGY PREDICTED BY IDOCK:   -5.98 KCAL/MOL
REMARK 924 INTRA-LIGAND FREE ENERGY PREDICTED BY IDOCK:   -1.54 KCAL/MOL
REMARK 927      BINDING AFFINITY PREDICTED BY RF-SCORE:    0.00 PKD
ROOT
HETATM    1  C   UNL     1     -14.060   7.451  71.514  1.00  0.00    -0.409 C  
HETATM    2  O   UNL     1     -12.778   8.004  71.215  1.00  0.00    -0.296 OA 
ENDROOT
BRANCH   2   3
HETATM    3  C   UNL     1     -11.778   7.088  71.010  1.00  0.00    -0.333 A  
HETATM    4  C   UNL     1     -11.480   6.614  69.721  1.00  0.00    -0.388 A  
HETATM    5  C   UNL     1     -10.559   5.604  69.488  1.00  0.00    -0.314 A  
HETATM    6  C   UNL     1      -9.863   5.086  70.571  1.00  0.00    -0.290 A  
HETATM    7  C   UNL     1     -10.064   5.634  71.861  1.00  0.00    -0.235 A  
HETATM    8  C   UNL     1      -9.010   4.029  70.259  1.00  0.00    -0.095 A  
HETATM    9  N   UNL     1      -8.190   3.435  71.224  1.00  0.00    -0.063 NA 
HETATM   10  N   UNL     1      -8.895   3.521  69.025  1.00  0.00    -0.095 NA 
HETATM   11  C   UNL     1     -11.025   6.624  72.094  1.00  0.00    -0.245 A  
HETATM   12  N   UNL     1     -10.401   5.152  68.242  1.00  0.00    -0.114 NA 
HETATM   13  H2  UNL     1      -8.784   3.139  71.999  1.00  0.00     0.000 HD 
HETATM   14  C   UNL     1      -9.596   4.100  68.041  1.00  0.00    -0.142 A  
HETATM   15  H1  UNL     1      -7.567   2.661  70.995  1.00  0.00     0.000 HD 
BRANCH  11  16
HETATM   16  O   UNL     1     -11.088   6.979  73.413  1.00  0.00    -0.262 OA 
HETATM   17  C   UNL     1      -9.986   6.706  74.263  1.00  0.00    -0.345 C  
ENDBRANCH  11  16
BRANCH  14  18
HETATM   18  N   UNL     1      -9.455   3.612  66.764  1.00  0.00    -0.194 NA 
HETATM   19  C   UNL     1      -8.788   2.346  66.559  1.00  0.00    -0.127 C  
BRANCH  18  20
HETATM   20  C   UNL     1     -10.119   4.269  65.650  1.00  0.00    -0.219 C  
BRANCH  20  21
HETATM   21  C   UNL     1      -9.192   4.395  64.434  1.00  0.00    -0.149 C  
BRANCH  21  22
HETATM   22  C   UNL     1      -8.152   5.502  64.604  1.00  0.00    -0.127 C  
BRANCH  22  23
HETATM   23  N   UNL     1      -8.686   6.648  65.310  1.00  0.00    -0.353 N  
HETATM   24  C   UNL     1      -7.902   7.708  65.701  1.00  0.00    -0.109 C  
HETATM   25  H   UNL     1      -9.683   6.670  65.525  1.00  0.00     0.000 HD 
HETATM   26  O   UNL     1      -6.691   7.758  65.509  1.00  0.00    -0.045 OA 
BRANCH  24  27
HETATM   27  C   UNL     1      -8.668   8.835  66.406  1.00  0.00    -0.139 C  
HETATM   28  C   UNL     1     -10.132   8.461  66.549  1.00  0.00    -0.317 C  
HETATM   29  C   UNL     1     -10.583   9.360  67.668  1.00  0.00    -0.333 C  
HETATM   30  C   UNL     1      -9.355   9.430  68.552  1.00  0.00    -0.138 C  
HETATM   31  O   UNL     1      -8.211   9.144  67.732  1.00  0.00    -0.108 OA 
ENDBRANCH  24  27
ENDBRANCH  22  23
ENDBRANCH  21  22
ENDBRANCH  20  21
ENDBRANCH  18  20
ENDBRANCH  14  18
ENDBRANCH   2   3
TORSDOF 8
ENDMDL
MODEL      188
REMARK 921   NORMALIZED FREE ENERGY PREDICTED BY IDOCK:   -4.07 KCAL/MOL
REMARK 922        TOTAL FREE ENERGY PREDICTED BY IDOCK:   -7.51 KCAL/MOL
REMARK 923 INTER-LIGAND FREE ENERGY PREDICTED BY IDOCK:   -5.96 KCAL/MOL
REMARK 924 INTRA-LIGAND FREE ENERGY PREDICTED BY IDOCK:   -1.55 KCAL/MOL
REMARK 927      BINDING AFFINITY PREDICTED BY RF-SCORE:    0.00 PKD
ROOT
HETATM    1  C   UNL     1     -10.555  16.320  65.108  1.00  0.00    -0.304 C  
HETATM    2  O   UNL     1     -11.457  15.214  65.069  1.00  0.00    -0.368 OA 
ENDROOT
BRANCH   2   3
HETATM    3  C   UNL     1     -10.878  13.980  65.225  1.00  0.00    -0.347 A  
HETATM    4  C   UNL     1      -9.945  13.739  66.248  1.00  0.00    -0.312 A  
HETATM    5  C   UNL     1      -9.253  12.544  66.365  1.00  0.00    -0.177 A  
HETATM    6  C   UNL     1      -9.542  11.526  65.468  1.00  0.00    -0.252 A  
HETATM    7  C   UNL     1     -10.563  11.708  64.505  1.00  0.00    -0.373 A  
HETATM    8  C   UNL     1      -8.752  10.386  65.612  1.00  0.00    -0.171 A  
HETATM    9  N   UNL     1      -8.955   9.246  64.827  1.00  0.00    -0.318 NA 
HETATM   10  N   UNL     1      -7.767  10.287  66.514  1.00  0.00    -0.109 NA 
HETATM   11  C   UNL     1     -11.228  12.932  64.366  1.00  0.00    -0.351 A  
HETATM   12  N   UNL     1      -8.320  12.430  67.313  1.00  0.00    -0.177 NA 
HETATM   13  H2  UNL     1      -8.919   9.530  63.848  1.00  0.00     0.000 HD 
HETATM   14  C   UNL     1      -7.576  11.317  67.348  1.00  0.00    -0.120 A  
HETATM   15  H1  UNL     1      -8.378   8.413  64.934  1.00  0.00     0.000 HD 
BRANCH  11  16
HETATM   16  O   UNL     1     -12.142  12.909  63.350  1.00  0.00    -0.534 OA 
HETATM   17  C   UNL     1     -13.073  11.841  63.273  1.00  0.00     0.246 C  
ENDBRANCH  11  16
BRANCH  14  18
HETATM   18  N   UNL     1      -6.594  11.210  68.303  1.00  0.00    -0.057 NA 
HETATM   19  C   UNL     1      -5.408  10.433  68.017  1.00  0.00    -0.033 C  
BRANCH  18  20
HETATM   20  C   UNL     1      -6.659  12.008  69.516  1.00  0.00    -0.079 C  
BRANCH  20  21
HETATM   21  C   UNL     1      -5.680  13.189  69.471  1.00  0.00    -0.095 C  
BRANCH  21  22
HETATM   22  C   UNL     1      -6.367  14.505  69.106  1.00  0.00    -0.100 C  
BRANCH  22  23
HETATM   23  N   UNL     1      -7.779  14.490  69.426  1.00  0.00    -0.346 N  
HETATM   24  C   UNL     1      -8.584  15.593  69.270  1.00  0.00    -0.262 C  
HETATM   25  H   UNL     1      -8.191  13.628  69.782  1.00  0.00     0.000 HD 
HETATM   26  O   UNL     1      -8.172  16.679  68.874  1.00  0.00    -0.235 OA 
BRANCH  24  27
HETATM   27  C   UNL     1     -10.056  15.358  69.636  1.00  0.00    -0.269 C  
HETATM   28  C   UNL     1     -10.956  16.177  68.730  1.00  0.00    -0.330 C  
HETATM   29  C   UNL     1     -12.271  15.456  68.849  1.00  0.00    -0.118 C  
HETATM   30  C   UNL     1     -11.844  14.010  68.990  1.00  0.00    -0.354 C  
HETATM   31  O   UNL     1     -10.504  13.999  69.510  1.00  0.00    -0.018 OA 
ENDBRANCH  24  27
ENDBRANCH  22  23
ENDBRANCH  21  22
ENDBRANCH  20  21
ENDBRANCH  18  20
ENDBRANCH  14  18
ENDBRANCH   2   3
TORSDOF 8
ENDMDL
MODEL      189
REMARK 921   NORMALIZED FREE ENERGY PREDICTED BY IDOCK:   -4.07 KCAL/MOL
REMARK 922        TOTAL FREE ENERGY PREDICTED BY IDOCK:   -7.50 KCAL/MOL
REMARK 923 INTER-LIGAND FREE ENERGY PREDICTED BY IDOCK:   -6.08 KCAL/MOL
REMARK 924 INTRA-LIGAND FREE ENERGY PREDICTED BY IDOCK:   -1.43 KCAL/MOL
REMARK 927      BINDING AFFINITY PREDICTED BY RF-SCORE:    0.00 PKD
ROOT
HETATM    1  C   UNL     1     -12.175  15.091  69.220  1.00  0.00    -0.179 C  
HETATM    2  O   UNL     1     -12.020  14.806  67.830  1.00  0.00    -0.330 OA 
ENDROOT
BRANCH   2   3
HETATM    3  C   UNL     1     -11.682  13.511  67.532  1.00  0.00    -0.367 A  
HETATM    4  C   UNL     1     -11.383  12.586  68.547  1.00  0.00    -0.337 A  
HETATM    5  C   UNL     1     -10.923  11.305  68.283  1.00  0.00    -0.224 A  
HETATM    6  C   UNL     1     -10.815  10.906  66.958  1.00  0.00    -0.323 A  
HETATM    7  C   UNL     1     -11.225  11.782  65.925  1.00  0.00    -0.345 A  
HETATM    8  C   UNL     1     -10.280   9.631  66.781  1.00  0.00    -0.239 A  
HETATM    9  N   UNL     1     -10.160   9.053  65.512  1.00  0.00    -0.248 NA 
HETATM   10  N   UNL     1      -9.866   8.862  67.796  1.00  0.00    -0.158 NA 
HETATM   11  C   UNL     1     -11.647  13.089  66.199  1.00  0.00    -0.366 A  
HETATM   12  N   UNL     1     -10.579  10.521  69.306  1.00  0.00    -0.222 NA 
HETATM   13  H2  UNL     1      -9.633   9.699  64.924  1.00  0.00     0.000 HD 
HETATM   14  C   UNL     1     -10.029   9.329  69.041  1.00  0.00    -0.182 A  
HETATM   15  H1  UNL     1      -9.769   8.121  65.383  1.00  0.00     0.000 HD 
BRANCH  11  16
HETATM   16  O   UNL     1     -11.953  13.779  65.059  1.00  0.00    -0.350 OA 
HETATM   17  C   UNL     1     -11.807  13.146  63.798  1.00  0.00    -0.486 C  
ENDBRANCH  11  16
BRANCH  14  18
HETATM   18  N   UNL     1      -9.643   8.532  70.092  1.00  0.00    -0.167 NA 
HETATM   19  C   UNL     1     -10.073   8.868  71.432  1.00  0.00    -0.309 C  
BRANCH  18  20
HETATM   20  C   UNL     1      -8.962   7.272  69.847  1.00  0.00    -0.142 C  
BRANCH  20  21
HETATM   21  C   UNL     1      -7.437   7.433  69.897  1.00  0.00    -0.085 C  
BRANCH  21  22
HETATM   22  C   UNL     1      -6.766   7.063  68.574  1.00  0.00    -0.064 C  
BRANCH  22  23
HETATM   23  N   UNL     1      -7.731   6.725  67.550  1.00  0.00    -0.108 N  
HETATM   24  C   UNL     1      -7.442   5.868  66.514  1.00  0.00    -0.087 C  
HETATM   25  H   UNL     1      -8.662   7.139  67.598  1.00  0.00     0.000 HD 
HETATM   26  O   UNL     1      -6.343   5.344  66.360  1.00  0.00    -0.036 OA 
BRANCH  24  27
HETATM   27  C   UNL     1      -8.613   5.618  65.554  1.00  0.00    -0.151 C  
HETATM   28  C   UNL     1      -8.559   4.196  65.026  1.00  0.00    -0.117 C  
HETATM   29  C   UNL     1      -9.977   3.969  64.577  1.00  0.00    -0.198 C  
HETATM   30  C   UNL     1     -10.777   4.755  65.595  1.00  0.00    -0.141 C  
HETATM   31  O   UNL     1      -9.918   5.772  66.134  1.00  0.00    -0.119 OA 
ENDBRANCH  24  27
ENDBRANCH  22  23
ENDBRANCH  21  22
ENDBRANCH  20  21
ENDBRANCH  18  20
ENDBRANCH  14  18
ENDBRANCH   2   3
TORSDOF 8
ENDMDL
MODEL      190
REMARK 921   NORMALIZED FREE ENERGY PREDICTED BY IDOCK:   -4.06 KCAL/MOL
REMARK 922        TOTAL FREE ENERGY PREDICTED BY IDOCK:   -7.50 KCAL/MOL
REMARK 923 INTER-LIGAND FREE ENERGY PREDICTED BY IDOCK:   -5.67 KCAL/MOL
REMARK 924 INTRA-LIGAND FREE ENERGY PREDICTED BY IDOCK:   -1.83 KCAL/MOL
REMARK 927      BINDING AFFINITY PREDICTED BY RF-SCORE:    0.00 PKD
ROOT
HETATM    1  C   UNL     1      -7.844  10.077  64.507  1.00  0.00    -0.145 C  
HETATM    2  O   UNL     1      -7.166   9.315  65.506  1.00  0.00    -0.084 OA 
ENDROOT
BRANCH   2   3
HETATM    3  C   UNL     1      -7.956   8.451  66.220  1.00  0.00    -0.099 A  
HETATM    4  C   UNL     1      -8.552   8.843  67.431  1.00  0.00    -0.119 A  
HETATM    5  C   UNL     1      -9.258   7.965  68.238  1.00  0.00    -0.137 A  
HETATM    6  C   UNL     1      -9.432   6.661  67.796  1.00  0.00    -0.121 A  
HETATM    7  C   UNL     1      -8.942   6.280  66.524  1.00  0.00    -0.150 A  
HETATM    8  C   UNL     1     -10.092   5.828  68.698  1.00  0.00    -0.175 A  
HETATM    9  N   UNL     1     -10.402   4.501  68.383  1.00  0.00     0.146 NA 
HETATM   10  N   UNL     1     -10.493   6.233  69.910  1.00  0.00    -0.207 NA 
HETATM   11  C   UNL     1      -8.193   7.161  65.735  1.00  0.00    -0.132 A  
HETATM   12  N   UNL     1      -9.715   8.398  69.415  1.00  0.00    -0.175 NA 
HETATM   13  H2  UNL     1      -9.538   4.036  68.103  1.00  0.00     0.000 HD 
HETATM   14  C   UNL     1     -10.296   7.516  70.239  1.00  0.00    -0.213 A  
HETATM   15  H1  UNL     1     -10.885   3.892  69.043  1.00  0.00     0.000 HD 
BRANCH  11  16
HETATM   16  O   UNL     1      -7.779   6.580  64.568  1.00  0.00    -0.095 OA 
HETATM   17  C   UNL     1      -7.056   5.360  64.614  1.00  0.00    -0.054 C  
ENDBRANCH  11  16
BRANCH  14  18
HETATM   18  N   UNL     1     -10.740   7.952  71.464  1.00  0.00    -0.224 NA 
HETATM   19  C   UNL     1      -9.850   8.716  72.310  1.00  0.00    -0.289 C  
BRANCH  18  20
HETATM   20  C   UNL     1     -12.138   7.802  71.835  1.00  0.00    -0.304 C  
BRANCH  20  21
HETATM   21  C   UNL     1     -12.776   9.151  72.192  1.00  0.00    -0.467 C  
BRANCH  21  22
HETATM   22  C   UNL     1     -13.420   9.831  70.983  1.00  0.00    -0.180 C  
BRANCH  22  23
HETATM   23  N   UNL     1     -12.440  10.222  69.992  1.00  0.00    -0.533 N  
HETATM   24  C   UNL     1     -12.021  11.523  69.838  1.00  0.00    -0.351 C  
HETATM   25  H   UNL     1     -12.045   9.505  69.384  1.00  0.00     0.000 HD 
HETATM   26  O   UNL     1     -12.459  12.455  70.504  1.00  0.00    -0.278 OA 
BRANCH  24  27
HETATM   27  C   UNL     1     -10.954  11.719  68.753  1.00  0.00    -0.234 C  
HETATM   28  C   UNL     1     -11.428  11.123  67.440  1.00  0.00    -0.261 C  
HETATM   29  C   UNL     1     -10.570  11.841  66.435  1.00  0.00    -0.293 C  
HETATM   30  C   UNL     1     -10.422  13.218  67.049  1.00  0.00    -0.249 C  
HETATM   31  O   UNL     1     -10.624  13.087  68.466  1.00  0.00    -0.249 OA 
ENDBRANCH  24  27
ENDBRANCH  22  23
ENDBRANCH  21  22
ENDBRANCH  20  21
ENDBRANCH  18  20
ENDBRANCH  14  18
ENDBRANCH   2   3
TORSDOF 8
ENDMDL
MODEL      191
REMARK 921   NORMALIZED FREE ENERGY PREDICTED BY IDOCK:   -4.06 KCAL/MOL
REMARK 922        TOTAL FREE ENERGY PREDICTED BY IDOCK:   -7.49 KCAL/MOL
REMARK 923 INTER-LIGAND FREE ENERGY PREDICTED BY IDOCK:   -7.14 KCAL/MOL
REMARK 924 INTRA-LIGAND FREE ENERGY PREDICTED BY IDOCK:   -0.35 KCAL/MOL
REMARK 927      BINDING AFFINITY PREDICTED BY RF-SCORE:    0.00 PKD
ROOT
HETATM    1  C   UNL     1      -6.679  16.929  68.242  1.00  0.00    -0.159 C  
HETATM    2  O   UNL     1      -8.043  17.346  68.310  1.00  0.00    -0.230 OA 
ENDROOT
BRANCH   2   3
HETATM    3  C   UNL     1      -8.903  16.669  67.484  1.00  0.00    -0.196 A  
HETATM    4  C   UNL     1      -8.972  15.264  67.500  1.00  0.00    -0.192 A  
HETATM    5  C   UNL     1      -9.741  14.542  66.602  1.00  0.00    -0.273 A  
HETATM    6  C   UNL     1     -10.519  15.241  65.690  1.00  0.00    -0.377 A  
HETATM    7  C   UNL     1     -10.554  16.655  65.737  1.00  0.00    -0.278 A  
HETATM    8  C   UNL     1     -11.205  14.439  64.780  1.00  0.00    -0.387 A  
HETATM    9  N   UNL     1     -12.081  14.982  63.834  1.00  0.00    -0.942 NA 
HETATM   10  N   UNL     1     -11.097  13.104  64.753  1.00  0.00    -0.315 NA 
HETATM   11  C   UNL     1      -9.743  17.379  66.619  1.00  0.00    -0.290 A  
HETATM   12  N   UNL     1      -9.680  13.209  66.629  1.00  0.00    -0.255 NA 
HETATM   13  H2  UNL     1     -11.570  15.690  63.305  1.00  0.00     0.000 HD 
HETATM   14  C   UNL     1     -10.335  12.519  65.686  1.00  0.00    -0.271 A  
HETATM   15  H1  UNL     1     -12.583  14.395  63.169  1.00  0.00     0.000 HD 
BRANCH  11  16
HETATM   16  O   UNL     1      -9.897  18.729  66.471  1.00  0.00    -0.331 OA 
HETATM   17  C   UNL     1     -10.836  19.418  67.281  1.00  0.00    -0.448 C  
ENDBRANCH  11  16
BRANCH  14  18
HETATM   18  N   UNL     1     -10.249  11.147  65.693  1.00  0.00    -0.247 NA 
HETATM   19  C   UNL     1      -9.422  10.484  64.709  1.00  0.00    -0.259 C  
BRANCH  18  20
HETATM   20  C   UNL     1     -10.838  10.380  66.778  1.00  0.00    -0.116 C  
BRANCH  20  21
HETATM   21  C   UNL     1     -10.008  10.490  68.064  1.00  0.00    -0.177 C  
BRANCH  21  22
HETATM   22  C   UNL     1      -8.607   9.898  67.908  1.00  0.00    -0.125 C  
BRANCH  22  23
HETATM   23  N   UNL     1      -8.640   8.553  67.375  1.00  0.00    -0.126 N  
HETATM   24  C   UNL     1      -8.684   7.439  68.180  1.00  0.00    -0.122 C  
HETATM   25  H   UNL     1      -8.631   8.426  66.363  1.00  0.00     0.000 HD 
HETATM   26  O   UNL     1      -8.672   7.492  69.406  1.00  0.00    -0.136 OA 
BRANCH  24  27
HETATM   27  C   UNL     1      -8.746   6.109  67.416  1.00  0.00    -0.104 C  
HETATM   28  C   UNL     1      -9.058   4.973  68.372  1.00  0.00    -0.137 C  
HETATM   29  C   UNL     1      -9.592   3.914  67.446  1.00  0.00    -0.218 C  
HETATM   30  C   UNL     1     -10.324   4.728  66.400  1.00  0.00    -0.273 C  
HETATM   31  O   UNL     1      -9.749   6.044  66.390  1.00  0.00    -0.158 OA 
ENDBRANCH  24  27
ENDBRANCH  22  23
ENDBRANCH  21  22
ENDBRANCH  20  21
ENDBRANCH  18  20
ENDBRANCH  14  18
ENDBRANCH   2   3
TORSDOF 8
ENDMDL
MODEL      192
REMARK 921   NORMALIZED FREE ENERGY PREDICTED BY IDOCK:   -4.05 KCAL/MOL
REMARK 922        TOTAL FREE ENERGY PREDICTED BY IDOCK:   -7.49 KCAL/MOL
REMARK 923 INTER-LIGAND FREE ENERGY PREDICTED BY IDOCK:   -6.97 KCAL/MOL
REMARK 924 INTRA-LIGAND FREE ENERGY PREDICTED BY IDOCK:   -0.52 KCAL/MOL
REMARK 927      BINDING AFFINITY PREDICTED BY RF-SCORE:    0.00 PKD
ROOT
HETATM    1  C   UNL     1      -8.283  17.559  68.041  1.00  0.00    -0.239 C  
HETATM    2  O   UNL     1      -8.260  16.903  66.773  1.00  0.00    -0.197 OA 
ENDROOT
BRANCH   2   3
HETATM    3  C   UNL     1      -9.232  15.955  66.586  1.00  0.00    -0.252 A  
HETATM    4  C   UNL     1      -9.185  14.723  67.262  1.00  0.00    -0.211 A  
HETATM    5  C   UNL     1     -10.082  13.696  67.012  1.00  0.00    -0.248 A  
HETATM    6  C   UNL     1     -11.103  13.921  66.100  1.00  0.00    -0.299 A  
HETATM    7  C   UNL     1     -11.237  15.195  65.498  1.00  0.00    -0.320 A  
HETATM    8  C   UNL     1     -11.915  12.815  65.856  1.00  0.00    -0.449 A  
HETATM    9  N   UNL     1     -13.027  12.891  65.010  1.00  0.00    -0.815 NA 
HETATM   10  N   UNL     1     -11.712  11.618  66.422  1.00  0.00    -0.439 NA 
HETATM   11  C   UNL     1     -10.303  16.213  65.723  1.00  0.00    -0.378 A  
HETATM   12  N   UNL     1      -9.912  12.527  67.635  1.00  0.00    -0.198 NA 
HETATM   13  H2  UNL     1     -12.709  13.250  64.109  1.00  0.00     0.000 HD 
HETATM   14  C   UNL     1     -10.711  11.504  67.304  1.00  0.00    -0.244 A  
HETATM   15  H1  UNL     1     -13.621  12.082  64.832  1.00  0.00     0.000 HD 
BRANCH  11  16
HETATM   16  O   UNL     1     -10.593  17.344  65.012  1.00  0.00    -0.617 OA 
HETATM   17  C   UNL     1     -10.896  18.545  65.704  1.00  0.00     0.062 C  
ENDBRANCH  11  16
BRANCH  14  18
HETATM   18  N   UNL     1     -10.518  10.291  67.920  1.00  0.00    -0.196 NA 
HETATM   19  C   UNL     1     -10.852  10.145  69.319  1.00  0.00    -0.235 C  
BRANCH  18  20
HETATM   20  C   UNL     1     -10.152   9.121  67.139  1.00  0.00    -0.236 C  
BRANCH  20  21
HETATM   21  C   UNL     1     -10.569   7.820  67.837  1.00  0.00    -0.221 C  
BRANCH  21  22
HETATM   22  C   UNL     1      -9.411   6.831  67.970  1.00  0.00    -0.119 C  
BRANCH  22  23
HETATM   23  N   UNL     1      -9.119   6.517  69.353  1.00  0.00    -0.141 N  
HETATM   24  C   UNL     1      -9.224   5.244  69.861  1.00  0.00    -0.137 C  
HETATM   25  H   UNL     1      -8.823   7.270  69.974  1.00  0.00     0.000 HD 
HETATM   26  O   UNL     1      -9.597   4.282  69.197  1.00  0.00    -0.166 OA 
BRANCH  24  27
HETATM   27  C   UNL     1      -8.837   5.119  71.341  1.00  0.00    -0.133 C  
HETATM   28  C   UNL     1     -10.085   5.047  72.201  1.00  0.00    -0.252 C  
HETATM   29  C   UNL     1      -9.566   4.415  73.464  1.00  0.00    -0.135 C  
HETATM   30  C   UNL     1      -8.507   3.463  72.947  1.00  0.00    -0.082 C  
HETATM   31  O   UNL     1      -8.065   3.954  71.671  1.00  0.00    -0.071 OA 
ENDBRANCH  24  27
ENDBRANCH  22  23
ENDBRANCH  21  22
ENDBRANCH  20  21
ENDBRANCH  18  20
ENDBRANCH  14  18
ENDBRANCH   2   3
TORSDOF 8
ENDMDL
MODEL      193
REMARK 921   NORMALIZED FREE ENERGY PREDICTED BY IDOCK:   -4.05 KCAL/MOL
REMARK 922        TOTAL FREE ENERGY PREDICTED BY IDOCK:   -7.47 KCAL/MOL
REMARK 923 INTER-LIGAND FREE ENERGY PREDICTED BY IDOCK:   -5.54 KCAL/MOL
REMARK 924 INTRA-LIGAND FREE ENERGY PREDICTED BY IDOCK:   -1.94 KCAL/MOL
REMARK 927      BINDING AFFINITY PREDICTED BY RF-SCORE:    0.00 PKD
ROOT
HETATM    1  C   UNL     1     -12.908  11.108  71.431  1.00  0.00    -0.439 C  
HETATM    2  O   UNL     1     -11.829  11.315  70.519  1.00  0.00    -0.338 OA 
ENDROOT
BRANCH   2   3
HETATM    3  C   UNL     1     -10.980  10.249  70.365  1.00  0.00    -0.296 A  
HETATM    4  C   UNL     1     -11.221   9.028  71.018  1.00  0.00    -0.361 A  
HETATM    5  C   UNL     1     -10.327   7.969  70.981  1.00  0.00    -0.201 A  
HETATM    6  C   UNL     1      -9.177   8.106  70.217  1.00  0.00    -0.151 A  
HETATM    7  C   UNL     1      -8.975   9.283  69.457  1.00  0.00    -0.154 A  
HETATM    8  C   UNL     1      -8.301   7.024  70.292  1.00  0.00    -0.133 A  
HETATM    9  N   UNL     1      -7.125   6.975  69.535  1.00  0.00    -0.069 NA 
HETATM   10  N   UNL     1      -8.524   5.953  71.066  1.00  0.00    -0.123 NA 
HETATM   11  C   UNL     1      -9.861  10.364  69.533  1.00  0.00    -0.184 A  
HETATM   12  N   UNL     1     -10.592   6.877  71.702  1.00  0.00    -0.209 NA 
HETATM   13  H2  UNL     1      -6.593   7.823  69.730  1.00  0.00     0.000 HD 
HETATM   14  C   UNL     1      -9.672   5.906  71.753  1.00  0.00    -0.155 A  
HETATM   15  H1  UNL     1      -6.485   6.183  69.590  1.00  0.00     0.000 HD 
BRANCH  11  16
HETATM   16  O   UNL     1      -9.458  11.415  68.757  1.00  0.00    -0.186 OA 
HETATM   17  C   UNL     1     -10.155  11.704  67.556  1.00  0.00    -0.191 C  
ENDBRANCH  11  16
BRANCH  14  18
HETATM   18  N   UNL     1      -9.928   4.794  72.519  1.00  0.00    -0.160 NA 
HETATM   19  C   UNL     1     -11.169   4.714  73.259  1.00  0.00    -0.325 C  
BRANCH  18  20
HETATM   20  C   UNL     1      -9.051   3.638  72.452  1.00  0.00    -0.105 C  
BRANCH  20  21
HETATM   21  C   UNL     1      -9.663   2.511  71.608  1.00  0.00    -0.222 C  
BRANCH  21  22
HETATM   22  C   UNL     1      -9.032   2.412  70.219  1.00  0.00    -0.095 C  
BRANCH  22  23
HETATM   23  N   UNL     1      -9.525   3.437  69.323  1.00  0.00    -0.171 N  
HETATM   24  C   UNL     1      -9.507   3.294  67.955  1.00  0.00    -0.160 C  
HETATM   25  H   UNL     1      -9.900   4.297  69.721  1.00  0.00     0.000 HD 
HETATM   26  O   UNL     1      -9.051   2.307  67.386  1.00  0.00    -0.142 OA 
BRANCH  24  27
HETATM   27  C   UNL     1     -10.104   4.481  67.187  1.00  0.00    -0.112 C  
HETATM   28  C   UNL     1     -10.714   5.476  68.158  1.00  0.00    -0.160 C  
HETATM   29  C   UNL     1     -10.751   6.738  67.340  1.00  0.00    -0.405 C  
HETATM   30  C   UNL     1      -9.498   6.622  66.496  1.00  0.00    -0.152 C  
HETATM   31  O   UNL     1      -9.165   5.228  66.398  1.00  0.00    -0.134 OA 
ENDBRANCH  24  27
ENDBRANCH  22  23
ENDBRANCH  21  22
ENDBRANCH  20  21
ENDBRANCH  18  20
ENDBRANCH  14  18
ENDBRANCH   2   3
TORSDOF 8
ENDMDL
MODEL      194
REMARK 921   NORMALIZED FREE ENERGY PREDICTED BY IDOCK:   -4.03 KCAL/MOL
REMARK 922        TOTAL FREE ENERGY PREDICTED BY IDOCK:   -7.45 KCAL/MOL
REMARK 923 INTER-LIGAND FREE ENERGY PREDICTED BY IDOCK:   -5.47 KCAL/MOL
REMARK 924 INTRA-LIGAND FREE ENERGY PREDICTED BY IDOCK:   -1.98 KCAL/MOL
REMARK 927      BINDING AFFINITY PREDICTED BY RF-SCORE:    0.00 PKD
ROOT
HETATM    1  C   UNL     1     -11.857  12.172  68.874  1.00  0.00    -0.304 C  
HETATM    2  O   UNL     1     -11.629  12.484  67.500  1.00  0.00    -0.319 OA 
ENDROOT
BRANCH   2   3
HETATM    3  C   UNL     1     -11.025  11.495  66.767  1.00  0.00    -0.294 A  
HETATM    4  C   UNL     1     -10.906  10.187  67.270  1.00  0.00    -0.295 A  
HETATM    5  C   UNL     1     -10.201   9.192  66.612  1.00  0.00    -0.258 A  
HETATM    6  C   UNL     1      -9.642   9.488  65.377  1.00  0.00    -0.342 A  
HETATM    7  C   UNL     1      -9.852  10.764  64.800  1.00  0.00    -0.358 A  
HETATM    8  C   UNL     1      -8.893   8.454  64.818  1.00  0.00     0.120 A  
HETATM    9  N   UNL     1      -8.314   8.568  63.550  1.00  0.00    -0.336 NA 
HETATM   10  N   UNL     1      -8.690   7.282  65.432  1.00  0.00    -0.036 NA 
HETATM   11  C   UNL     1     -10.529  11.776  65.489  1.00  0.00    -0.267 A  
HETATM   12  N   UNL     1     -10.064   8.002  67.202  1.00  0.00    -0.234 NA 
HETATM   13  H2  UNL     1      -7.738   9.411  63.543  1.00  0.00     0.000 HD 
HETATM   14  C   UNL     1      -9.286   7.083  66.615  1.00  0.00    -0.165 A  
HETATM   15  H1  UNL     1      -7.766   7.812  63.141  1.00  0.00     0.000 HD 
BRANCH  11  16
HETATM   16  O   UNL     1     -10.582  12.940  64.774  1.00  0.00    -0.308 OA 
HETATM   17  C   UNL     1     -11.681  13.179  63.909  1.00  0.00    -0.456 C  
ENDBRANCH  11  16
BRANCH  14  18
HETATM   18  N   UNL     1      -9.117   5.869  67.236  1.00  0.00    -0.112 NA 
HETATM   19  C   UNL     1      -9.801   4.705  66.715  1.00  0.00    -0.218 C  
BRANCH  18  20
HETATM   20  C   UNL     1      -8.129   5.715  68.291  1.00  0.00    -0.103 C  
BRANCH  20  21
HETATM   21  C   UNL     1      -8.791   5.547  69.665  1.00  0.00    -0.120 C  
BRANCH  21  22
HETATM   22  C   UNL     1      -8.961   6.877  70.399  1.00  0.00    -0.152 C  
BRANCH  22  23
HETATM   23  N   UNL     1      -8.092   7.906  69.869  1.00  0.00    -0.116 N  
HETATM   24  C   UNL     1      -8.335   9.247  70.053  1.00  0.00    -0.168 C  
HETATM   25  H   UNL     1      -7.267   7.626  69.339  1.00  0.00     0.000 HD 
HETATM   26  O   UNL     1      -9.315   9.678  70.654  1.00  0.00    -0.239 OA 
BRANCH  24  27
HETATM   27  C   UNL     1      -7.276  10.172  69.439  1.00  0.00    -0.096 C  
HETATM   28  C   UNL     1      -6.221   9.352  68.720  1.00  0.00    -0.044 C  
HETATM   29  C   UNL     1      -5.619  10.361  67.780  1.00  0.00    -0.044 C  
HETATM   30  C   UNL     1      -6.809  11.223  67.412  1.00  0.00    -0.096 C  
HETATM   31  O   UNL     1      -7.774  11.108  68.470  1.00  0.00    -0.112 OA 
ENDBRANCH  24  27
ENDBRANCH  22  23
ENDBRANCH  21  22
ENDBRANCH  20  21
ENDBRANCH  18  20
ENDBRANCH  14  18
ENDBRANCH   2   3
TORSDOF 8
ENDMDL
MODEL      195
REMARK 921   NORMALIZED FREE ENERGY PREDICTED BY IDOCK:   -4.01 KCAL/MOL
REMARK 922        TOTAL FREE ENERGY PREDICTED BY IDOCK:   -7.43 KCAL/MOL
REMARK 923 INTER-LIGAND FREE ENERGY PREDICTED BY IDOCK:   -6.78 KCAL/MOL
REMARK 924 INTRA-LIGAND FREE ENERGY PREDICTED BY IDOCK:   -0.65 KCAL/MOL
REMARK 927      BINDING AFFINITY PREDICTED BY RF-SCORE:    0.00 PKD
ROOT
HETATM    1  C   UNL     1      -6.900  16.728  66.750  1.00  0.00    -0.230 C  
HETATM    2  O   UNL     1      -8.025  16.663  67.627  1.00  0.00    -0.169 OA 
ENDROOT
BRANCH   2   3
HETATM    3  C   UNL     1      -8.993  15.759  67.270  1.00  0.00    -0.196 A  
HETATM    4  C   UNL     1      -8.713  14.383  67.202  1.00  0.00    -0.243 A  
HETATM    5  C   UNL     1      -9.629  13.454  66.734  1.00  0.00    -0.262 A  
HETATM    6  C   UNL     1     -10.894  13.899  66.377  1.00  0.00    -0.291 A  
HETATM    7  C   UNL     1     -11.233  15.263  66.552  1.00  0.00    -0.228 A  
HETATM    8  C   UNL     1     -11.727  12.913  65.852  1.00  0.00    -0.399 A  
HETATM    9  N   UNL     1     -13.054  13.182  65.500  1.00  0.00    -0.474 NA 
HETATM   10  N   UNL     1     -11.336  11.646  65.667  1.00  0.00    -0.230 NA 
HETATM   11  C   UNL     1     -10.289  16.202  66.984  1.00  0.00    -0.290 A  
HETATM   12  N   UNL     1      -9.251  12.179  66.619  1.00  0.00    -0.203 NA 
HETATM   13  H2  UNL     1     -13.052  13.968  64.850  1.00  0.00     0.000 HD 
HETATM   14  C   UNL     1     -10.101  11.308  66.060  1.00  0.00    -0.239 A  
HETATM   15  H1  UNL     1     -13.663  12.460  65.116  1.00  0.00     0.000 HD 
BRANCH  11  16
HETATM   16  O   UNL     1     -10.809  17.465  67.041  1.00  0.00    -0.209 OA 
HETATM   17  C   UNL     1     -10.292  18.472  66.186  1.00  0.00    -0.426 C  
ENDBRANCH  11  16
BRANCH  14  18
HETATM   18  N   UNL     1      -9.703  10.001  65.911  1.00  0.00    -0.228 NA 
HETATM   19  C   UNL     1      -9.326   9.520  64.600  1.00  0.00    -0.134 C  
BRANCH  18  20
HETATM   20  C   UNL     1      -9.494   9.160  67.078  1.00  0.00    -0.154 C  
BRANCH  20  21
HETATM   21  C   UNL     1     -10.320   7.869  67.000  1.00  0.00    -0.411 C  
BRANCH  21  22
HETATM   22  C   UNL     1     -10.694   7.331  68.382  1.00  0.00    -0.121 C  
BRANCH  22  23
HETATM   23  N   UNL     1      -9.824   7.843  69.420  1.00  0.00    -0.177 N  
HETATM   24  C   UNL     1     -10.307   8.396  70.583  1.00  0.00    -0.197 C  
HETATM   25  H   UNL     1      -8.815   7.793  69.283  1.00  0.00     0.000 HD 
HETATM   26  O   UNL     1     -11.503   8.523  70.823  1.00  0.00    -0.269 OA 
BRANCH  24  27
HETATM   27  C   UNL     1      -9.219   8.849  71.567  1.00  0.00    -0.252 C  
HETATM   28  C   UNL     1      -9.370   8.113  72.885  1.00  0.00    -0.343 C  
HETATM   29  C   UNL     1      -7.998   8.255  73.488  1.00  0.00    -0.222 C  
HETATM   30  C   UNL     1      -7.095   8.200  72.273  1.00  0.00    -0.091 C  
HETATM   31  O   UNL     1      -7.871   8.608  71.135  1.00  0.00    -0.094 OA 
ENDBRANCH  24  27
ENDBRANCH  22  23
ENDBRANCH  21  22
ENDBRANCH  20  21
ENDBRANCH  18  20
ENDBRANCH  14  18
ENDBRANCH   2   3
TORSDOF 8
ENDMDL
MODEL      196
REMARK 921   NORMALIZED FREE ENERGY PREDICTED BY IDOCK:   -4.01 KCAL/MOL
REMARK 922        TOTAL FREE ENERGY PREDICTED BY IDOCK:   -7.42 KCAL/MOL
REMARK 923 INTER-LIGAND FREE ENERGY PREDICTED BY IDOCK:   -6.57 KCAL/MOL
REMARK 924 INTRA-LIGAND FREE ENERGY PREDICTED BY IDOCK:   -0.85 KCAL/MOL
REMARK 927      BINDING AFFINITY PREDICTED BY RF-SCORE:    0.00 PKD
ROOT
HETATM    1  C   UNL     1     -13.994   7.488  71.377  1.00  0.00    -0.356 C  
HETATM    2  O   UNL     1     -13.197   6.528  72.070  1.00  0.00    -0.179 OA 
ENDROOT
BRANCH   2   3
HETATM    3  C   UNL     1     -11.892   6.445  71.660  1.00  0.00    -0.306 A  
HETATM    4  C   UNL     1     -11.441   7.137  70.522  1.00  0.00    -0.334 A  
HETATM    5  C   UNL     1     -10.163   6.986  70.010  1.00  0.00    -0.194 A  
HETATM    6  C   UNL     1      -9.276   6.162  70.687  1.00  0.00    -0.163 A  
HETATM    7  C   UNL     1      -9.673   5.550  71.900  1.00  0.00    -0.197 A  
HETATM    8  C   UNL     1      -8.037   6.011  70.067  1.00  0.00    -0.114 A  
HETATM    9  N   UNL     1      -7.008   5.263  70.649  1.00  0.00    -0.051 NA 
HETATM   10  N   UNL     1      -7.732   6.579  68.893  1.00  0.00    -0.107 NA 
HETATM   11  C   UNL     1     -10.979   5.674  72.389  1.00  0.00    -0.259 A  
HETATM   12  N   UNL     1      -9.846   7.613  68.875  1.00  0.00    -0.161 NA 
HETATM   13  H2  UNL     1      -7.373   4.332  70.849  1.00  0.00     0.000 HD 
HETATM   14  C   UNL     1      -8.648   7.372  68.324  1.00  0.00    -0.124 A  
HETATM   15  H1  UNL     1      -6.102   5.153  70.195  1.00  0.00     0.000 HD 
BRANCH  11  16
HETATM   16  O   UNL     1     -11.165   4.970  73.545  1.00  0.00    -0.321 OA 
HETATM   17  C   UNL     1     -10.938   3.569  73.555  1.00  0.00    -0.236 C  
ENDBRANCH  11  16
BRANCH  14  18
HETATM   18  N   UNL     1      -8.331   7.992  67.139  1.00  0.00    -0.119 NA 
HETATM   19  C   UNL     1      -9.344   8.127  66.116  1.00  0.00    -0.166 C  
BRANCH  18  20
HETATM   20  C   UNL     1      -7.050   8.659  66.980  1.00  0.00    -0.075 C  
BRANCH  20  21
HETATM   21  C   UNL     1      -7.108   9.746  65.898  1.00  0.00    -0.102 C  
BRANCH  21  22
HETATM   22  C   UNL     1      -7.458  11.121  66.468  1.00  0.00    -0.131 C  
BRANCH  22  23
HETATM   23  N   UNL     1      -8.599  11.713  65.803  1.00  0.00    -0.394 N  
HETATM   24  C   UNL     1      -9.854  11.733  66.363  1.00  0.00    -0.214 C  
HETATM   25  H   UNL     1      -8.467  12.132  64.882  1.00  0.00     0.000 HD 
HETATM   26  O   UNL     1     -10.114  11.231  67.453  1.00  0.00    -0.184 OA 
BRANCH  24  27
HETATM   27  C   UNL     1     -10.918  12.436  65.509  1.00  0.00    -0.293 C  
HETATM   28  C   UNL     1     -12.009  13.004  66.398  1.00  0.00    -0.466 C  
HETATM   29  C   UNL     1     -12.625  14.055  65.515  1.00  0.00    -0.543 C  
HETATM   30  C   UNL     1     -11.433  14.573  64.736  1.00  0.00    -0.408 C  
HETATM   31  O   UNL     1     -10.436  13.539  64.726  1.00  0.00    -0.379 OA 
ENDBRANCH  24  27
ENDBRANCH  22  23
ENDBRANCH  21  22
ENDBRANCH  20  21
ENDBRANCH  18  20
ENDBRANCH  14  18
ENDBRANCH   2   3
TORSDOF 8
ENDMDL
MODEL      197
REMARK 921   NORMALIZED FREE ENERGY PREDICTED BY IDOCK:   -4.00 KCAL/MOL
REMARK 922        TOTAL FREE ENERGY PREDICTED BY IDOCK:   -7.41 KCAL/MOL
REMARK 923 INTER-LIGAND FREE ENERGY PREDICTED BY IDOCK:   -6.35 KCAL/MOL
REMARK 924 INTRA-LIGAND FREE ENERGY PREDICTED BY IDOCK:   -1.06 KCAL/MOL
REMARK 927      BINDING AFFINITY PREDICTED BY RF-SCORE:    0.00 PKD
ROOT
HETATM    1  C   UNL     1     -13.444   9.256  72.249  1.00  0.00    -0.482 C  
HETATM    2  O   UNL     1     -12.074   8.892  72.081  1.00  0.00    -0.358 OA 
ENDROOT
BRANCH   2   3
HETATM    3  C   UNL     1     -11.571   9.073  70.818  1.00  0.00    -0.265 A  
HETATM    4  C   UNL     1     -11.630  10.327  70.185  1.00  0.00    -0.376 A  
HETATM    5  C   UNL     1     -11.240  10.521  68.869  1.00  0.00    -0.266 A  
HETATM    6  C   UNL     1     -10.713   9.443  68.173  1.00  0.00    -0.230 A  
HETATM    7  C   UNL     1     -10.534   8.202  68.832  1.00  0.00    -0.202 A  
HETATM    8  C   UNL     1     -10.412   9.707  66.838  1.00  0.00    -0.212 A  
HETATM    9  N   UNL     1      -9.817   8.746  66.014  1.00  0.00    -0.445 NA 
HETATM   10  N   UNL     1     -10.646  10.890  66.255  1.00  0.00    -0.241 NA 
HETATM   11  C   UNL     1     -10.970   8.003  70.147  1.00  0.00    -0.226 A  
HETATM   12  N   UNL     1     -11.413  11.724  68.318  1.00  0.00    -0.281 NA 
HETATM   13  H2  UNL     1     -10.396   7.907  66.043  1.00  0.00     0.000 HD 
HETATM   14  C   UNL     1     -11.141  11.876  67.015  1.00  0.00    -0.302 A  
HETATM   15  H1  UNL     1      -9.597   8.940  65.037  1.00  0.00     0.000 HD 
BRANCH  11  16
HETATM   16  O   UNL     1     -10.743   6.725  70.575  1.00  0.00    -0.222 OA 
HETATM   17  C   UNL     1      -9.572   6.435  71.321  1.00  0.00    -0.170 C  
ENDBRANCH  11  16
BRANCH  14  18
HETATM   18  N   UNL     1     -11.347  13.105  66.436  1.00  0.00    -0.305 NA 
HETATM   19  C   UNL     1     -12.652  13.426  65.902  1.00  0.00    -0.348 C  
BRANCH  18  20
HETATM   20  C   UNL     1     -10.325  14.135  66.516  1.00  0.00    -0.284 C  
BRANCH  20  21
HETATM   21  C   UNL     1      -9.433  13.953  67.752  1.00  0.00    -0.214 C  
BRANCH  21  22
HETATM   22  C   UNL     1      -7.981  13.648  67.384  1.00  0.00    -0.166 C  
BRANCH  22  23
HETATM   23  N   UNL     1      -7.549  12.362  67.892  1.00  0.00    -0.117 N  
HETATM   24  C   UNL     1      -6.880  12.225  69.085  1.00  0.00    -0.073 C  
HETATM   25  H   UNL     1      -7.748  11.526  67.343  1.00  0.00     0.000 HD 
HETATM   26  O   UNL     1      -6.574  13.175  69.800  1.00  0.00    -0.058 OA 
BRANCH  24  27
HETATM   27  C   UNL     1      -6.540  10.775  69.457  1.00  0.00    -0.099 C  
HETATM   28  C   UNL     1      -5.605  10.749  70.652  1.00  0.00    -0.114 C  
HETATM   29  C   UNL     1      -5.807   9.356  71.184  1.00  0.00    -0.068 C  
HETATM   30  C   UNL     1      -7.274   9.105  70.906  1.00  0.00    -0.111 C  
HETATM   31  O   UNL     1      -7.666   9.961  69.821  1.00  0.00    -0.119 OA 
ENDBRANCH  24  27
ENDBRANCH  22  23
ENDBRANCH  21  22
ENDBRANCH  20  21
ENDBRANCH  18  20
ENDBRANCH  14  18
ENDBRANCH   2   3
TORSDOF 8
ENDMDL
MODEL      198
REMARK 921   NORMALIZED FREE ENERGY PREDICTED BY IDOCK:   -4.00 KCAL/MOL
REMARK 922        TOTAL FREE ENERGY PREDICTED BY IDOCK:   -7.40 KCAL/MOL
REMARK 923 INTER-LIGAND FREE ENERGY PREDICTED BY IDOCK:   -6.52 KCAL/MOL
REMARK 924 INTRA-LIGAND FREE ENERGY PREDICTED BY IDOCK:   -0.88 KCAL/MOL
REMARK 927      BINDING AFFINITY PREDICTED BY RF-SCORE:    0.00 PKD
ROOT
HETATM    1  C   UNL     1     -12.343  12.835  63.968  1.00  0.00    -0.411 C  
HETATM    2  O   UNL     1     -12.509  13.256  65.322  1.00  0.00    -0.447 OA 
ENDROOT
BRANCH   2   3
HETATM    3  C   UNL     1     -11.860  12.490  66.256  1.00  0.00    -0.390 A  
HETATM    4  C   UNL     1     -11.332  11.230  65.924  1.00  0.00     0.008 A  
HETATM    5  C   UNL     1     -10.776  10.379  66.866  1.00  0.00    -0.207 A  
HETATM    6  C   UNL     1     -10.684  10.820  68.179  1.00  0.00    -0.257 A  
HETATM    7  C   UNL     1     -11.102  12.131  68.509  1.00  0.00    -0.295 A  
HETATM    8  C   UNL     1     -10.178   9.876  69.071  1.00  0.00    -0.200 A  
HETATM    9  N   UNL     1      -9.964  10.180  70.420  1.00  0.00    -0.382 NA 
HETATM   10  N   UNL     1      -9.841   8.632  68.709  1.00  0.00    -0.168 NA 
HETATM   11  C   UNL     1     -11.701  12.969  67.561  1.00  0.00    -0.370 A  
HETATM   12  N   UNL     1     -10.378   9.164  66.480  1.00  0.00    -0.241 NA 
HETATM   13  H2  UNL     1     -10.841  10.534  70.803  1.00  0.00     0.000 HD 
HETATM   14  C   UNL     1      -9.948   8.306  67.414  1.00  0.00    -0.209 A  
HETATM   15  H1  UNL     1      -9.593   9.490  71.072  1.00  0.00     0.000 HD 
BRANCH  11  16
HETATM   16  O   UNL     1     -12.070  14.171  68.098  1.00  0.00    -0.343 OA 
HETATM   17  C   UNL     1     -11.496  15.366  67.593  1.00  0.00    -0.251 C  
ENDBRANCH  11  16
BRANCH  14  18
HETATM   18  N   UNL     1      -9.568   7.044  67.025  1.00  0.00    -0.149 NA 
HETATM   19  C   UNL     1      -8.300   6.861  66.353  1.00  0.00    -0.125 C  
BRANCH  18  20
HETATM   20  C   UNL     1     -10.342   5.885  67.436  1.00  0.00    -0.220 C  
BRANCH  20  21
HETATM   21  C   UNL     1      -9.736   5.209  68.673  1.00  0.00    -0.210 C  
BRANCH  21  22
HETATM   22  C   UNL     1     -10.617   5.362  69.913  1.00  0.00    -0.281 C  
BRANCH  22  23
HETATM   23  N   UNL     1      -9.911   5.992  71.009  1.00  0.00    -0.183 N  
HETATM   24  C   UNL     1     -10.396   5.997  72.296  1.00  0.00    -0.192 C  
HETATM   25  H   UNL     1      -9.020   6.450  70.820  1.00  0.00     0.000 HD 
HETATM   26  O   UNL     1     -11.470   5.496  72.614  1.00  0.00    -0.296 OA 
BRANCH  24  27
HETATM   27  C   UNL     1      -9.480   6.690  73.314  1.00  0.00    -0.142 C  
HETATM   28  C   UNL     1      -8.213   5.879  73.511  1.00  0.00    -0.111 C  
HETATM   29  C   UNL     1      -7.262   6.904  74.070  1.00  0.00    -0.094 C  
HETATM   30  C   UNL     1      -7.680   8.170  73.351  1.00  0.00    -0.160 C  
HETATM   31  O   UNL     1      -9.049   8.009  72.944  1.00  0.00    -0.194 OA 
ENDBRANCH  24  27
ENDBRANCH  22  23
ENDBRANCH  21  22
ENDBRANCH  20  21
ENDBRANCH  18  20
ENDBRANCH  14  18
ENDBRANCH   2   3
TORSDOF 8
ENDMDL
MODEL      199
REMARK 921   NORMALIZED FREE ENERGY PREDICTED BY IDOCK:   -3.94 KCAL/MOL
REMARK 922        TOTAL FREE ENERGY PREDICTED BY IDOCK:   -7.31 KCAL/MOL
REMARK 923 INTER-LIGAND FREE ENERGY PREDICTED BY IDOCK:   -5.69 KCAL/MOL
REMARK 924 INTRA-LIGAND FREE ENERGY PREDICTED BY IDOCK:   -1.62 KCAL/MOL
REMARK 927      BINDING AFFINITY PREDICTED BY RF-SCORE:    0.00 PKD
ROOT
HETATM    1  C   UNL     1     -12.483  12.658  65.058  1.00  0.00    -0.487 C  
HETATM    2  O   UNL     1     -12.052  11.714  66.038  1.00  0.00    -0.279 OA 
ENDROOT
BRANCH   2   3
HETATM    3  C   UNL     1     -10.696  11.652  66.236  1.00  0.00    -0.272 A  
HETATM    4  C   UNL     1     -10.108  12.163  67.406  1.00  0.00    -0.208 A  
HETATM    5  C   UNL     1      -8.736  12.226  67.589  1.00  0.00    -0.175 A  
HETATM    6  C   UNL     1      -7.915  11.705  66.599  1.00  0.00    -0.098 A  
HETATM    7  C   UNL     1      -8.492  11.079  65.468  1.00  0.00    -0.069 A  
HETATM    8  C   UNL     1      -6.551  11.872  66.831  1.00  0.00    -0.083 A  
HETATM    9  N   UNL     1      -5.587  11.350  65.961  1.00  0.00    -0.441 NA 
HETATM   10  N   UNL     1      -6.063  12.515  67.899  1.00  0.00    -0.087 NA 
HETATM   11  C   UNL     1      -9.877  11.057  65.270  1.00  0.00    -0.259 A  
HETATM   12  N   UNL     1      -8.259  12.807  68.692  1.00  0.00    -0.053 NA 
HETATM   13  H2  UNL     1      -5.790  11.700  65.024  1.00  0.00     0.000 HD 
HETATM   14  C   UNL     1      -6.935  12.967  68.810  1.00  0.00    -0.103 A  
HETATM   15  H1  UNL     1      -4.590  11.472  66.131  1.00  0.00     0.000 HD 
BRANCH  11  16
HETATM   16  O   UNL     1     -10.220  10.446  64.096  1.00  0.00    -0.296 OA 
HETATM   17  C   UNL     1      -9.249  10.308  63.071  1.00  0.00    -0.291 C  
ENDBRANCH  11  16
BRANCH  14  18
HETATM   18  N   UNL     1      -6.443  13.594  69.930  1.00  0.00    -0.082 NA 
HETATM   19  C   UNL     1      -5.383  12.965  70.686  1.00  0.00    -0.154 C  
BRANCH  18  20
HETATM   20  C   UNL     1      -6.856  14.949  70.253  1.00  0.00     0.012 C  
BRANCH  20  21
HETATM   21  C   UNL     1      -5.661  15.912  70.288  1.00  0.00    -0.163 C  
BRANCH  21  22
HETATM   22  C   UNL     1      -5.635  16.854  69.084  1.00  0.00    -0.150 C  
BRANCH  22  23
HETATM   23  N   UNL     1      -6.726  16.598  68.167  1.00  0.00    -0.140 N  
HETATM   24  C   UNL     1      -7.504  17.603  67.644  1.00  0.00    -0.198 C  
HETATM   25  H   UNL     1      -6.925  15.634  67.900  1.00  0.00     0.000 HD 
HETATM   26  O   UNL     1      -7.356  18.788  67.928  1.00  0.00    -0.234 OA 
BRANCH  24  27
HETATM   27  C   UNL     1      -8.586  17.123  66.667  1.00  0.00    -0.253 C  
HETATM   28  C   UNL     1      -8.374  15.657  66.335  1.00  0.00    -0.215 C  
HETATM   29  C   UNL     1      -9.736  15.241  65.848  1.00  0.00    -0.390 C  
HETATM   30  C   UNL     1     -10.664  16.069  66.713  1.00  0.00    -0.259 C  
HETATM   31  O   UNL     1      -9.933  17.224  67.155  1.00  0.00    -0.265 OA 
ENDBRANCH  24  27
ENDBRANCH  22  23
ENDBRANCH  21  22
ENDBRANCH  20  21
ENDBRANCH  18  20
ENDBRANCH  14  18
ENDBRANCH   2   3
TORSDOF 8
ENDMDL
MODEL      200
REMARK 921   NORMALIZED FREE ENERGY PREDICTED BY IDOCK:   -3.93 KCAL/MOL
REMARK 922        TOTAL FREE ENERGY PREDICTED BY IDOCK:   -7.31 KCAL/MOL
REMARK 923 INTER-LIGAND FREE ENERGY PREDICTED BY IDOCK:   -6.40 KCAL/MOL
REMARK 924 INTRA-LIGAND FREE ENERGY PREDICTED BY IDOCK:   -0.91 KCAL/MOL
REMARK 927      BINDING AFFINITY PREDICTED BY RF-SCORE:    0.00 PKD
ROOT
HETATM    1  C   UNL     1     -10.406   4.313  65.306  1.00  0.00    -0.201 C  
HETATM    2  O   UNL     1      -9.613   3.840  66.394  1.00  0.00    -0.191 OA 
ENDROOT
BRANCH   2   3
HETATM    3  C   UNL     1      -9.251   4.792  67.312  1.00  0.00    -0.128 A  
HETATM    4  C   UNL     1     -10.217   5.460  68.085  1.00  0.00    -0.226 A  
HETATM    5  C   UNL     1      -9.901   6.508  68.936  1.00  0.00    -0.134 A  
HETATM    6  C   UNL     1      -8.568   6.867  69.072  1.00  0.00    -0.128 A  
HETATM    7  C   UNL     1      -7.570   6.128  68.393  1.00  0.00    -0.092 A  
HETATM    8  C   UNL     1      -8.347   7.973  69.891  1.00  0.00    -0.121 A  
HETATM    9  N   UNL     1      -7.056   8.427  70.182  1.00  0.00    -0.042 NA 
HETATM   10  N   UNL     1      -9.337   8.663  70.472  1.00  0.00    -0.166 NA 
HETATM   11  C   UNL     1      -7.899   5.099  67.503  1.00  0.00    -0.096 A  
HETATM   12  N   UNL     1     -10.891   7.146  69.566  1.00  0.00    -0.240 NA 
HETATM   13  H2  UNL     1      -6.577   8.593  69.297  1.00  0.00     0.000 HD 
HETATM   14  C   UNL     1     -10.591   8.228  70.296  1.00  0.00    -0.227 A  
HETATM   15  H1  UNL     1      -6.896   9.236  70.781  1.00  0.00     0.000 HD 
BRANCH  11  16
HETATM   16  O   UNL     1      -6.792   4.548  66.921  1.00  0.00    -0.050 OA 
HETATM   17  C   UNL     1      -6.186   3.410  67.513  1.00  0.00    -0.032 C  
ENDBRANCH  11  16
BRANCH  14  18
HETATM   18  N   UNL     1     -11.611   8.905  70.920  1.00  0.00    -0.283 NA 
HETATM   19  C   UNL     1     -12.517   8.183  71.786  1.00  0.00    -0.330 C  
BRANCH  18  20
HETATM   20  C   UNL     1     -11.677  10.356  70.854  1.00  0.00    -0.360 C  
BRANCH  20  21
HETATM   21  C   UNL     1     -11.890  10.848  69.417  1.00  0.00    -0.400 C  
BRANCH  21  22
HETATM   22  C   UNL     1     -10.758  11.756  68.936  1.00  0.00    -0.205 C  
BRANCH  22  23
HETATM   23  N   UNL     1     -10.703  11.840  67.491  1.00  0.00    -0.213 N  
HETATM   24  C   UNL     1     -10.566  13.035  66.825  1.00  0.00    -0.262 C  
HETATM   25  H   UNL     1     -10.769  10.980  66.947  1.00  0.00     0.000 HD 
HETATM   26  O   UNL     1     -10.505  14.121  67.393  1.00  0.00    -0.267 OA 
BRANCH  24  27
HETATM   27  C   UNL     1     -10.496  12.902  65.297  1.00  0.00    -0.296 C  
HETATM   28  C   UNL     1     -10.625  11.445  64.894  1.00  0.00    -0.368 C  
HETATM   29  C   UNL     1     -11.063  11.549  63.458  1.00  0.00    -0.434 C  
HETATM   30  C   UNL     1     -11.934  12.788  63.467  1.00  0.00    -0.555 C  
HETATM   31  O   UNL     1     -11.526  13.600  64.579  1.00  0.00    -0.353 OA 
ENDBRANCH  24  27
ENDBRANCH  22  23
ENDBRANCH  21  22
ENDBRANCH  20  21
ENDBRANCH  18  20
ENDBRANCH  14  18
ENDBRANCH   2   3
TORSDOF 8
ENDMDL
MODEL      201
REMARK 921   NORMALIZED FREE ENERGY PREDICTED BY IDOCK:   -3.91 KCAL/MOL
REMARK 922        TOTAL FREE ENERGY PREDICTED BY IDOCK:   -7.27 KCAL/MOL
REMARK 923 INTER-LIGAND FREE ENERGY PREDICTED BY IDOCK:   -6.58 KCAL/MOL
REMARK 924 INTRA-LIGAND FREE ENERGY PREDICTED BY IDOCK:   -0.69 KCAL/MOL
REMARK 927      BINDING AFFINITY PREDICTED BY RF-SCORE:    0.00 PKD
ROOT
HETATM    1  C   UNL     1     -10.580  16.051  67.874  1.00  0.00    -0.301 C  
HETATM    2  O   UNL     1     -11.837  15.608  68.384  1.00  0.00    -0.346 OA 
ENDROOT
BRANCH   2   3
HETATM    3  C   UNL     1     -11.812  14.405  69.041  1.00  0.00    -0.323 A  
HETATM    4  C   UNL     1     -11.147  13.293  68.494  1.00  0.00    -0.294 A  
HETATM    5  C   UNL     1     -11.199  12.032  69.069  1.00  0.00    -0.258 A  
HETATM    6  C   UNL     1     -11.885  11.882  70.265  1.00  0.00    -0.368 A  
HETATM    7  C   UNL     1     -12.459  13.014  70.892  1.00  0.00    -0.396 A  
HETATM    8  C   UNL     1     -11.946  10.571  70.736  1.00  0.00    -0.370 A  
HETATM    9  N   UNL     1     -12.547  10.256  71.959  1.00  0.00    -0.315 NA 
HETATM   10  N   UNL     1     -11.422   9.531  70.076  1.00  0.00    -0.166 NA 
HETATM   11  C   UNL     1     -12.439  14.275  70.285  1.00  0.00    -0.361 A  
HETATM   12  N   UNL     1     -10.613  11.013  68.437  1.00  0.00    -0.182 NA 
HETATM   13  H2  UNL     1     -13.498  10.628  71.945  1.00  0.00     0.000 HD 
HETATM   14  C   UNL     1     -10.763   9.779  68.937  1.00  0.00    -0.217 A  
HETATM   15  H1  UNL     1     -12.592   9.298  72.303  1.00  0.00     0.000 HD 
BRANCH  11  16
HETATM   16  O   UNL     1     -13.087  15.217  71.034  1.00  0.00    -0.393 OA 
HETATM   17  C   UNL     1     -14.393  14.947  71.519  1.00  0.00    -0.539 C  
ENDBRANCH  11  16
BRANCH  14  18
HETATM   18  N   UNL     1     -10.188   8.723  68.271  1.00  0.00    -0.196 NA 
HETATM   19  C   UNL     1     -10.511   8.503  66.879  1.00  0.00    -0.275 C  
BRANCH  18  20
HETATM   20  C   UNL     1      -9.136   7.943  68.902  1.00  0.00    -0.141 C  
BRANCH  20  21
HETATM   21  C   UNL     1      -8.324   7.149  67.870  1.00  0.00    -0.118 C  
BRANCH  21  22
HETATM   22  C   UNL     1      -8.221   5.665  68.225  1.00  0.00    -0.103 C  
BRANCH  22  23
HETATM   23  N   UNL     1      -8.381   5.431  69.645  1.00  0.00    -0.099 N  
HETATM   24  C   UNL     1      -9.165   4.418  70.144  1.00  0.00    -0.132 C  
HETATM   25  H   UNL     1      -7.894   6.042  70.300  1.00  0.00     0.000 HD 
HETATM   26  O   UNL     1      -9.809   3.652  69.434  1.00  0.00    -0.103 OA 
BRANCH  24  27
HETATM   27  C   UNL     1      -9.174   4.322  71.675  1.00  0.00    -0.132 C  
HETATM   28  C   UNL     1      -9.472   2.897  72.107  1.00  0.00    -0.196 C  
HETATM   29  C   UNL     1      -8.932   2.870  73.511  1.00  0.00    -0.084 C  
HETATM   30  C   UNL     1      -7.727   3.783  73.420  1.00  0.00    -0.078 C  
HETATM   31  O   UNL     1      -7.937   4.675  72.314  1.00  0.00    -0.097 OA 
ENDBRANCH  24  27
ENDBRANCH  22  23
ENDBRANCH  21  22
ENDBRANCH  20  21
ENDBRANCH  18  20
ENDBRANCH  14  18
ENDBRANCH   2   3
TORSDOF 8
ENDMDL
MODEL      202
REMARK 921   NORMALIZED FREE ENERGY PREDICTED BY IDOCK:   -3.91 KCAL/MOL
REMARK 922        TOTAL FREE ENERGY PREDICTED BY IDOCK:   -7.27 KCAL/MOL
REMARK 923 INTER-LIGAND FREE ENERGY PREDICTED BY IDOCK:   -6.83 KCAL/MOL
REMARK 924 INTRA-LIGAND FREE ENERGY PREDICTED BY IDOCK:   -0.44 KCAL/MOL
REMARK 927      BINDING AFFINITY PREDICTED BY RF-SCORE:    0.00 PKD
ROOT
HETATM    1  C   UNL     1     -13.338   9.334  71.771  1.00  0.00    -0.409 C  
HETATM    2  O   UNL     1     -11.920   9.164  71.776  1.00  0.00    -0.335 OA 
ENDROOT
BRANCH   2   3
HETATM    3  C   UNL     1     -11.294   9.426  70.585  1.00  0.00    -0.292 A  
HETATM    4  C   UNL     1     -11.197  10.738  70.088  1.00  0.00    -0.345 A  
HETATM    5  C   UNL     1     -10.678  11.028  68.836  1.00  0.00    -0.211 A  
HETATM    6  C   UNL     1     -10.180   9.983  68.071  1.00  0.00    -0.216 A  
HETATM    7  C   UNL     1     -10.160   8.672  68.604  1.00  0.00    -0.207 A  
HETATM    8  C   UNL     1      -9.742  10.354  66.801  1.00  0.00    -0.181 A  
HETATM    9  N   UNL     1      -9.156   9.432  65.927  1.00  0.00    -0.179 NA 
HETATM   10  N   UNL     1      -9.828  11.605  66.332  1.00  0.00    -0.202 NA 
HETATM   11  C   UNL     1     -10.724   8.380  69.851  1.00  0.00    -0.227 A  
HETATM   12  N   UNL     1     -10.705  12.292  68.406  1.00  0.00    -0.226 NA 
HETATM   13  H2  UNL     1      -9.801   8.649  65.820  1.00  0.00     0.000 HD 
HETATM   14  C   UNL     1     -10.308  12.549  67.153  1.00  0.00    -0.220 A  
HETATM   15  H1  UNL     1      -8.836   9.703  64.998  1.00  0.00     0.000 HD 
BRANCH  11  16
HETATM   16  O   UNL     1     -10.640   7.050  70.155  1.00  0.00    -0.215 OA 
HETATM   17  C   UNL     1     -11.409   6.115  69.417  1.00  0.00    -0.331 C  
ENDBRANCH  11  16
BRANCH  14  18
HETATM   18  N   UNL     1     -10.364  13.844  66.696  1.00  0.00    -0.275 NA 
HETATM   19  C   UNL     1     -11.630  14.543  66.698  1.00  0.00    -0.375 C  
BRANCH  18  20
HETATM   20  C   UNL     1      -9.141  14.564  66.380  1.00  0.00    -0.185 C  
BRANCH  20  21
HETATM   21  C   UNL     1      -8.018  14.235  67.372  1.00  0.00    -0.211 C  
BRANCH  21  22
HETATM   22  C   UNL     1      -8.343  14.690  68.795  1.00  0.00    -0.163 C  
BRANCH  22  23
HETATM   23  N   UNL     1      -8.300  16.131  68.930  1.00  0.00    -0.221 N  
HETATM   24  C   UNL     1      -7.121  16.829  69.040  1.00  0.00    -0.221 C  
HETATM   25  H   UNL     1      -9.179  16.648  68.943  1.00  0.00     0.000 HD 
HETATM   26  O   UNL     1      -6.018  16.291  69.061  1.00  0.00    -0.125 OA 
BRANCH  24  27
HETATM   27  C   UNL     1      -7.294  18.351  69.141  1.00  0.00    -0.134 C  
HETATM   28  C   UNL     1      -6.282  19.051  68.253  1.00  0.00    -0.239 C  
HETATM   29  C   UNL     1      -6.910  20.404  68.059  1.00  0.00    -0.331 C  
HETATM   30  C   UNL     1      -8.390  20.081  68.030  1.00  0.00    -0.211 C  
HETATM   31  O   UNL     1      -8.581  18.844  68.735  1.00  0.00    -0.345 OA 
ENDBRANCH  24  27
ENDBRANCH  22  23
ENDBRANCH  21  22
ENDBRANCH  20  21
ENDBRANCH  18  20
ENDBRANCH  14  18
ENDBRANCH   2   3
TORSDOF 8
ENDMDL
MODEL      203
REMARK 921   NORMALIZED FREE ENERGY PREDICTED BY IDOCK:   -3.90 KCAL/MOL
REMARK 922        TOTAL FREE ENERGY PREDICTED BY IDOCK:   -7.27 KCAL/MOL
REMARK 923 INTER-LIGAND FREE ENERGY PREDICTED BY IDOCK:   -5.48 KCAL/MOL
REMARK 924 INTRA-LIGAND FREE ENERGY PREDICTED BY IDOCK:   -1.78 KCAL/MOL
REMARK 927      BINDING AFFINITY PREDICTED BY RF-SCORE:    0.00 PKD
ROOT
HETATM    1  C   UNL     1     -13.487   8.937  72.386  1.00  0.00    -0.450 C  
HETATM    2  O   UNL     1     -13.154   7.689  71.777  1.00  0.00    -0.333 OA 
ENDROOT
BRANCH   2   3
HETATM    3  C   UNL     1     -11.815   7.475  71.575  1.00  0.00    -0.295 A  
HETATM    4  C   UNL     1     -11.084   8.251  70.659  1.00  0.00    -0.269 A  
HETATM    5  C   UNL     1      -9.761   7.989  70.342  1.00  0.00    -0.178 A  
HETATM    6  C   UNL     1      -9.119   6.953  71.005  1.00  0.00    -0.155 A  
HETATM    7  C   UNL     1      -9.802   6.237  72.017  1.00  0.00    -0.173 A  
HETATM    8  C   UNL     1      -7.814   6.713  70.576  1.00  0.00    -0.106 A  
HETATM    9  N   UNL     1      -7.007   5.744  71.183  1.00  0.00    -0.065 NA 
HETATM   10  N   UNL     1      -7.234   7.394  69.580  1.00  0.00    -0.080 NA 
HETATM   11  C   UNL     1     -11.151   6.480  72.301  1.00  0.00    -0.263 A  
HETATM   12  N   UNL     1      -9.169   8.721  69.395  1.00  0.00    -0.145 NA 
HETATM   13  H2  UNL     1      -7.512   4.858  71.160  1.00  0.00     0.000 HD 
HETATM   14  C   UNL     1      -7.929   8.389  69.013  1.00  0.00    -0.111 A  
HETATM   15  H1  UNL     1      -6.053   5.569  70.869  1.00  0.00     0.000 HD 
BRANCH  11  16
HETATM   16  O   UNL     1     -11.629   5.650  73.277  1.00  0.00    -0.126 OA 
HETATM   17  C   UNL     1     -11.585   4.246  73.082  1.00  0.00    -0.024 C  
ENDBRANCH  11  16
BRANCH  14  18
HETATM   18  N   UNL     1      -7.328   9.120  68.017  1.00  0.00    -0.083 NA 
HETATM   19  C   UNL     1      -6.782  10.424  68.325  1.00  0.00    -0.061 C  
BRANCH  18  20
HETATM   20  C   UNL     1      -7.084   8.524  66.714  1.00  0.00    -0.074 C  
BRANCH  20  21
HETATM   21  C   UNL     1      -8.377   7.984  66.088  1.00  0.00    -0.125 C  
BRANCH  21  22
HETATM   22  C   UNL     1      -9.211   9.083  65.429  1.00  0.00    -0.176 C  
BRANCH  22  23
HETATM   23  N   UNL     1     -10.098   9.732  66.371  1.00  0.00    -0.245 N  
HETATM   24  C   UNL     1     -10.133  11.097  66.533  1.00  0.00    -0.223 C  
HETATM   25  H   UNL     1     -10.720   9.156  66.936  1.00  0.00     0.000 HD 
HETATM   26  O   UNL     1      -9.403  11.869  65.918  1.00  0.00    -0.231 OA 
BRANCH  24  27
HETATM   27  C   UNL     1     -11.165  11.586  67.559  1.00  0.00    -0.298 C  
HETATM   28  C   UNL     1     -10.466  12.040  68.827  1.00  0.00    -0.207 C  
HETATM   29  C   UNL     1     -11.498  12.936  69.457  1.00  0.00    -0.292 C  
HETATM   30  C   UNL     1     -12.159  13.576  68.254  1.00  0.00    -0.260 C  
HETATM   31  O   UNL     1     -11.965  12.700  67.132  1.00  0.00    -0.437 OA 
ENDBRANCH  24  27
ENDBRANCH  22  23
ENDBRANCH  21  22
ENDBRANCH  20  21
ENDBRANCH  18  20
ENDBRANCH  14  18
ENDBRANCH   2   3
TORSDOF 8
ENDMDL
MODEL      204
REMARK 921   NORMALIZED FREE ENERGY PREDICTED BY IDOCK:   -3.88 KCAL/MOL
REMARK 922        TOTAL FREE ENERGY PREDICTED BY IDOCK:   -7.23 KCAL/MOL
REMARK 923 INTER-LIGAND FREE ENERGY PREDICTED BY IDOCK:   -6.67 KCAL/MOL
REMARK 924 INTRA-LIGAND FREE ENERGY PREDICTED BY IDOCK:   -0.56 KCAL/MOL
REMARK 927      BINDING AFFINITY PREDICTED BY RF-SCORE:    0.00 PKD
ROOT
HETATM    1  C   UNL     1      -9.014   2.709  69.528  1.00  0.00    -0.107 C  
HETATM    2  O   UNL     1      -9.593   2.938  70.813  1.00  0.00    -0.154 OA 
ENDROOT
BRANCH   2   3
HETATM    3  C   UNL     1      -9.391   4.191  71.331  1.00  0.00    -0.145 A  
HETATM    4  C   UNL     1     -10.388   5.179  71.254  1.00  0.00    -0.276 A  
HETATM    5  C   UNL     1     -10.179   6.488  71.660  1.00  0.00    -0.193 A  
HETATM    6  C   UNL     1      -8.952   6.815  72.220  1.00  0.00    -0.136 A  
HETATM    7  C   UNL     1      -7.979   5.806  72.416  1.00  0.00    -0.103 A  
HETATM    8  C   UNL     1      -8.802   8.165  72.535  1.00  0.00    -0.208 A  
HETATM    9  N   UNL     1      -7.649   8.650  73.163  1.00  0.00    -0.377 NA 
HETATM   10  N   UNL     1      -9.742   9.085  72.285  1.00  0.00    -0.202 NA 
HETATM   11  C   UNL     1      -8.181   4.497  71.965  1.00  0.00    -0.101 A  
HETATM   12  N   UNL     1     -11.150   7.384  71.470  1.00  0.00    -0.237 NA 
HETATM   13  H2  UNL     1      -6.845   8.368  72.602  1.00  0.00     0.000 HD 
HETATM   14  C   UNL     1     -10.901   8.668  71.757  1.00  0.00    -0.325 A  
HETATM   15  H1  UNL     1      -7.540   9.637  73.393  1.00  0.00     0.000 HD 
BRANCH  11  16
HETATM   16  O   UNL     1      -7.102   3.695  72.212  1.00  0.00    -0.043 OA 
HETATM   17  C   UNL     1      -6.998   3.030  73.461  1.00  0.00    -0.039 C  
ENDBRANCH  11  16
BRANCH  14  18
HETATM   18  N   UNL     1     -11.888   9.597  71.533  1.00  0.00    -0.390 NA 
HETATM   19  C   UNL     1     -13.174   9.435  72.175  1.00  0.00    -0.460 C  
BRANCH  18  20
HETATM   20  C   UNL     1     -11.593  10.820  70.804  1.00  0.00    -0.224 C  
BRANCH  20  21
HETATM   21  C   UNL     1     -12.800  11.768  70.777  1.00  0.00    -0.164 C  
BRANCH  21  22
HETATM   22  C   UNL     1     -12.395  13.234  70.935  1.00  0.00    -0.329 C  
BRANCH  22  23
HETATM   23  N   UNL     1     -12.008  13.831  69.674  1.00  0.00    -0.324 N  
HETATM   24  C   UNL     1     -11.735  15.172  69.544  1.00  0.00    -0.327 C  
HETATM   25  H   UNL     1     -11.935  13.234  68.851  1.00  0.00     0.000 HD 
HETATM   26  O   UNL     1     -11.822  15.971  70.471  1.00  0.00    -0.359 OA 
BRANCH  24  27
HETATM   27  C   UNL     1     -11.312  15.597  68.131  1.00  0.00    -0.340 C  
HETATM   28  C   UNL     1      -9.881  16.103  68.145  1.00  0.00    -0.227 C  
HETATM   29  C   UNL     1      -9.479  15.961  66.703  1.00  0.00    -0.263 C  
HETATM   30  C   UNL     1     -10.219  14.712  66.273  1.00  0.00    -0.292 C  
HETATM   31  O   UNL     1     -11.350  14.553  67.146  1.00  0.00    -0.323 OA 
ENDBRANCH  24  27
ENDBRANCH  22  23
ENDBRANCH  21  22
ENDBRANCH  20  21
ENDBRANCH  18  20
ENDBRANCH  14  18
ENDBRANCH   2   3
TORSDOF 8
ENDMDL
MODEL      205
REMARK 921   NORMALIZED FREE ENERGY PREDICTED BY IDOCK:   -3.87 KCAL/MOL
REMARK 922        TOTAL FREE ENERGY PREDICTED BY IDOCK:   -7.21 KCAL/MOL
REMARK 923 INTER-LIGAND FREE ENERGY PREDICTED BY IDOCK:   -5.76 KCAL/MOL
REMARK 924 INTRA-LIGAND FREE ENERGY PREDICTED BY IDOCK:   -1.46 KCAL/MOL
REMARK 927      BINDING AFFINITY PREDICTED BY RF-SCORE:    0.00 PKD
ROOT
HETATM    1  C   UNL     1     -10.164  15.701  65.427  1.00  0.00    -0.370 C  
HETATM    2  O   UNL     1     -11.093  14.747  65.943  1.00  0.00    -0.329 OA 
ENDROOT
BRANCH   2   3
HETATM    3  C   UNL     1     -10.664  13.445  65.927  1.00  0.00    -0.279 A  
HETATM    4  C   UNL     1      -9.971  12.894  67.019  1.00  0.00    -0.244 A  
HETATM    5  C   UNL     1      -9.421  11.622  66.993  1.00  0.00    -0.182 A  
HETATM    6  C   UNL     1      -9.618  10.842  65.862  1.00  0.00    -0.257 A  
HETATM    7  C   UNL     1     -10.414  11.335  64.801  1.00  0.00    -0.384 A  
HETATM    8  C   UNL     1      -8.973   9.607  65.891  1.00  0.00    -0.167 A  
HETATM    9  N   UNL     1      -9.119   8.676  64.857  1.00  0.00    -0.423 NA 
HETATM   10  N   UNL     1      -8.193   9.212  66.906  1.00  0.00    -0.115 NA 
HETATM   11  C   UNL     1     -10.931  12.636  64.816  1.00  0.00    -0.302 A  
HETATM   12  N   UNL     1      -8.702  11.210  68.040  1.00  0.00    -0.136 NA 
HETATM   13  H2  UNL     1      -8.870   9.139  63.983  1.00  0.00     0.000 HD 
HETATM   14  C   UNL     1      -8.078  10.027  67.962  1.00  0.00    -0.112 A  
HETATM   15  H1  UNL     1      -8.647   7.773  64.880  1.00  0.00     0.000 HD 
BRANCH  11  16
HETATM   16  O   UNL     1     -11.630  12.926  63.678  1.00  0.00    -0.448 OA 
HETATM   17  C   UNL     1     -12.668  12.055  63.256  1.00  0.00    -0.303 C  
ENDBRANCH  11  16
BRANCH  14  18
HETATM   18  N   UNL     1      -7.312   9.615  69.025  1.00  0.00    -0.071 NA 
HETATM   19  C   UNL     1      -6.969  10.563  70.063  1.00  0.00    -0.146 C  
BRANCH  18  20
HETATM   20  C   UNL     1      -6.996   8.207  69.200  1.00  0.00    -0.060 C  
BRANCH  20  21
HETATM   21  C   UNL     1      -7.707   7.614  70.424  1.00  0.00    -0.090 C  
BRANCH  21  22
HETATM   22  C   UNL     1      -9.070   7.015  70.075  1.00  0.00    -0.145 C  
BRANCH  22  23
HETATM   23  N   UNL     1      -9.220   6.795  68.652  1.00  0.00    -0.133 N  
HETATM   24  C   UNL     1      -9.422   5.546  68.114  1.00  0.00    -0.114 C  
HETATM   25  H   UNL     1      -9.175   7.597  68.024  1.00  0.00     0.000 HD 
HETATM   26  O   UNL     1      -9.464   4.520  68.787  1.00  0.00    -0.136 OA 
BRANCH  24  27
HETATM   27  C   UNL     1      -9.588   5.534  66.588  1.00  0.00    -0.151 C  
HETATM   28  C   UNL     1      -8.615   4.550  65.965  1.00  0.00    -0.114 C  
HETATM   29  C   UNL     1      -9.249   4.277  64.628  1.00  0.00    -0.156 C  
HETATM   30  C   UNL     1     -10.728   4.338  64.945  1.00  0.00    -0.108 C  
HETATM   31  O   UNL     1     -10.890   5.146  66.122  1.00  0.00    -0.282 OA 
ENDBRANCH  24  27
ENDBRANCH  22  23
ENDBRANCH  21  22
ENDBRANCH  20  21
ENDBRANCH  18  20
ENDBRANCH  14  18
ENDBRANCH   2   3
TORSDOF 8
ENDMDL
MODEL      206
REMARK 921   NORMALIZED FREE ENERGY PREDICTED BY IDOCK:   -3.86 KCAL/MOL
REMARK 922        TOTAL FREE ENERGY PREDICTED BY IDOCK:   -7.20 KCAL/MOL
REMARK 923 INTER-LIGAND FREE ENERGY PREDICTED BY IDOCK:   -5.48 KCAL/MOL
REMARK 924 INTRA-LIGAND FREE ENERGY PREDICTED BY IDOCK:   -1.72 KCAL/MOL
REMARK 927      BINDING AFFINITY PREDICTED BY RF-SCORE:    0.00 PKD
ROOT
HETATM    1  C   UNL     1     -11.949  13.346  67.835  1.00  0.00    -0.323 C  
HETATM    2  O   UNL     1     -10.860  12.953  67.000  1.00  0.00    -0.255 OA 
ENDROOT
BRANCH   2   3
HETATM    3  C   UNL     1     -10.678  11.600  66.875  1.00  0.00    -0.257 A  
HETATM    4  C   UNL     1     -10.922  10.730  67.952  1.00  0.00    -0.344 A  
HETATM    5  C   UNL     1     -10.638   9.374  67.900  1.00  0.00    -0.237 A  
HETATM    6  C   UNL     1     -10.149   8.849  66.713  1.00  0.00    -0.350 A  
HETATM    7  C   UNL     1     -10.009   9.687  65.580  1.00  0.00    -0.321 A  
HETATM    8  C   UNL     1      -9.824   7.495  66.769  1.00  0.00    -0.225 A  
HETATM    9  N   UNL     1      -9.377   6.798  65.642  1.00  0.00    -0.366 NA 
HETATM   10  N   UNL     1      -9.934   6.761  67.884  1.00  0.00    -0.136 NA 
HETATM   11  C   UNL     1     -10.258  11.063  65.653  1.00  0.00    -0.260 A  
HETATM   12  N   UNL     1     -10.817   8.637  68.999  1.00  0.00    -0.093 NA 
HETATM   13  H2  UNL     1      -8.571   7.297  65.265  1.00  0.00     0.000 HD 
HETATM   14  C   UNL     1     -10.434   7.354  68.977  1.00  0.00    -0.210 A  
HETATM   15  H1  UNL     1      -9.140   5.807  65.684  1.00  0.00     0.000 HD 
BRANCH  11  16
HETATM   16  O   UNL     1     -10.019  11.692  64.463  1.00  0.00    -0.244 OA 
HETATM   17  C   UNL     1     -11.109  12.024  63.617  1.00  0.00    -0.452 C  
ENDBRANCH  11  16
BRANCH  14  18
HETATM   18  N   UNL     1     -10.588   6.600  70.116  1.00  0.00    -0.209 NA 
HETATM   19  C   UNL     1     -11.882   6.546  70.760  1.00  0.00    -0.332 C  
BRANCH  18  20
HETATM   20  C   UNL     1      -9.517   5.728  70.569  1.00  0.00    -0.167 C  
BRANCH  20  21
HETATM   21  C   UNL     1      -8.371   6.525  71.208  1.00  0.00    -0.125 C  
BRANCH  21  22
HETATM   22  C   UNL     1      -7.148   6.622  70.297  1.00  0.00    -0.072 C  
BRANCH  22  23
HETATM   23  N   UNL     1      -7.113   5.557  69.316  1.00  0.00    -0.062 N  
HETATM   24  C   UNL     1      -6.708   5.760  68.018  1.00  0.00    -0.054 C  
HETATM   25  H   UNL     1      -7.399   4.620  69.600  1.00  0.00     0.000 HD 
HETATM   26  O   UNL     1      -6.372   6.856  67.580  1.00  0.00    -0.041 OA 
BRANCH  24  27
HETATM   27  C   UNL     1      -6.714   4.495  67.149  1.00  0.00    -0.051 C  
HETATM   28  C   UNL     1      -7.151   3.298  67.973  1.00  0.00    -0.050 C  
HETATM   29  C   UNL     1      -7.602   2.329  66.913  1.00  0.00    -0.066 C  
HETATM   30  C   UNL     1      -8.198   3.242  65.862  1.00  0.00    -0.094 C  
HETATM   31  O   UNL     1      -7.599   4.538  66.018  1.00  0.00    -0.084 OA 
ENDBRANCH  24  27
ENDBRANCH  22  23
ENDBRANCH  21  22
ENDBRANCH  20  21
ENDBRANCH  18  20
ENDBRANCH  14  18
ENDBRANCH   2   3
TORSDOF 8
ENDMDL
MODEL      207
REMARK 921   NORMALIZED FREE ENERGY PREDICTED BY IDOCK:   -3.85 KCAL/MOL
REMARK 922        TOTAL FREE ENERGY PREDICTED BY IDOCK:   -7.19 KCAL/MOL
REMARK 923 INTER-LIGAND FREE ENERGY PREDICTED BY IDOCK:   -6.46 KCAL/MOL
REMARK 924 INTRA-LIGAND FREE ENERGY PREDICTED BY IDOCK:   -0.74 KCAL/MOL
REMARK 927      BINDING AFFINITY PREDICTED BY RF-SCORE:    0.00 PKD
ROOT
HETATM    1  C   UNL     1     -12.563  15.152  70.809  1.00  0.00    -0.393 C  
HETATM    2  O   UNL     1     -12.151  16.160  69.885  1.00  0.00    -0.201 OA 
ENDROOT
BRANCH   2   3
HETATM    3  C   UNL     1     -10.977  15.904  69.225  1.00  0.00    -0.293 A  
HETATM    4  C   UNL     1     -10.667  14.610  68.767  1.00  0.00    -0.252 A  
HETATM    5  C   UNL     1      -9.443  14.289  68.202  1.00  0.00    -0.204 A  
HETATM    6  C   UNL     1      -8.512  15.302  68.028  1.00  0.00    -0.147 A  
HETATM    7  C   UNL     1      -8.851  16.633  68.372  1.00  0.00    -0.226 A  
HETATM    8  C   UNL     1      -7.286  14.879  67.518  1.00  0.00    -0.201 A  
HETATM    9  N   UNL     1      -6.259  15.784  67.225  1.00  0.00    -0.318 NA 
HETATM   10  N   UNL     1      -7.005  13.597  67.253  1.00  0.00    -0.128 NA 
HETATM   11  C   UNL     1     -10.072  16.943  68.981  1.00  0.00    -0.292 A  
HETATM   12  N   UNL     1      -9.199  13.017  67.876  1.00  0.00    -0.200 NA 
HETATM   13  H2  UNL     1      -6.077  16.332  68.066  1.00  0.00     0.000 HD 
HETATM   14  C   UNL     1      -7.976  12.693  67.438  1.00  0.00    -0.177 A  
HETATM   15  H1  UNL     1      -5.362  15.474  66.853  1.00  0.00     0.000 HD 
BRANCH  11  16
HETATM   16  O   UNL     1     -10.179  18.274  69.272  1.00  0.00    -0.275 OA 
HETATM   17  C   UNL     1      -9.482  19.220  68.477  1.00  0.00    -0.389 C  
ENDBRANCH  11  16
BRANCH  14  18
HETATM   18  N   UNL     1      -7.712  11.380  67.131  1.00  0.00    -0.144 NA 
HETATM   19  C   UNL     1      -6.685  10.673  67.864  1.00  0.00    -0.064 C  
BRANCH  18  20
HETATM   20  C   UNL     1      -8.569  10.655  66.208  1.00  0.00    -0.153 C  
BRANCH  20  21
HETATM   21  C   UNL     1      -8.954   9.274  66.757  1.00  0.00    -0.154 C  
BRANCH  21  22
HETATM   22  C   UNL     1     -10.272   9.301  67.531  1.00  0.00    -0.242 C  
BRANCH  22  23
HETATM   23  N   UNL     1     -10.481   8.087  68.292  1.00  0.00    -0.312 N  
HETATM   24  C   UNL     1     -10.885   8.099  69.607  1.00  0.00    -0.158 C  
HETATM   25  H   UNL     1     -10.322   7.189  67.836  1.00  0.00     0.000 HD 
HETATM   26  O   UNL     1     -11.075   9.130  70.245  1.00  0.00    -0.240 OA 
BRANCH  24  27
HETATM   27  C   UNL     1     -11.079   6.706  70.221  1.00  0.00    -0.326 C  
HETATM   28  C   UNL     1      -9.852   6.313  71.022  1.00  0.00    -0.206 C  
HETATM   29  C   UNL     1     -10.395   5.251  71.938  1.00  0.00    -0.275 C  
HETATM   30  C   UNL     1     -11.801   5.740  72.215  1.00  0.00    -0.153 C  
HETATM   31  O   UNL     1     -12.190   6.589  71.124  1.00  0.00    -0.335 OA 
ENDBRANCH  24  27
ENDBRANCH  22  23
ENDBRANCH  21  22
ENDBRANCH  20  21
ENDBRANCH  18  20
ENDBRANCH  14  18
ENDBRANCH   2   3
TORSDOF 8
ENDMDL
MODEL      208
REMARK 921   NORMALIZED FREE ENERGY PREDICTED BY IDOCK:   -3.85 KCAL/MOL
REMARK 922        TOTAL FREE ENERGY PREDICTED BY IDOCK:   -7.19 KCAL/MOL
REMARK 923 INTER-LIGAND FREE ENERGY PREDICTED BY IDOCK:   -5.71 KCAL/MOL
REMARK 924 INTRA-LIGAND FREE ENERGY PREDICTED BY IDOCK:   -1.48 KCAL/MOL
REMARK 927      BINDING AFFINITY PREDICTED BY RF-SCORE:    0.00 PKD
ROOT
HETATM    1  C   UNL     1     -10.028   8.827  70.363  1.00  0.00    -0.189 C  
HETATM    2  O   UNL     1      -9.583   7.835  69.438  1.00  0.00    -0.156 OA 
ENDROOT
BRANCH   2   3
HETATM    3  C   UNL     1      -9.336   8.288  68.168  1.00  0.00    -0.133 A  
HETATM    4  C   UNL     1     -10.011   9.409  67.652  1.00  0.00    -0.238 A  
HETATM    5  C   UNL     1      -9.876   9.825  66.337  1.00  0.00    -0.235 A  
HETATM    6  C   UNL     1      -8.991   9.139  65.517  1.00  0.00    -0.252 A  
HETATM    7  C   UNL     1      -8.215   8.083  66.051  1.00  0.00    -0.120 A  
HETATM    8  C   UNL     1      -8.970   9.578  64.194  1.00  0.00    -0.198 A  
HETATM    9  N   UNL     1      -8.089   9.034  63.253  1.00  0.00    -0.161 NA 
HETATM   10  N   UNL     1      -9.762  10.554  63.733  1.00  0.00    -0.313 NA 
HETATM   11  C   UNL     1      -8.387   7.642  67.368  1.00  0.00    -0.116 A  
HETATM   12  N   UNL     1     -10.620  10.846  65.905  1.00  0.00    -0.216 NA 
HETATM   13  H2  UNL     1      -8.226   8.023  63.245  1.00  0.00     0.000 HD 
HETATM   14  C   UNL     1     -10.571  11.169  64.606  1.00  0.00    -0.318 A  
HETATM   15  H1  UNL     1      -8.074   9.356  62.285  1.00  0.00     0.000 HD 
BRANCH  11  16
HETATM   16  O   UNL     1      -7.574   6.585  67.667  1.00  0.00    -0.100 OA 
HETATM   17  C   UNL     1      -7.176   5.696  66.636  1.00  0.00    -0.074 C  
ENDBRANCH  11  16
BRANCH  14  18
HETATM   18  N   UNL     1     -11.360  12.199  64.152  1.00  0.00    -0.353 NA 
HETATM   19  C   UNL     1     -12.438  11.913  63.232  1.00  0.00    -0.384 C  
BRANCH  18  20
HETATM   20  C   UNL     1     -11.228  13.530  64.721  1.00  0.00    -0.352 C  
BRANCH  20  21
HETATM   21  C   UNL     1     -12.513  13.969  65.437  1.00  0.00    -0.520 C  
BRANCH  21  22
HETATM   22  C   UNL     1     -12.330  14.076  66.951  1.00  0.00    -0.286 C  
BRANCH  22  23
HETATM   23  N   UNL     1     -10.934  14.160  67.327  1.00  0.00    -0.292 N  
HETATM   24  C   UNL     1     -10.380  13.357  68.296  1.00  0.00    -0.249 C  
HETATM   25  H   UNL     1     -10.340  14.841  66.856  1.00  0.00     0.000 HD 
HETATM   26  O   UNL     1     -11.022  12.529  68.934  1.00  0.00    -0.237 OA 
BRANCH  24  27
HETATM   27  C   UNL     1      -8.879  13.582  68.521  1.00  0.00    -0.086 C  
HETATM   28  C   UNL     1      -8.202  12.271  68.876  1.00  0.00     0.189 C  
HETATM   29  C   UNL     1      -6.763  12.554  68.540  1.00  0.00    -0.078 C  
HETATM   30  C   UNL     1      -6.877  13.463  67.334  1.00  0.00    -0.066 C  
HETATM   31  O   UNL     1      -8.165  14.097  67.386  1.00  0.00    -0.173 OA 
ENDBRANCH  24  27
ENDBRANCH  22  23
ENDBRANCH  21  22
ENDBRANCH  20  21
ENDBRANCH  18  20
ENDBRANCH  14  18
ENDBRANCH   2   3
TORSDOF 8
ENDMDL
MODEL      209
REMARK 921   NORMALIZED FREE ENERGY PREDICTED BY IDOCK:   -3.84 KCAL/MOL
REMARK 922        TOTAL FREE ENERGY PREDICTED BY IDOCK:   -7.18 KCAL/MOL
REMARK 923 INTER-LIGAND FREE ENERGY PREDICTED BY IDOCK:   -5.69 KCAL/MOL
REMARK 924 INTRA-LIGAND FREE ENERGY PREDICTED BY IDOCK:   -1.49 KCAL/MOL
REMARK 927      BINDING AFFINITY PREDICTED BY RF-SCORE:    0.00 PKD
ROOT
HETATM    1  C   UNL     1     -10.444   4.175  64.480  1.00  0.00    -0.157 C  
HETATM    2  O   UNL     1     -10.490   4.276  65.903  1.00  0.00    -0.200 OA 
ENDROOT
BRANCH   2   3
HETATM    3  C   UNL     1      -9.923   5.409  66.429  1.00  0.00    -0.191 A  
HETATM    4  C   UNL     1     -10.714   6.506  66.814  1.00  0.00    -0.344 A  
HETATM    5  C   UNL     1     -10.171   7.709  67.237  1.00  0.00    -0.272 A  
HETATM    6  C   UNL     1      -8.791   7.807  67.342  1.00  0.00    -0.128 A  
HETATM    7  C   UNL     1      -7.984   6.675  67.073  1.00  0.00    -0.109 A  
HETATM    8  C   UNL     1      -8.327   9.070  67.707  1.00  0.00    -0.117 A  
HETATM    9  N   UNL     1      -6.967   9.322  67.915  1.00  0.00    -0.076 NA 
HETATM   10  N   UNL     1      -9.136  10.119  67.904  1.00  0.00    -0.131 NA 
HETATM   11  C   UNL     1      -8.537   5.477  66.605  1.00  0.00    -0.116 A  
HETATM   12  N   UNL     1     -10.991   8.728  67.499  1.00  0.00    -0.008 NA 
HETATM   13  H2  UNL     1      -6.463   9.035  67.076  1.00  0.00     0.000 HD 
HETATM   14  C   UNL     1     -10.456   9.920  67.797  1.00  0.00    -0.242 A  
HETATM   15  H1  UNL     1      -6.628  10.246  68.182  1.00  0.00     0.000 HD 
BRANCH  11  16
HETATM   16  O   UNL     1      -7.582   4.529  66.365  1.00  0.00    -0.088 OA 
HETATM   17  C   UNL     1      -7.512   3.383  67.198  1.00  0.00    -0.071 C  
ENDBRANCH  11  16
BRANCH  14  18
HETATM   18  N   UNL     1     -11.298  10.979  68.036  1.00  0.00    -0.341 NA 
HETATM   19  C   UNL     1     -11.490  11.978  67.008  1.00  0.00    -0.338 C  
BRANCH  18  20
HETATM   20  C   UNL     1     -12.121  11.007  69.234  1.00  0.00    -0.292 C  
BRANCH  20  21
HETATM   21  C   UNL     1     -11.363  10.467  70.454  1.00  0.00    -0.417 C  
BRANCH  21  22
HETATM   22  C   UNL     1     -11.997   9.196  71.020  1.00  0.00    -0.282 C  
BRANCH  22  23
HETATM   23  N   UNL     1     -11.140   8.040  70.857  1.00  0.00    -0.251 N  
HETATM   24  C   UNL     1     -10.864   7.173  71.888  1.00  0.00    -0.226 C  
HETATM   25  H   UNL     1     -10.726   7.862  69.943  1.00  0.00     0.000 HD 
HETATM   26  O   UNL     1     -11.296   7.320  73.027  1.00  0.00    -0.285 OA 
BRANCH  24  27
HETATM   27  C   UNL     1      -9.961   5.995  71.498  1.00  0.00    -0.177 C  
HETATM   28  C   UNL     1     -10.432   4.727  72.186  1.00  0.00    -0.243 C  
HETATM   29  C   UNL     1      -9.827   3.652  71.324  1.00  0.00    -0.211 C  
HETATM   30  C   UNL     1      -9.890   4.263  69.940  1.00  0.00    -0.197 C  
HETATM   31  O   UNL     1      -9.930   5.691  70.095  1.00  0.00    -0.180 OA 
ENDBRANCH  24  27
ENDBRANCH  22  23
ENDBRANCH  21  22
ENDBRANCH  20  21
ENDBRANCH  18  20
ENDBRANCH  14  18
ENDBRANCH   2   3
TORSDOF 8
ENDMDL
MODEL      210
REMARK 921   NORMALIZED FREE ENERGY PREDICTED BY IDOCK:   -3.84 KCAL/MOL
REMARK 922        TOTAL FREE ENERGY PREDICTED BY IDOCK:   -7.17 KCAL/MOL
REMARK 923 INTER-LIGAND FREE ENERGY PREDICTED BY IDOCK:   -5.72 KCAL/MOL
REMARK 924 INTRA-LIGAND FREE ENERGY PREDICTED BY IDOCK:   -1.45 KCAL/MOL
REMARK 927      BINDING AFFINITY PREDICTED BY RF-SCORE:    0.00 PKD
ROOT
HETATM    1  C   UNL     1      -8.910  13.895  67.184  1.00  0.00    -0.226 C  
HETATM    2  O   UNL     1     -10.231  13.402  66.959  1.00  0.00    -0.244 OA 
ENDROOT
BRANCH   2   3
HETATM    3  C   UNL     1     -10.360  12.037  66.991  1.00  0.00    -0.211 A  
HETATM    4  C   UNL     1     -10.713  11.368  68.176  1.00  0.00    -0.241 A  
HETATM    5  C   UNL     1     -10.738   9.986  68.277  1.00  0.00    -0.240 A  
HETATM    6  C   UNL     1     -10.461   9.238  67.142  1.00  0.00    -0.319 A  
HETATM    7  C   UNL     1     -10.219   9.894  65.911  1.00  0.00    -0.264 A  
HETATM    8  C   UNL     1     -10.439   7.859  67.349  1.00  0.00    -0.290 A  
HETATM    9  N   UNL     1     -10.235   6.961  66.296  1.00  0.00    -0.437 NA 
HETATM   10  N   UNL     1     -10.629   7.295  68.549  1.00  0.00    -0.199 NA 
HETATM   11  C   UNL     1     -10.154  11.289  65.826  1.00  0.00    -0.247 A  
HETATM   12  N   UNL     1     -10.999   9.432  69.464  1.00  0.00    -0.212 NA 
HETATM   13  H2  UNL     1      -9.367   7.220  65.827  1.00  0.00     0.000 HD 
HETATM   14  C   UNL     1     -10.909   8.101  69.582  1.00  0.00    -0.158 A  
HETATM   15  H1  UNL     1     -10.219   5.953  66.448  1.00  0.00     0.000 HD 
BRANCH  11  16
HETATM   16  O   UNL     1      -9.866  11.715  64.560  1.00  0.00    -0.243 OA 
HETATM   17  C   UNL     1     -10.919  12.143  63.711  1.00  0.00    -0.431 C  
ENDBRANCH  11  16
BRANCH  14  18
HETATM   18  N   UNL     1     -11.145   7.530  70.809  1.00  0.00    -0.260 NA 
HETATM   19  C   UNL     1     -12.423   6.904  71.065  1.00  0.00    -0.313 C  
BRANCH  18  20
HETATM   20  C   UNL     1     -10.069   7.399  71.778  1.00  0.00    -0.175 C  
BRANCH  20  21
HETATM   21  C   UNL     1      -9.231   8.682  71.870  1.00  0.00    -0.345 C  
BRANCH  21  22
HETATM   22  C   UNL     1      -7.731   8.396  71.936  1.00  0.00    -0.121 C  
BRANCH  22  23
HETATM   23  N   UNL     1      -7.180   8.073  70.636  1.00  0.00    -0.051 N  
HETATM   24  C   UNL     1      -7.033   9.010  69.641  1.00  0.00    -0.054 C  
HETATM   25  H   UNL     1      -6.889   7.113  70.452  1.00  0.00     0.000 HD 
HETATM   26  O   UNL     1      -7.379  10.182  69.762  1.00  0.00    -0.123 OA 
BRANCH  24  27
HETATM   27  C   UNL     1      -6.400   8.470  68.351  1.00  0.00    -0.055 C  
HETATM   28  C   UNL     1      -6.895   7.061  68.078  1.00  0.00    -0.074 C  
HETATM   29  C   UNL     1      -6.631   6.911  66.604  1.00  0.00    -0.048 C  
HETATM   30  C   UNL     1      -6.886   8.308  66.078  1.00  0.00    -0.064 C  
HETATM   31  O   UNL     1      -6.695   9.226  67.167  1.00  0.00    -0.073 OA 
ENDBRANCH  24  27
ENDBRANCH  22  23
ENDBRANCH  21  22
ENDBRANCH  20  21
ENDBRANCH  18  20
ENDBRANCH  14  18
ENDBRANCH   2   3
TORSDOF 8
ENDMDL
MODEL      211
REMARK 921   NORMALIZED FREE ENERGY PREDICTED BY IDOCK:   -3.82 KCAL/MOL
REMARK 922        TOTAL FREE ENERGY PREDICTED BY IDOCK:   -7.15 KCAL/MOL
REMARK 923 INTER-LIGAND FREE ENERGY PREDICTED BY IDOCK:   -6.55 KCAL/MOL
REMARK 924 INTRA-LIGAND FREE ENERGY PREDICTED BY IDOCK:   -0.60 KCAL/MOL
REMARK 927      BINDING AFFINITY PREDICTED BY RF-SCORE:    0.00 PKD
ROOT
HETATM    1  C   UNL     1     -13.971   9.094  71.731  1.00  0.00    -0.314 C  
HETATM    2  O   UNL     1     -13.036   8.189  72.318  1.00  0.00    -0.285 OA 
ENDROOT
BRANCH   2   3
HETATM    3  C   UNL     1     -11.753   8.283  71.843  1.00  0.00    -0.322 A  
HETATM    4  C   UNL     1     -11.483   8.856  70.588  1.00  0.00    -0.280 A  
HETATM    5  C   UNL     1     -10.217   8.862  70.023  1.00  0.00    -0.199 A  
HETATM    6  C   UNL     1      -9.166   8.333  70.759  1.00  0.00    -0.174 A  
HETATM    7  C   UNL     1      -9.398   7.859  72.072  1.00  0.00    -0.217 A  
HETATM    8  C   UNL     1      -7.944   8.315  70.090  1.00  0.00    -0.106 A  
HETATM    9  N   UNL     1      -6.772   7.870  70.711  1.00  0.00    -0.038 NA 
HETATM   10  N   UNL     1      -7.793   8.735  68.827  1.00  0.00    -0.100 NA 
HETATM   11  C   UNL     1     -10.686   7.817  72.619  1.00  0.00    -0.343 A  
HETATM   12  N   UNL     1     -10.065   9.348  68.789  1.00  0.00    -0.186 NA 
HETATM   13  H2  UNL     1      -6.945   6.931  71.070  1.00  0.00     0.000 HD 
HETATM   14  C   UNL     1      -8.864   9.247  68.206  1.00  0.00    -0.129 A  
HETATM   15  H1  UNL     1      -5.878   7.857  70.221  1.00  0.00     0.000 HD 
BRANCH  11  16
HETATM   16  O   UNL     1     -10.694   7.284  73.877  1.00  0.00    -0.318 OA 
HETATM   17  C   UNL     1     -10.162   5.986  74.089  1.00  0.00    -0.297 C  
ENDBRANCH  11  16
BRANCH  14  18
HETATM   18  N   UNL     1      -8.712   9.717  66.924  1.00  0.00    -0.134 NA 
HETATM   19  C   UNL     1      -9.783   9.535  65.969  1.00  0.00    -0.272 C  
BRANCH  18  20
HETATM   20  C   UNL     1      -7.567  10.542  66.576  1.00  0.00    -0.128 C  
BRANCH  20  21
HETATM   21  C   UNL     1      -7.833  12.027  66.856  1.00  0.00    -0.095 C  
BRANCH  21  22
HETATM   22  C   UNL     1      -8.042  12.313  68.343  1.00  0.00    -0.151 C  
BRANCH  22  23
HETATM   23  N   UNL     1      -8.997  13.378  68.564  1.00  0.00    -0.339 N  
HETATM   24  C   UNL     1     -10.356  13.166  68.559  1.00  0.00    -0.238 C  
HETATM   25  H   UNL     1      -8.649  14.322  68.730  1.00  0.00     0.000 HD 
HETATM   26  O   UNL     1     -10.867  12.071  68.342  1.00  0.00    -0.212 OA 
BRANCH  24  27
HETATM   27  C   UNL     1     -11.193  14.420  68.845  1.00  0.00    -0.262 C  
HETATM   28  C   UNL     1     -12.193  14.138  69.952  1.00  0.00    -0.416 C  
HETATM   29  C   UNL     1     -12.518  15.521  70.448  1.00  0.00    -0.443 C  
HETATM   30  C   UNL     1     -11.198  16.248  70.291  1.00  0.00    -0.333 C  
HETATM   31  O   UNL     1     -10.442  15.566  69.277  1.00  0.00    -0.216 OA 
ENDBRANCH  24  27
ENDBRANCH  22  23
ENDBRANCH  21  22
ENDBRANCH  20  21
ENDBRANCH  18  20
ENDBRANCH  14  18
ENDBRANCH   2   3
TORSDOF 8
ENDMDL
MODEL      212
REMARK 921   NORMALIZED FREE ENERGY PREDICTED BY IDOCK:   -3.82 KCAL/MOL
REMARK 922        TOTAL FREE ENERGY PREDICTED BY IDOCK:   -7.14 KCAL/MOL
REMARK 923 INTER-LIGAND FREE ENERGY PREDICTED BY IDOCK:   -5.67 KCAL/MOL
REMARK 924 INTRA-LIGAND FREE ENERGY PREDICTED BY IDOCK:   -1.47 KCAL/MOL
REMARK 927      BINDING AFFINITY PREDICTED BY RF-SCORE:    0.00 PKD
ROOT
HETATM    1  C   UNL     1      -8.880   8.604  64.872  1.00  0.00    -0.031 C  
HETATM    2  O   UNL     1      -8.813   8.540  66.297  1.00  0.00    -0.138 OA 
ENDROOT
BRANCH   2   3
HETATM    3  C   UNL     1      -8.409   9.694  66.916  1.00  0.00    -0.117 A  
HETATM    4  C   UNL     1      -9.212  10.849  66.897  1.00  0.00    -0.175 A  
HETATM    5  C   UNL     1      -8.787  12.065  67.409  1.00  0.00    -0.178 A  
HETATM    6  C   UNL     1      -7.542  12.124  68.018  1.00  0.00    -0.123 A  
HETATM    7  C   UNL     1      -6.771  10.945  68.153  1.00  0.00    -0.063 A  
HETATM    8  C   UNL     1      -7.165  13.398  68.441  1.00  0.00    -0.110 A  
HETATM    9  N   UNL     1      -5.967  13.620  69.129  1.00  0.00    -0.083 NA 
HETATM   10  N   UNL     1      -7.919  14.488  68.245  1.00  0.00    -0.129 NA 
HETATM   11  C   UNL     1      -7.187   9.730  67.596  1.00  0.00    -0.089 A  
HETATM   12  N   UNL     1      -9.577  13.132  67.270  1.00  0.00    -0.226 NA 
HETATM   13  H2  UNL     1      -5.208  13.241  68.563  1.00  0.00     0.000 HD 
HETATM   14  C   UNL     1      -9.114  14.326  67.663  1.00  0.00    -0.192 A  
HETATM   15  H1  UNL     1      -5.692  14.552  69.438  1.00  0.00     0.000 HD 
BRANCH  11  16
HETATM   16  O   UNL     1      -6.277   8.732  67.801  1.00  0.00    -0.054 OA 
HETATM   17  C   UNL     1      -5.197   8.944  68.697  1.00  0.00    -0.034 C  
ENDBRANCH  11  16
BRANCH  14  18
HETATM   18  N   UNL     1      -9.912  15.432  67.493  1.00  0.00    -0.225 NA 
HETATM   19  C   UNL     1      -9.373  16.600  66.832  1.00  0.00    -0.231 C  
BRANCH  18  20
HETATM   20  C   UNL     1     -11.329  15.371  67.812  1.00  0.00    -0.306 C  
BRANCH  20  21
HETATM   21  C   UNL     1     -11.682  16.281  68.995  1.00  0.00    -0.165 C  
BRANCH  21  22
HETATM   22  C   UNL     1     -11.552  15.567  70.341  1.00  0.00    -0.337 C  
BRANCH  22  23
HETATM   23  N   UNL     1     -11.768  14.140  70.224  1.00  0.00    -0.398 N  
HETATM   24  C   UNL     1     -12.521  13.430  71.128  1.00  0.00    -0.327 C  
HETATM   25  H   UNL     1     -11.345  13.643  69.441  1.00  0.00     0.000 HD 
HETATM   26  O   UNL     1     -13.046  13.937  72.115  1.00  0.00    -0.365 OA 
BRANCH  24  27
HETATM   27  C   UNL     1     -12.653  11.935  70.806  1.00  0.00    -0.234 C  
HETATM   28  C   UNL     1     -11.562  11.512  69.840  1.00  0.00    -0.387 C  
HETATM   29  C   UNL     1     -11.506  10.023  70.053  1.00  0.00    -0.310 C  
HETATM   30  C   UNL     1     -11.805   9.890  71.532  1.00  0.00    -0.365 C  
HETATM   31  O   UNL     1     -12.538  11.057  71.936  1.00  0.00    -0.284 OA 
ENDBRANCH  24  27
ENDBRANCH  22  23
ENDBRANCH  21  22
ENDBRANCH  20  21
ENDBRANCH  18  20
ENDBRANCH  14  18
ENDBRANCH   2   3
TORSDOF 8
ENDMDL
MODEL      213
REMARK 921   NORMALIZED FREE ENERGY PREDICTED BY IDOCK:   -3.81 KCAL/MOL
REMARK 922        TOTAL FREE ENERGY PREDICTED BY IDOCK:   -7.13 KCAL/MOL
REMARK 923 INTER-LIGAND FREE ENERGY PREDICTED BY IDOCK:   -6.45 KCAL/MOL
REMARK 924 INTRA-LIGAND FREE ENERGY PREDICTED BY IDOCK:   -0.68 KCAL/MOL
REMARK 927      BINDING AFFINITY PREDICTED BY RF-SCORE:    0.00 PKD
ROOT
HETATM    1  C   UNL     1     -11.690  16.380  64.369  1.00  0.00     0.177 C  
HETATM    2  O   UNL     1     -12.013  14.996  64.233  1.00  0.00    -0.418 OA 
ENDROOT
BRANCH   2   3
HETATM    3  C   UNL     1     -11.391  14.160  65.124  1.00  0.00    -0.336 A  
HETATM    4  C   UNL     1     -10.265  14.581  65.853  1.00  0.00    -0.339 A  
HETATM    5  C   UNL     1      -9.541  13.730  66.672  1.00  0.00    -0.288 A  
HETATM    6  C   UNL     1      -9.987  12.424  66.823  1.00  0.00    -0.234 A  
HETATM    7  C   UNL     1     -11.187  12.016  66.192  1.00  0.00    -0.394 A  
HETATM    8  C   UNL     1      -9.163  11.619  67.607  1.00  0.00    -0.178 A  
HETATM    9  N   UNL     1      -9.500  10.295  67.909  1.00  0.00    -0.141 NA 
HETATM   10  N   UNL     1      -8.013  12.048  68.142  1.00  0.00    -0.144 NA 
HETATM   11  C   UNL     1     -11.889  12.869  65.333  1.00  0.00    -0.403 A  
HETATM   12  N   UNL     1      -8.432  14.188  67.258  1.00  0.00    -0.208 NA 
HETATM   13  H2  UNL     1      -9.669   9.807  67.029  1.00  0.00     0.000 HD 
HETATM   14  C   UNL     1      -7.676  13.331  67.955  1.00  0.00    -0.147 A  
HETATM   15  H1  UNL     1      -8.897   9.706  68.483  1.00  0.00     0.000 HD 
BRANCH  11  16
HETATM   16  O   UNL     1     -12.990  12.264  64.795  1.00  0.00    -0.713 OA 
HETATM   17  C   UNL     1     -12.904  11.674  63.507  1.00  0.00    -0.063 C  
ENDBRANCH  11  16
BRANCH  14  18
HETATM   18  N   UNL     1      -6.518  13.792  68.533  1.00  0.00    -0.085 NA 
HETATM   19  C   UNL     1      -5.273  13.693  67.803  1.00  0.00    -0.032 C  
BRANCH  18  20
HETATM   20  C   UNL     1      -6.565  14.529  69.785  1.00  0.00    -0.158 C  
BRANCH  20  21
HETATM   21  C   UNL     1      -7.038  15.974  69.574  1.00  0.00    -0.181 C  
BRANCH  21  22
HETATM   22  C   UNL     1      -5.877  16.967  69.521  1.00  0.00    -0.203 C  
BRANCH  22  23
HETATM   23  N   UNL     1      -6.083  17.993  68.520  1.00  0.00    -0.187 N  
HETATM   24  C   UNL     1      -6.372  19.297  68.846  1.00  0.00    -0.258 C  
HETATM   25  H   UNL     1      -6.011  17.739  67.535  1.00  0.00     0.000 HD 
HETATM   26  O   UNL     1      -6.504  19.690  70.001  1.00  0.00    -0.306 OA 
BRANCH  24  27
HETATM   27  C   UNL     1      -6.521  20.233  67.639  1.00  0.00    -0.244 C  
HETATM   28  C   UNL     1      -5.218  20.297  66.865  1.00  0.00    -0.167 C  
HETATM   29  C   UNL     1      -5.673  20.777  65.513  1.00  0.00    -0.259 C  
HETATM   30  C   UNL     1      -7.029  20.119  65.367  1.00  0.00    -0.296 C  
HETATM   31  O   UNL     1      -7.524  19.842  66.687  1.00  0.00    -0.241 OA 
ENDBRANCH  24  27
ENDBRANCH  22  23
ENDBRANCH  21  22
ENDBRANCH  20  21
ENDBRANCH  18  20
ENDBRANCH  14  18
ENDBRANCH   2   3
TORSDOF 8
ENDMDL
MODEL      214
REMARK 921   NORMALIZED FREE ENERGY PREDICTED BY IDOCK:   -3.78 KCAL/MOL
REMARK 922        TOTAL FREE ENERGY PREDICTED BY IDOCK:   -7.08 KCAL/MOL
REMARK 923 INTER-LIGAND FREE ENERGY PREDICTED BY IDOCK:   -6.52 KCAL/MOL
REMARK 924 INTRA-LIGAND FREE ENERGY PREDICTED BY IDOCK:   -0.57 KCAL/MOL
REMARK 927      BINDING AFFINITY PREDICTED BY RF-SCORE:    0.00 PKD
ROOT
HETATM    1  C   UNL     1      -8.480   2.378  70.524  1.00  0.00    -0.050 C  
HETATM    2  O   UNL     1      -8.933   2.815  71.805  1.00  0.00    -0.076 OA 
ENDROOT
BRANCH   2   3
HETATM    3  C   UNL     1      -9.717   3.940  71.796  1.00  0.00    -0.173 A  
HETATM    4  C   UNL     1      -9.633   4.877  70.751  1.00  0.00    -0.251 A  
HETATM    5  C   UNL     1     -10.321   6.080  70.766  1.00  0.00    -0.224 A  
HETATM    6  C   UNL     1     -11.174   6.337  71.829  1.00  0.00    -0.334 A  
HETATM    7  C   UNL     1     -11.364   5.354  72.830  1.00  0.00    -0.358 A  
HETATM    8  C   UNL     1     -11.771   7.596  71.800  1.00  0.00    -0.283 A  
HETATM    9  N   UNL     1     -12.705   7.990  72.765  1.00  0.00    -0.537 NA 
HETATM   10  N   UNL     1     -11.518   8.505  70.850  1.00  0.00    -0.268 NA 
HETATM   11  C   UNL     1     -10.633   4.160  72.831  1.00  0.00    -0.167 A  
HETATM   12  N   UNL     1     -10.115   6.951  69.776  1.00  0.00    -0.182 NA 
HETATM   13  H2  UNL     1     -12.277   7.868  73.682  1.00  0.00     0.000 HD 
HETATM   14  C   UNL     1     -10.693   8.157  69.854  1.00  0.00    -0.241 A  
HETATM   15  H1  UNL     1     -13.142   8.911  72.743  1.00  0.00     0.000 HD 
BRANCH  11  16
HETATM   16  O   UNL     1     -10.935   3.373  73.907  1.00  0.00    -0.212 OA 
HETATM   17  C   UNL     1     -11.492   2.086  73.696  1.00  0.00    -0.213 C  
ENDBRANCH  11  16
BRANCH  14  18
HETATM   18  N   UNL     1     -10.458   9.068  68.852  1.00  0.00    -0.219 NA 
HETATM   19  C   UNL     1     -10.659   8.675  67.475  1.00  0.00    -0.222 C  
BRANCH  18  20
HETATM   20  C   UNL     1     -10.181  10.458  69.174  1.00  0.00    -0.222 C  
BRANCH  20  21
HETATM   21  C   UNL     1      -8.692  10.791  69.011  1.00  0.00    -0.136 C  
BRANCH  21  22
HETATM   22  C   UNL     1      -8.387  11.460  67.671  1.00  0.00    -0.129 C  
BRANCH  22  23
HETATM   23  N   UNL     1      -9.414  12.406  67.287  1.00  0.00    -0.187 N  
HETATM   24  C   UNL     1      -9.122  13.670  66.830  1.00  0.00    -0.217 C  
HETATM   25  H   UNL     1     -10.391  12.124  67.358  1.00  0.00     0.000 HD 
HETATM   26  O   UNL     1      -7.979  14.106  66.736  1.00  0.00     0.063 OA 
BRANCH  24  27
HETATM   27  C   UNL     1     -10.353  14.503  66.446  1.00  0.00    -0.293 C  
HETATM   28  C   UNL     1      -9.992  15.492  65.353  1.00  0.00    -0.339 C  
HETATM   29  C   UNL     1     -11.336  15.811  64.756  1.00  0.00    -0.319 C  
HETATM   30  C   UNL     1     -12.071  14.492  64.872  1.00  0.00    -0.416 C  
HETATM   31  O   UNL     1     -11.464  13.747  65.940  1.00  0.00    -0.311 OA 
ENDBRANCH  24  27
ENDBRANCH  22  23
ENDBRANCH  21  22
ENDBRANCH  20  21
ENDBRANCH  18  20
ENDBRANCH  14  18
ENDBRANCH   2   3
TORSDOF 8
ENDMDL
MODEL      215
REMARK 921   NORMALIZED FREE ENERGY PREDICTED BY IDOCK:   -3.78 KCAL/MOL
REMARK 922        TOTAL FREE ENERGY PREDICTED BY IDOCK:   -7.08 KCAL/MOL
REMARK 923 INTER-LIGAND FREE ENERGY PREDICTED BY IDOCK:   -6.34 KCAL/MOL
REMARK 924 INTRA-LIGAND FREE ENERGY PREDICTED BY IDOCK:   -0.74 KCAL/MOL
REMARK 927      BINDING AFFINITY PREDICTED BY RF-SCORE:    0.00 PKD
ROOT
HETATM    1  C   UNL     1      -5.977   9.658  63.208  1.00  0.00    -0.101 C  
HETATM    2  O   UNL     1      -5.914   8.961  64.452  1.00  0.00    -0.065 OA 
ENDROOT
BRANCH   2   3
HETATM    3  C   UNL     1      -7.126   8.688  65.032  1.00  0.00    -0.080 A  
HETATM    4  C   UNL     1      -7.867   9.695  65.676  1.00  0.00    -0.107 A  
HETATM    5  C   UNL     1      -9.036   9.435  66.374  1.00  0.00    -0.152 A  
HETATM    6  C   UNL     1      -9.522   8.135  66.383  1.00  0.00    -0.285 A  
HETATM    7  C   UNL     1      -8.854   7.131  65.641  1.00  0.00    -0.043 A  
HETATM    8  C   UNL     1     -10.661   7.949  67.164  1.00  0.00    -0.313 A  
HETATM    9  N   UNL     1     -11.312   6.712  67.232  1.00  0.00    -0.783 NA 
HETATM   10  N   UNL     1     -11.224   8.928  67.883  1.00  0.00     0.309 NA 
HETATM   11  C   UNL     1      -7.651   7.393  64.974  1.00  0.00    -0.103 A  
HETATM   12  N   UNL     1      -9.629  10.434  67.031  1.00  0.00    -0.163 NA 
HETATM   13  H2  UNL     1     -10.624   6.011  67.509  1.00  0.00     0.000 HD 
HETATM   14  C   UNL     1     -10.692  10.154  67.796  1.00  0.00    -0.277 A  
HETATM   15  H1  UNL     1     -12.145   6.577  67.803  1.00  0.00     0.000 HD 
BRANCH  11  16
HETATM   16  O   UNL     1      -7.151   6.279  64.360  1.00  0.00    -0.052 OA 
HETATM   17  C   UNL     1      -8.044   5.299  63.855  1.00  0.00    -0.117 C  
ENDBRANCH  11  16
BRANCH  14  18
HETATM   18  N   UNL     1     -11.286  11.175  68.498  1.00  0.00    -0.256 NA 
HETATM   19  C   UNL     1     -11.577  10.993  69.903  1.00  0.00    -0.337 C  
BRANCH  18  20
HETATM   20  C   UNL     1     -11.461  12.482  67.887  1.00  0.00    -0.315 C  
BRANCH  20  21
HETATM   21  C   UNL     1     -10.878  13.599  68.763  1.00  0.00    -0.279 C  
BRANCH  21  22
HETATM   22  C   UNL     1      -9.558  14.143  68.216  1.00  0.00    -0.226 C  
BRANCH  22  23
HETATM   23  N   UNL     1      -9.655  15.541  67.850  1.00  0.00    -0.206 N  
HETATM   24  C   UNL     1      -8.872  16.512  68.428  1.00  0.00    -0.218 C  
HETATM   25  H   UNL     1     -10.329  15.815  67.136  1.00  0.00     0.000 HD 
HETATM   26  O   UNL     1      -8.053  16.280  69.312  1.00  0.00    -0.237 OA 
BRANCH  24  27
HETATM   27  C   UNL     1      -9.107  17.925  67.877  1.00  0.00    -0.260 C  
HETATM   28  C   UNL     1     -10.331  17.937  66.980  1.00  0.00    -0.366 C  
HETATM   29  C   UNL     1     -10.709  19.394  66.976  1.00  0.00    -0.582 C  
HETATM   30  C   UNL     1     -10.346  19.833  68.380  1.00  0.00    -0.391 C  
HETATM   31  O   UNL     1      -9.340  18.934  68.872  1.00  0.00    -0.341 OA 
ENDBRANCH  24  27
ENDBRANCH  22  23
ENDBRANCH  21  22
ENDBRANCH  20  21
ENDBRANCH  18  20
ENDBRANCH  14  18
ENDBRANCH   2   3
TORSDOF 8
ENDMDL
MODEL      216
REMARK 921   NORMALIZED FREE ENERGY PREDICTED BY IDOCK:   -3.78 KCAL/MOL
REMARK 922        TOTAL FREE ENERGY PREDICTED BY IDOCK:   -7.08 KCAL/MOL
REMARK 923 INTER-LIGAND FREE ENERGY PREDICTED BY IDOCK:   -7.06 KCAL/MOL
REMARK 924 INTRA-LIGAND FREE ENERGY PREDICTED BY IDOCK:   -0.02 KCAL/MOL
REMARK 927      BINDING AFFINITY PREDICTED BY RF-SCORE:    0.00 PKD
ROOT
HETATM    1  C   UNL     1      -7.371   6.351  68.873  1.00  0.00    -0.086 C  
HETATM    2  O   UNL     1      -8.557   5.610  69.159  1.00  0.00    -0.104 OA 
ENDROOT
BRANCH   2   3
HETATM    3  C   UNL     1      -9.573   6.329  69.732  1.00  0.00    -0.151 A  
HETATM    4  C   UNL     1      -9.786   7.679  69.400  1.00  0.00    -0.171 A  
HETATM    5  C   UNL     1     -10.726   8.470  70.042  1.00  0.00    -0.232 A  
HETATM    6  C   UNL     1     -11.528   7.884  71.010  1.00  0.00    -0.298 A  
HETATM    7  C   UNL     1     -11.410   6.498  71.275  1.00  0.00    -0.355 A  
HETATM    8  C   UNL     1     -12.395   8.765  71.654  1.00  0.00    -0.337 A  
HETATM    9  N   UNL     1     -13.315   8.324  72.612  1.00  0.00    -0.591 NA 
HETATM   10  N   UNL     1     -12.431  10.078  71.394  1.00  0.00    -0.378 NA 
HETATM   11  C   UNL     1     -10.430   5.715  70.653  1.00  0.00    -0.270 A  
HETATM   12  N   UNL     1     -10.802   9.764  69.725  1.00  0.00    -0.244 NA 
HETATM   13  H2  UNL     1     -12.798   7.814  73.329  1.00  0.00     0.000 HD 
HETATM   14  C   UNL     1     -11.630  10.547  70.428  1.00  0.00    -0.342 A  
HETATM   15  H1  UNL     1     -13.949   8.969  73.082  1.00  0.00     0.000 HD 
BRANCH  11  16
HETATM   16  O   UNL     1     -10.459   4.418  71.082  1.00  0.00    -0.045 OA 
HETATM   17  C   UNL     1      -9.732   3.430  70.369  1.00  0.00    -0.080 C  
ENDBRANCH  11  16
BRANCH  14  18
HETATM   18  N   UNL     1     -11.688  11.887  70.126  1.00  0.00    -0.295 NA 
HETATM   19  C   UNL     1     -12.465  12.771  70.967  1.00  0.00    -0.277 C  
BRANCH  18  20
HETATM   20  C   UNL     1     -10.840  12.441  69.083  1.00  0.00    -0.097 C  
BRANCH  20  21
HETATM   21  C   UNL     1     -11.514  12.363  67.706  1.00  0.00    -0.383 C  
BRANCH  21  22
HETATM   22  C   UNL     1     -10.639  12.942  66.594  1.00  0.00    -0.261 C  
BRANCH  22  23
HETATM   23  N   UNL     1      -9.934  14.134  67.020  1.00  0.00    -0.255 N  
HETATM   24  C   UNL     1     -10.225  15.382  66.523  1.00  0.00    -0.280 C  
HETATM   25  H   UNL     1      -9.194  14.043  67.716  1.00  0.00     0.000 HD 
HETATM   26  O   UNL     1     -11.079  15.584  65.665  1.00  0.00    -0.308 OA 
BRANCH  24  27
HETATM   27  C   UNL     1      -9.385  16.515  67.128  1.00  0.00    -0.233 C  
HETATM   28  C   UNL     1      -8.256  15.939  67.962  1.00  0.00    -0.150 C  
HETATM   29  C   UNL     1      -7.282  17.085  68.016  1.00  0.00    -0.172 C  
HETATM   30  C   UNL     1      -7.452  17.728  66.655  1.00  0.00    -0.228 C  
HETATM   31  O   UNL     1      -8.761  17.387  66.172  1.00  0.00    -0.439 OA 
ENDBRANCH  24  27
ENDBRANCH  22  23
ENDBRANCH  21  22
ENDBRANCH  20  21
ENDBRANCH  18  20
ENDBRANCH  14  18
ENDBRANCH   2   3
TORSDOF 8
ENDMDL
MODEL      217
REMARK 921   NORMALIZED FREE ENERGY PREDICTED BY IDOCK:   -3.77 KCAL/MOL
REMARK 922        TOTAL FREE ENERGY PREDICTED BY IDOCK:   -7.07 KCAL/MOL
REMARK 923 INTER-LIGAND FREE ENERGY PREDICTED BY IDOCK:   -6.98 KCAL/MOL
REMARK 924 INTRA-LIGAND FREE ENERGY PREDICTED BY IDOCK:   -0.09 KCAL/MOL
REMARK 927      BINDING AFFINITY PREDICTED BY RF-SCORE:    0.00 PKD
ROOT
HETATM    1  C   UNL     1      -5.249  15.457  68.073  1.00  0.00    -0.127 C  
HETATM    2  O   UNL     1      -6.191  16.520  68.217  1.00  0.00    -0.119 OA 
ENDROOT
BRANCH   2   3
HETATM    3  C   UNL     1      -7.341  16.387  67.483  1.00  0.00    -0.145 A  
HETATM    4  C   UNL     1      -8.004  15.151  67.388  1.00  0.00    -0.215 A  
HETATM    5  C   UNL     1      -9.100  14.949  66.564  1.00  0.00    -0.277 A  
HETATM    6  C   UNL     1      -9.594  16.032  65.850  1.00  0.00    -0.370 A  
HETATM    7  C   UNL     1      -9.013  17.311  66.024  1.00  0.00    -0.111 A  
HETATM    8  C   UNL     1     -10.651  15.726  64.994  1.00  0.00    -0.371 A  
HETATM    9  N   UNL     1     -11.303  16.714  64.249  1.00  0.00    -1.364 NA 
HETATM   10  N   UNL     1     -11.130  14.485  64.836  1.00  0.00    -0.377 NA 
HETATM   11  C   UNL     1      -7.881  17.497  66.825  1.00  0.00    -0.230 A  
HETATM   12  N   UNL     1      -9.615  13.721  66.467  1.00  0.00    -0.282 NA 
HETATM   13  H2  UNL     1     -10.598  17.215  63.708  1.00  0.00     0.000 HD 
HETATM   14  C   UNL     1     -10.599  13.509  65.583  1.00  0.00    -0.284 A  
HETATM   15  H1  UNL     1     -12.076  16.489  63.623  1.00  0.00     0.000 HD 
BRANCH  11  16
HETATM   16  O   UNL     1      -7.456  18.796  66.820  1.00  0.00    -0.213 OA 
HETATM   17  C   UNL     1      -8.410  19.844  66.744  1.00  0.00    -0.322 C  
ENDBRANCH  11  16
BRANCH  14  18
HETATM   18  N   UNL     1     -11.110  12.239  65.458  1.00  0.00    -0.297 NA 
HETATM   19  C   UNL     1     -10.947  11.529  64.208  1.00  0.00    -0.341 C  
BRANCH  18  20
HETATM   20  C   UNL     1     -11.652  11.549  66.616  1.00  0.00    -0.013 C  
BRANCH  20  21
HETATM   21  C   UNL     1     -11.248  12.239  67.927  1.00  0.00    -0.328 C  
BRANCH  21  22
HETATM   22  C   UNL     1     -10.139  11.489  68.664  1.00  0.00    -0.207 C  
BRANCH  22  23
HETATM   23  N   UNL     1      -9.389  10.619  67.782  1.00  0.00    -0.146 N  
HETATM   24  C   UNL     1      -9.509   9.250  67.816  1.00  0.00    -0.140 C  
HETATM   25  H   UNL     1      -8.747  11.039  67.110  1.00  0.00     0.000 HD 
HETATM   26  O   UNL     1     -10.235   8.656  68.606  1.00  0.00    -0.187 OA 
BRANCH  24  27
HETATM   27  C   UNL     1      -8.651   8.515  66.777  1.00  0.00    -0.114 C  
HETATM   28  C   UNL     1      -7.256   8.280  67.325  1.00  0.00    -0.084 C  
HETATM   29  C   UNL     1      -6.762   7.148  66.466  1.00  0.00    -0.057 C  
HETATM   30  C   UNL     1      -8.021   6.340  66.227  1.00  0.00    -0.110 C  
HETATM   31  O   UNL     1      -9.143   7.222  66.388  1.00  0.00    -0.152 OA 
ENDBRANCH  24  27
ENDBRANCH  22  23
ENDBRANCH  21  22
ENDBRANCH  20  21
ENDBRANCH  18  20
ENDBRANCH  14  18
ENDBRANCH   2   3
TORSDOF 8
ENDMDL
MODEL      218
REMARK 921   NORMALIZED FREE ENERGY PREDICTED BY IDOCK:   -3.76 KCAL/MOL
REMARK 922        TOTAL FREE ENERGY PREDICTED BY IDOCK:   -7.06 KCAL/MOL
REMARK 923 INTER-LIGAND FREE ENERGY PREDICTED BY IDOCK:   -5.61 KCAL/MOL
REMARK 924 INTRA-LIGAND FREE ENERGY PREDICTED BY IDOCK:   -1.46 KCAL/MOL
REMARK 927      BINDING AFFINITY PREDICTED BY RF-SCORE:    0.00 PKD
ROOT
HETATM    1  C   UNL     1      -7.959   8.180  67.223  1.00  0.00    -0.113 C  
HETATM    2  O   UNL     1      -8.562   8.897  68.300  1.00  0.00    -0.132 OA 
ENDROOT
BRANCH   2   3
HETATM    3  C   UNL     1      -8.010  10.122  68.570  1.00  0.00    -0.104 A  
HETATM    4  C   UNL     1      -8.500  11.291  67.963  1.00  0.00    -0.138 A  
HETATM    5  C   UNL     1      -7.895  12.528  68.119  1.00  0.00    -0.151 A  
HETATM    6  C   UNL     1      -6.795  12.620  68.960  1.00  0.00    -0.083 A  
HETATM    7  C   UNL     1      -6.359  11.478  69.673  1.00  0.00    -0.133 A  
HETATM    8  C   UNL     1      -6.206  13.883  69.005  1.00  0.00    -0.094 A  
HETATM    9  N   UNL     1      -5.126  14.161  69.850  1.00  0.00    -0.092 NA 
HETATM   10  N   UNL     1      -6.635  14.918  68.271  1.00  0.00    -0.104 NA 
HETATM   11  C   UNL     1      -6.949  10.224  69.478  1.00  0.00    -0.096 A  
HETATM   12  N   UNL     1      -8.374  13.570  67.436  1.00  0.00    -0.186 NA 
HETATM   13  H2  UNL     1      -4.392  13.481  69.653  1.00  0.00     0.000 HD 
HETATM   14  C   UNL     1      -7.716  14.735  67.502  1.00  0.00    -0.194 A  
HETATM   15  H1  UNL     1      -4.696  15.085  69.882  1.00  0.00     0.000 HD 
BRANCH  11  16
HETATM   16  O   UNL     1      -6.350   9.251  70.228  1.00  0.00    -0.042 OA 
HETATM   17  C   UNL     1      -5.832   9.576  71.508  1.00  0.00    -0.051 C  
ENDBRANCH  11  16
BRANCH  14  18
HETATM   18  N   UNL     1      -8.189  15.801  66.775  1.00  0.00    -0.249 NA 
HETATM   19  C   UNL     1      -7.289  16.880  66.434  1.00  0.00    -0.267 C  
BRANCH  18  20
HETATM   20  C   UNL     1      -9.525  15.767  66.205  1.00  0.00    -0.317 C  
BRANCH  20  21
HETATM   21  C   UNL     1     -10.309  17.047  66.523  1.00  0.00    -0.298 C  
BRANCH  21  22
HETATM   22  C   UNL     1     -10.903  17.035  67.931  1.00  0.00    -0.302 C  
BRANCH  22  23
HETATM   23  N   UNL     1     -11.602  15.799  68.217  1.00  0.00    -0.342 N  
HETATM   24  C   UNL     1     -11.193  14.928  69.199  1.00  0.00    -0.279 C  
HETATM   25  H   UNL     1     -12.429  15.565  67.669  1.00  0.00     0.000 HD 
HETATM   26  O   UNL     1     -10.195  15.112  69.891  1.00  0.00    -0.234 OA 
BRANCH  24  27
HETATM   27  C   UNL     1     -12.089  13.693  69.363  1.00  0.00    -0.314 C  
HETATM   28  C   UNL     1     -11.679  12.617  68.374  1.00  0.00    -0.377 C  
HETATM   29  C   UNL     1     -12.249  11.374  69.002  1.00  0.00    -0.200 C  
HETATM   30  C   UNL     1     -12.093  11.650  70.483  1.00  0.00    -0.366 C  
HETATM   31  O   UNL     1     -12.040  13.075  70.658  1.00  0.00    -0.348 OA 
ENDBRANCH  24  27
ENDBRANCH  22  23
ENDBRANCH  21  22
ENDBRANCH  20  21
ENDBRANCH  18  20
ENDBRANCH  14  18
ENDBRANCH   2   3
TORSDOF 8
ENDMDL
MODEL      219
REMARK 921   NORMALIZED FREE ENERGY PREDICTED BY IDOCK:   -3.76 KCAL/MOL
REMARK 922        TOTAL FREE ENERGY PREDICTED BY IDOCK:   -7.05 KCAL/MOL
REMARK 923 INTER-LIGAND FREE ENERGY PREDICTED BY IDOCK:   -6.43 KCAL/MOL
REMARK 924 INTRA-LIGAND FREE ENERGY PREDICTED BY IDOCK:   -0.62 KCAL/MOL
REMARK 927      BINDING AFFINITY PREDICTED BY RF-SCORE:    0.00 PKD
ROOT
HETATM    1  C   UNL     1     -12.151  14.236  64.513  1.00  0.00    -0.480 C  
HETATM    2  O   UNL     1     -11.537  15.523  64.575  1.00  0.00    -0.399 OA 
ENDROOT
BRANCH   2   3
HETATM    3  C   UNL     1     -10.477  15.625  65.438  1.00  0.00    -0.411 A  
HETATM    4  C   UNL     1      -9.841  14.480  65.948  1.00  0.00    -0.347 A  
HETATM    5  C   UNL     1      -8.846  14.540  66.910  1.00  0.00    -0.234 A  
HETATM    6  C   UNL     1      -8.421  15.790  67.339  1.00  0.00    -0.191 A  
HETATM    7  C   UNL     1      -8.965  16.956  66.750  1.00  0.00    -0.264 A  
HETATM    8  C   UNL     1      -7.468  15.759  68.356  1.00  0.00    -0.121 A  
HETATM    9  N   UNL     1      -6.890  16.929  68.859  1.00  0.00    -0.196 NA 
HETATM   10  N   UNL     1      -7.023  14.623  68.908  1.00  0.00    -0.105 NA 
HETATM   11  C   UNL     1      -9.999  16.887  65.810  1.00  0.00    -0.184 A  
HETATM   12  N   UNL     1      -8.358  13.400  67.404  1.00  0.00    -0.182 NA 
HETATM   13  H2  UNL     1      -7.646  17.548  69.156  1.00  0.00     0.000 HD 
HETATM   14  C   UNL     1      -7.479  13.465  68.413  1.00  0.00    -0.117 A  
HETATM   15  H1  UNL     1      -6.194  16.906  69.603  1.00  0.00     0.000 HD 
BRANCH  11  16
HETATM   16  O   UNL     1     -10.409  18.126  65.403  1.00  0.00    -0.537 OA 
HETATM   17  C   UNL     1     -10.107  19.258  66.203  1.00  0.00    -0.442 C  
ENDBRANCH  11  16
BRANCH  14  18
HETATM   18  N   UNL     1      -6.999  12.293  68.946  1.00  0.00    -0.102 NA 
HETATM   19  C   UNL     1      -6.009  12.345  69.999  1.00  0.00    -0.149 C  
BRANCH  18  20
HETATM   20  C   UNL     1      -7.602  11.021  68.583  1.00  0.00    -0.124 C  
BRANCH  20  21
HETATM   21  C   UNL     1      -8.031  10.224  69.823  1.00  0.00    -0.139 C  
BRANCH  21  22
HETATM   22  C   UNL     1      -9.478   9.740  69.735  1.00  0.00    -0.228 C  
BRANCH  22  23
HETATM   23  N   UNL     1      -9.754   8.671  70.671  1.00  0.00    -0.175 N  
HETATM   24  C   UNL     1     -10.269   7.458  70.279  1.00  0.00    -0.200 C  
HETATM   25  H   UNL     1      -9.558   8.823  71.661  1.00  0.00     0.000 HD 
HETATM   26  O   UNL     1     -10.559   7.193  69.117  1.00  0.00    -0.210 OA 
BRANCH  24  27
HETATM   27  C   UNL     1     -10.456   6.451  71.422  1.00  0.00    -0.218 C  
HETATM   28  C   UNL     1      -9.474   5.304  71.273  1.00  0.00    -0.197 C  
HETATM   29  C   UNL     1      -9.422   4.745  72.669  1.00  0.00    -0.159 C  
HETATM   30  C   UNL     1      -9.574   5.984  73.528  1.00  0.00    -0.142 C  
HETATM   31  O   UNL     1     -10.244   6.981  72.740  1.00  0.00    -0.181 OA 
ENDBRANCH  24  27
ENDBRANCH  22  23
ENDBRANCH  21  22
ENDBRANCH  20  21
ENDBRANCH  18  20
ENDBRANCH  14  18
ENDBRANCH   2   3
TORSDOF 8
ENDMDL
MODEL      220
REMARK 921   NORMALIZED FREE ENERGY PREDICTED BY IDOCK:   -3.74 KCAL/MOL
REMARK 922        TOTAL FREE ENERGY PREDICTED BY IDOCK:   -7.03 KCAL/MOL
REMARK 923 INTER-LIGAND FREE ENERGY PREDICTED BY IDOCK:   -5.81 KCAL/MOL
REMARK 924 INTRA-LIGAND FREE ENERGY PREDICTED BY IDOCK:   -1.22 KCAL/MOL
REMARK 927      BINDING AFFINITY PREDICTED BY RF-SCORE:    0.00 PKD
ROOT
HETATM    1  C   UNL     1     -13.777   9.474  71.185  1.00  0.00    -0.101 C  
HETATM    2  O   UNL     1     -12.780   9.385  72.202  1.00  0.00    -0.384 OA 
ENDROOT
BRANCH   2   3
HETATM    3  C   UNL     1     -11.503   9.169  71.752  1.00  0.00    -0.381 A  
HETATM    4  C   UNL     1     -10.944   9.965  70.736  1.00  0.00    -0.407 A  
HETATM    5  C   UNL     1      -9.705   9.704  70.175  1.00  0.00    -0.254 A  
HETATM    6  C   UNL     1      -8.962   8.647  70.682  1.00  0.00    -0.199 A  
HETATM    7  C   UNL     1      -9.456   7.908  71.784  1.00  0.00    -0.205 A  
HETATM    8  C   UNL     1      -7.761   8.411  70.015  1.00  0.00    -0.090 A  
HETATM    9  N   UNL     1      -6.866   7.423  70.439  1.00  0.00    -0.051 NA 
HETATM   10  N   UNL     1      -7.366   9.115  68.947  1.00  0.00    -0.073 NA 
HETATM   11  C   UNL     1     -10.727   8.151  72.318  1.00  0.00    -0.313 A  
HETATM   12  N   UNL     1      -9.289  10.457  69.154  1.00  0.00    -0.196 NA 
HETATM   13  H2  UNL     1      -7.376   6.540  70.488  1.00  0.00     0.000 HD 
HETATM   14  C   UNL     1      -8.143  10.128  68.542  1.00  0.00    -0.106 A  
HETATM   15  H1  UNL     1      -5.988   7.251  69.951  1.00  0.00     0.000 HD 
BRANCH  11  16
HETATM   16  O   UNL     1     -11.025   7.299  73.344  1.00  0.00    -0.358 OA 
HETATM   17  C   UNL     1     -10.873   5.901  73.157  1.00  0.00    -0.266 C  
ENDBRANCH  11  16
BRANCH  14  18
HETATM   18  N   UNL     1      -7.728  10.882  67.471  1.00  0.00    -0.107 NA 
HETATM   19  C   UNL     1      -7.890  12.319  67.510  1.00  0.00    -0.166 C  
BRANCH  18  20
HETATM   20  C   UNL     1      -6.977  10.269  66.388  1.00  0.00    -0.111 C  
BRANCH  20  21
HETATM   21  C   UNL     1      -7.634  10.527  65.026  1.00  0.00    -0.026 C  
BRANCH  21  22
HETATM   22  C   UNL     1      -9.044   9.942  64.937  1.00  0.00    -0.224 C  
BRANCH  22  23
HETATM   23  N   UNL     1     -10.054  10.971  64.803  1.00  0.00    -0.283 N  
HETATM   24  C   UNL     1     -11.160  11.032  65.617  1.00  0.00     0.063 C  
HETATM   25  H   UNL     1      -9.940  11.679  64.078  1.00  0.00     0.000 HD 
HETATM   26  O   UNL     1     -11.395  10.211  66.499  1.00  0.00     0.199 OA 
BRANCH  24  27
HETATM   27  C   UNL     1     -12.091  12.219  65.332  1.00  0.00    -0.276 C  
HETATM   28  C   UNL     1     -11.807  13.350  66.303  1.00  0.00    -0.438 C  
HETATM   29  C   UNL     1     -12.376  14.541  65.580  1.00  0.00    -0.272 C  
HETATM   30  C   UNL     1     -12.091  14.214  64.128  1.00  0.00    -0.406 C  
HETATM   31  O   UNL     1     -11.965  12.787  64.019  1.00  0.00    -0.380 OA 
ENDBRANCH  24  27
ENDBRANCH  22  23
ENDBRANCH  21  22
ENDBRANCH  20  21
ENDBRANCH  18  20
ENDBRANCH  14  18
ENDBRANCH   2   3
TORSDOF 8
ENDMDL
MODEL      221
REMARK 921   NORMALIZED FREE ENERGY PREDICTED BY IDOCK:   -3.74 KCAL/MOL
REMARK 922        TOTAL FREE ENERGY PREDICTED BY IDOCK:   -7.02 KCAL/MOL
REMARK 923 INTER-LIGAND FREE ENERGY PREDICTED BY IDOCK:   -6.18 KCAL/MOL
REMARK 924 INTRA-LIGAND FREE ENERGY PREDICTED BY IDOCK:   -0.85 KCAL/MOL
REMARK 927      BINDING AFFINITY PREDICTED BY RF-SCORE:    0.00 PKD
ROOT
HETATM    1  C   UNL     1     -12.216  15.925  72.448  1.00  0.00    -0.498 C  
HETATM    2  O   UNL     1     -12.658  15.937  71.091  1.00  0.00    -0.456 OA 
ENDROOT
BRANCH   2   3
HETATM    3  C   UNL     1     -11.797  15.367  70.190  1.00  0.00    -0.335 A  
HETATM    4  C   UNL     1     -11.843  13.989  69.911  1.00  0.00    -0.393 A  
HETATM    5  C   UNL     1     -10.916  13.357  69.098  1.00  0.00    -0.168 A  
HETATM    6  C   UNL     1      -9.940  14.132  68.488  1.00  0.00    -0.235 A  
HETATM    7  C   UNL     1      -9.949  15.537  68.660  1.00  0.00    -0.208 A  
HETATM    8  C   UNL     1      -9.008  13.409  67.745  1.00  0.00    -0.205 A  
HETATM    9  N   UNL     1      -7.996  14.043  67.017  1.00  0.00    -0.374 NA 
HETATM   10  N   UNL     1      -9.021  12.072  67.654  1.00  0.00    -0.165 NA 
HETATM   11  C   UNL     1     -10.863  16.162  69.517  1.00  0.00    -0.329 A  
HETATM   12  N   UNL     1     -10.980  12.031  68.958  1.00  0.00    -0.226 NA 
HETATM   13  H2  UNL     1      -7.482  14.649  67.657  1.00  0.00     0.000 HD 
HETATM   14  C   UNL     1     -10.015  11.414  68.265  1.00  0.00    -0.198 A  
HETATM   15  H1  UNL     1      -7.314  13.513  66.473  1.00  0.00     0.000 HD 
BRANCH  11  16
HETATM   16  O   UNL     1     -10.671  17.515  69.574  1.00  0.00    -0.076 OA 
HETATM   17  C   UNL     1      -9.745  18.127  68.691  1.00  0.00    -0.357 C  
ENDBRANCH  11  16
BRANCH  14  18
HETATM   18  N   UNL     1     -10.061  10.045  68.145  1.00  0.00    -0.153 NA 
HETATM   19  C   UNL     1     -10.445   9.457  66.881  1.00  0.00    -0.211 C  
BRANCH  18  20
HETATM   20  C   UNL     1      -9.562   9.198  69.215  1.00  0.00    -0.159 C  
BRANCH  20  21
HETATM   21  C   UNL     1     -10.687   8.373  69.855  1.00  0.00    -0.227 C  
BRANCH  21  22
HETATM   22  C   UNL     1     -10.396   6.872  69.833  1.00  0.00    -0.205 C  
BRANCH  22  23
HETATM   23  N   UNL     1      -9.549   6.497  68.720  1.00  0.00    -0.127 N  
HETATM   24  C   UNL     1     -10.056   6.109  67.502  1.00  0.00    -0.158 C  
HETATM   25  H   UNL     1      -8.537   6.522  68.844  1.00  0.00     0.000 HD 
HETATM   26  O   UNL     1     -11.258   6.024  67.269  1.00  0.00    -0.231 OA 
BRANCH  24  27
HETATM   27  C   UNL     1      -8.990   5.785  66.447  1.00  0.00    -0.137 C  
HETATM   28  C   UNL     1      -7.694   6.500  66.779  1.00  0.00    -0.099 C  
HETATM   29  C   UNL     1      -6.679   5.692  66.016  1.00  0.00    -0.056 C  
HETATM   30  C   UNL     1      -7.237   4.287  66.110  1.00  0.00    -0.075 C  
HETATM   31  O   UNL     1      -8.652   4.393  66.333  1.00  0.00    -0.112 OA 
ENDBRANCH  24  27
ENDBRANCH  22  23
ENDBRANCH  21  22
ENDBRANCH  20  21
ENDBRANCH  18  20
ENDBRANCH  14  18
ENDBRANCH   2   3
TORSDOF 8
ENDMDL
MODEL      222
REMARK 921   NORMALIZED FREE ENERGY PREDICTED BY IDOCK:   -3.72 KCAL/MOL
REMARK 922        TOTAL FREE ENERGY PREDICTED BY IDOCK:   -6.99 KCAL/MOL
REMARK 923 INTER-LIGAND FREE ENERGY PREDICTED BY IDOCK:   -6.24 KCAL/MOL
REMARK 924 INTRA-LIGAND FREE ENERGY PREDICTED BY IDOCK:   -0.75 KCAL/MOL
REMARK 927      BINDING AFFINITY PREDICTED BY RF-SCORE:    0.00 PKD
ROOT
HETATM    1  C   UNL     1      -6.301   6.310  65.777  1.00  0.00    -0.038 C  
HETATM    2  O   UNL     1      -6.264   5.678  67.057  1.00  0.00    -0.032 OA 
ENDROOT
BRANCH   2   3
HETATM    3  C   UNL     1      -7.107   6.212  67.998  1.00  0.00    -0.078 A  
HETATM    4  C   UNL     1      -8.076   7.168  67.647  1.00  0.00    -0.114 A  
HETATM    5  C   UNL     1      -8.865   7.815  68.585  1.00  0.00    -0.131 A  
HETATM    6  C   UNL     1      -8.730   7.456  69.918  1.00  0.00    -0.141 A  
HETATM    7  C   UNL     1      -7.845   6.410  70.277  1.00  0.00    -0.103 A  
HETATM    8  C   UNL     1      -9.508   8.203  70.800  1.00  0.00    -0.162 A  
HETATM    9  N   UNL     1      -9.536   7.928  72.172  1.00  0.00    -0.181 NA 
HETATM   10  N   UNL     1     -10.295   9.214  70.408  1.00  0.00    -0.207 NA 
HETATM   11  C   UNL     1      -7.022   5.791  69.330  1.00  0.00    -0.064 A  
HETATM   12  N   UNL     1      -9.697   8.774  68.174  1.00  0.00    -0.153 NA 
HETATM   13  H2  UNL     1      -8.575   7.943  72.513  1.00  0.00     0.000 HD 
HETATM   14  C   UNL     1     -10.372   9.474  69.096  1.00  0.00    -0.207 A  
HETATM   15  H1  UNL     1     -10.106   8.475  72.817  1.00  0.00     0.000 HD 
BRANCH  11  16
HETATM   16  O   UNL     1      -6.214   4.843  69.892  1.00  0.00    -0.024 OA 
HETATM   17  C   UNL     1      -6.630   3.486  69.899  1.00  0.00    -0.033 C  
ENDBRANCH  11  16
BRANCH  14  18
HETATM   18  N   UNL     1     -11.206  10.483  68.679  1.00  0.00    -0.268 NA 
HETATM   19  C   UNL     1     -12.308  10.887  69.524  1.00  0.00    -0.171 C  
BRANCH  18  20
HETATM   20  C   UNL     1     -10.886  11.255  67.489  1.00  0.00    -0.245 C  
BRANCH  20  21
HETATM   21  C   UNL     1     -10.239  12.600  67.845  1.00  0.00    -0.220 C  
BRANCH  21  22
HETATM   22  C   UNL     1     -11.173  13.784  67.589  1.00  0.00    -0.293 C  
BRANCH  22  23
HETATM   23  N   UNL     1     -11.952  14.126  68.761  1.00  0.00    -0.418 N  
HETATM   24  C   UNL     1     -11.619  15.170  69.591  1.00  0.00    -0.311 C  
HETATM   25  H   UNL     1     -12.779  13.571  68.979  1.00  0.00     0.000 HD 
HETATM   26  O   UNL     1     -10.629  15.875  69.424  1.00  0.00    -0.222 OA 
BRANCH  24  27
HETATM   27  C   UNL     1     -12.592  15.385  70.758  1.00  0.00    -0.442 C  
HETATM   28  C   UNL     1     -12.886  14.063  71.443  1.00  0.00    -0.434 C  
HETATM   29  C   UNL     1     -13.374  14.505  72.796  1.00  0.00    -0.600 C  
HETATM   30  C   UNL     1     -12.539  15.741  73.061  1.00  0.00    -0.483 C  
HETATM   31  O   UNL     1     -12.119  16.265  71.790  1.00  0.00    -0.462 OA 
ENDBRANCH  24  27
ENDBRANCH  22  23
ENDBRANCH  21  22
ENDBRANCH  20  21
ENDBRANCH  18  20
ENDBRANCH  14  18
ENDBRANCH   2   3
TORSDOF 8
ENDMDL
MODEL      223
REMARK 921   NORMALIZED FREE ENERGY PREDICTED BY IDOCK:   -3.71 KCAL/MOL
REMARK 922        TOTAL FREE ENERGY PREDICTED BY IDOCK:   -6.99 KCAL/MOL
REMARK 923 INTER-LIGAND FREE ENERGY PREDICTED BY IDOCK:   -6.02 KCAL/MOL
REMARK 924 INTRA-LIGAND FREE ENERGY PREDICTED BY IDOCK:   -0.97 KCAL/MOL
REMARK 927      BINDING AFFINITY PREDICTED BY RF-SCORE:    0.00 PKD
ROOT
HETATM    1  C   UNL     1     -13.362  11.763  71.928  1.00  0.00    -0.296 C  
HETATM    2  O   UNL     1     -13.771  12.887  71.149  1.00  0.00     0.296 OA 
ENDROOT
BRANCH   2   3
HETATM    3  C   UNL     1     -12.771  13.504  70.442  1.00  0.00    -0.104 A  
HETATM    4  C   UNL     1     -11.905  12.768  69.614  1.00  0.00    -0.384 A  
HETATM    5  C   UNL     1     -10.813  13.337  68.978  1.00  0.00    -0.173 A  
HETATM    6  C   UNL     1     -10.606  14.702  69.119  1.00  0.00    -0.247 A  
HETATM    7  C   UNL     1     -11.535  15.480  69.851  1.00  0.00    -0.338 A  
HETATM    8  C   UNL     1      -9.449  15.178  68.506  1.00  0.00    -0.203 A  
HETATM    9  N   UNL     1      -9.126  16.539  68.501  1.00  0.00    -0.222 NA 
HETATM   10  N   UNL     1      -8.580  14.385  67.865  1.00  0.00    -0.156 NA 
HETATM   11  C   UNL     1     -12.612  14.892  70.525  1.00  0.00    -0.360 A  
HETATM   12  N   UNL     1      -9.990  12.548  68.282  1.00  0.00    -0.226 NA 
HETATM   13  H2  UNL     1      -9.123  16.863  69.468  1.00  0.00     0.000 HD 
HETATM   14  C   UNL     1      -8.876  13.083  67.766  1.00  0.00    -0.188 A  
HETATM   15  H1  UNL     1      -8.279  16.887  68.052  1.00  0.00     0.000 HD 
BRANCH  11  16
HETATM   16  O   UNL     1     -13.358  15.813  71.205  1.00  0.00    -0.532 OA 
HETATM   17  C   UNL     1     -13.376  15.787  72.624  1.00  0.00    -0.523 C  
ENDBRANCH  11  16
BRANCH  14  18
HETATM   18  N   UNL     1      -8.012  12.267  67.076  1.00  0.00    -0.155 NA 
HETATM   19  C   UNL     1      -6.589  12.514  67.156  1.00  0.00    -0.055 C  
BRANCH  18  20
HETATM   20  C   UNL     1      -8.502  11.068  66.418  1.00  0.00    -0.164 C  
BRANCH  20  21
HETATM   21  C   UNL     1      -8.016   9.795  67.124  1.00  0.00    -0.102 C  
BRANCH  21  22
HETATM   22  C   UNL     1      -9.144   9.061  67.849  1.00  0.00    -0.135 C  
BRANCH  22  23
HETATM   23  N   UNL     1      -8.949   9.041  69.283  1.00  0.00    -0.142 N  
HETATM   24  C   UNL     1      -9.977   8.811  70.167  1.00  0.00    -0.184 C  
HETATM   25  H   UNL     1      -8.012   9.205  69.653  1.00  0.00     0.000 HD 
HETATM   26  O   UNL     1     -11.139   8.631  69.816  1.00  0.00    -0.190 OA 
BRANCH  24  27
HETATM   27  C   UNL     1      -9.553   8.799  71.642  1.00  0.00    -0.293 C  
HETATM   28  C   UNL     1      -9.882   7.457  72.268  1.00  0.00    -0.203 C  
HETATM   29  C   UNL     1      -8.966   7.428  73.461  1.00  0.00    -0.243 C  
HETATM   30  C   UNL     1      -7.737   8.154  72.952  1.00  0.00    -0.140 C  
HETATM   31  O   UNL     1      -8.150   9.006  71.872  1.00  0.00    -0.359 OA 
ENDBRANCH  24  27
ENDBRANCH  22  23
ENDBRANCH  21  22
ENDBRANCH  20  21
ENDBRANCH  18  20
ENDBRANCH  14  18
ENDBRANCH   2   3
TORSDOF 8
ENDMDL
MODEL      224
REMARK 921   NORMALIZED FREE ENERGY PREDICTED BY IDOCK:   -3.69 KCAL/MOL
REMARK 922        TOTAL FREE ENERGY PREDICTED BY IDOCK:   -6.95 KCAL/MOL
REMARK 923 INTER-LIGAND FREE ENERGY PREDICTED BY IDOCK:   -6.30 KCAL/MOL
REMARK 924 INTRA-LIGAND FREE ENERGY PREDICTED BY IDOCK:   -0.65 KCAL/MOL
REMARK 927      BINDING AFFINITY PREDICTED BY RF-SCORE:    0.00 PKD
ROOT
HETATM    1  C   UNL     1      -9.033   2.791  70.531  1.00  0.00    -0.098 C  
HETATM    2  O   UNL     1      -9.748   3.605  71.461  1.00  0.00    -0.154 OA 
ENDROOT
BRANCH   2   3
HETATM    3  C   UNL     1     -10.037   4.873  71.027  1.00  0.00    -0.218 A  
HETATM    4  C   UNL     1      -9.490   5.376  69.834  1.00  0.00    -0.210 A  
HETATM    5  C   UNL     1      -9.663   6.689  69.425  1.00  0.00    -0.147 A  
HETATM    6  C   UNL     1     -10.463   7.519  70.198  1.00  0.00    -0.226 A  
HETATM    7  C   UNL     1     -11.119   6.998  71.338  1.00  0.00    -0.274 A  
HETATM    8  C   UNL     1     -10.527   8.838  69.752  1.00  0.00    -0.219 A  
HETATM    9  N   UNL     1     -11.337   9.789  70.383  1.00  0.00    -0.279 NA 
HETATM   10  N   UNL     1      -9.845   9.287  68.690  1.00  0.00    -0.158 NA 
HETATM   11  C   UNL     1     -10.905   5.683  71.769  1.00  0.00    -0.239 A  
HETATM   12  N   UNL     1      -9.035   7.108  68.324  1.00  0.00    -0.126 NA 
HETATM   13  H2  UNL     1     -11.088   9.805  71.372  1.00  0.00     0.000 HD 
HETATM   14  C   UNL     1      -9.114   8.405  67.997  1.00  0.00    -0.137 A  
HETATM   15  H1  UNL     1     -11.383  10.754  70.057  1.00  0.00     0.000 HD 
BRANCH  11  16
HETATM   16  O   UNL     1     -11.598   5.397  72.912  1.00  0.00    -0.312 OA 
HETATM   17  C   UNL     1     -10.891   5.205  74.127  1.00  0.00    -0.089 C  
ENDBRANCH  11  16
BRANCH  14  18
HETATM   18  N   UNL     1      -8.443   8.846  66.882  1.00  0.00    -0.111 NA 
HETATM   19  C   UNL     1      -7.540   7.948  66.197  1.00  0.00    -0.083 C  
BRANCH  18  20
HETATM   20  C   UNL     1      -8.764  10.136  66.294  1.00  0.00    -0.141 C  
BRANCH  20  21
HETATM   21  C   UNL     1      -9.719   9.991  65.101  1.00  0.00    -0.380 C  
BRANCH  21  22
HETATM   22  C   UNL     1     -10.611  11.219  64.914  1.00  0.00    -0.300 C  
BRANCH  22  23
HETATM   23  N   UNL     1     -10.142  12.354  65.680  1.00  0.00    -0.256 N  
HETATM   24  C   UNL     1     -10.895  13.492  65.852  1.00  0.00    -0.275 C  
HETATM   25  H   UNL     1      -9.218  12.309  66.110  1.00  0.00     0.000 HD 
HETATM   26  O   UNL     1     -12.005  13.648  65.352  1.00  0.00    -0.342 OA 
BRANCH  24  27
HETATM   27  C   UNL     1     -10.229  14.565  66.724  1.00  0.00    -0.266 C  
HETATM   28  C   UNL     1      -9.841  15.761  65.875  1.00  0.00    -0.381 C  
HETATM   29  C   UNL     1      -9.721  16.856  66.900  1.00  0.00    -0.264 C  
HETATM   30  C   UNL     1     -10.804  16.496  67.896  1.00  0.00    -0.326 C  
HETATM   31  O   UNL     1     -11.052  15.085  67.781  1.00  0.00    -0.288 OA 
ENDBRANCH  24  27
ENDBRANCH  22  23
ENDBRANCH  21  22
ENDBRANCH  20  21
ENDBRANCH  18  20
ENDBRANCH  14  18
ENDBRANCH   2   3
TORSDOF 8
ENDMDL
MODEL      225
REMARK 921   NORMALIZED FREE ENERGY PREDICTED BY IDOCK:   -3.68 KCAL/MOL
REMARK 922        TOTAL FREE ENERGY PREDICTED BY IDOCK:   -6.94 KCAL/MOL
REMARK 923 INTER-LIGAND FREE ENERGY PREDICTED BY IDOCK:   -6.78 KCAL/MOL
REMARK 924 INTRA-LIGAND FREE ENERGY PREDICTED BY IDOCK:   -0.16 KCAL/MOL
REMARK 927      BINDING AFFINITY PREDICTED BY RF-SCORE:    0.00 PKD
ROOT
HETATM    1  C   UNL     1     -13.150  11.646  63.554  1.00  0.00     0.229 C  
HETATM    2  O   UNL     1     -12.312  12.712  63.108  1.00  0.00    -0.537 OA 
ENDROOT
BRANCH   2   3
HETATM    3  C   UNL     1     -11.547  13.302  64.081  1.00  0.00    -0.405 A  
HETATM    4  C   UNL     1     -11.773  14.632  64.476  1.00  0.00    -0.410 A  
HETATM    5  C   UNL     1     -10.949  15.298  65.369  1.00  0.00    -0.372 A  
HETATM    6  C   UNL     1      -9.894  14.599  65.939  1.00  0.00    -0.358 A  
HETATM    7  C   UNL     1      -9.722  13.226  65.644  1.00  0.00    -0.101 A  
HETATM    8  C   UNL     1      -9.076  15.363  66.769  1.00  0.00    -0.259 A  
HETATM    9  N   UNL     1      -8.005  14.797  67.469  1.00  0.00    -0.173 NA 
HETATM   10  N   UNL     1      -9.260  16.674  66.975  1.00  0.00    -0.214 NA 
HETATM   11  C   UNL     1     -10.533  12.571  64.709  1.00  0.00    -0.311 A  
HETATM   12  N   UNL     1     -11.184  16.588  65.622  1.00  0.00     0.130 NA 
HETATM   13  H2  UNL     1      -7.407  14.320  66.794  1.00  0.00     0.000 HD 
HETATM   14  C   UNL     1     -10.318  17.256  66.395  1.00  0.00    -0.316 A  
HETATM   15  H1  UNL     1      -7.407  15.356  68.077  1.00  0.00     0.000 HD 
BRANCH  11  16
HETATM   16  O   UNL     1     -10.170  11.264  64.540  1.00  0.00    -0.268 OA 
HETATM   17  C   UNL     1      -9.505  10.872  63.349  1.00  0.00    -0.314 C  
ENDBRANCH  11  16
BRANCH  14  18
HETATM   18  N   UNL     1     -10.539  18.591  66.632  1.00  0.00    -0.380 NA 
HETATM   19  C   UNL     1     -11.127  19.000  67.888  1.00  0.00     0.105 C  
BRANCH  18  20
HETATM   20  C   UNL     1     -10.030  19.594  65.711  1.00  0.00    -0.225 C  
BRANCH  20  21
HETATM   21  C   UNL     1      -8.883  20.402  66.332  1.00  0.00    -0.174 C  
BRANCH  21  22
HETATM   22  C   UNL     1      -7.510  19.820  65.997  1.00  0.00    -0.320 C  
BRANCH  22  23
HETATM   23  N   UNL     1      -6.602  19.880  67.123  1.00  0.00    -0.203 N  
HETATM   24  C   UNL     1      -6.815  19.172  68.283  1.00  0.00    -0.254 C  
HETATM   25  H   UNL     1      -5.773  20.469  67.054  1.00  0.00     0.000 HD 
HETATM   26  O   UNL     1      -7.796  18.459  68.467  1.00  0.00    -0.292 OA 
BRANCH  24  27
HETATM   27  C   UNL     1      -5.718  19.349  69.342  1.00  0.00    -0.234 C  
HETATM   28  C   UNL     1      -5.885  20.682  70.048  1.00  0.00    -0.278 C  
HETATM   29  C   UNL     1      -5.128  20.461  71.329  1.00  0.00    -0.304 C  
HETATM   30  C   UNL     1      -5.392  18.999  71.623  1.00  0.00    -0.308 C  
HETATM   31  O   UNL     1      -5.708  18.355  70.378  1.00  0.00    -0.233 OA 
ENDBRANCH  24  27
ENDBRANCH  22  23
ENDBRANCH  21  22
ENDBRANCH  20  21
ENDBRANCH  18  20
ENDBRANCH  14  18
ENDBRANCH   2   3
TORSDOF 8
ENDMDL
MODEL      226
REMARK 921   NORMALIZED FREE ENERGY PREDICTED BY IDOCK:   -3.67 KCAL/MOL
REMARK 922        TOTAL FREE ENERGY PREDICTED BY IDOCK:   -6.92 KCAL/MOL
REMARK 923 INTER-LIGAND FREE ENERGY PREDICTED BY IDOCK:   -5.49 KCAL/MOL
REMARK 924 INTRA-LIGAND FREE ENERGY PREDICTED BY IDOCK:   -1.43 KCAL/MOL
REMARK 927      BINDING AFFINITY PREDICTED BY RF-SCORE:    0.00 PKD
ROOT
HETATM    1  C   UNL     1     -12.621  13.962  65.241  1.00  0.00    -0.478 C  
HETATM    2  O   UNL     1     -12.140  14.497  66.474  1.00  0.00    -0.396 OA 
ENDROOT
BRANCH   2   3
HETATM    3  C   UNL     1     -10.804  14.303  66.714  1.00  0.00    -0.298 A  
HETATM    4  C   UNL     1     -10.316  13.057  67.144  1.00  0.00    -0.243 A  
HETATM    5  C   UNL     1      -8.995  12.855  67.509  1.00  0.00    -0.193 A  
HETATM    6  C   UNL     1      -8.108  13.915  67.385  1.00  0.00    -0.190 A  
HETATM    7  C   UNL     1      -8.555  15.143  66.841  1.00  0.00    -0.289 A  
HETATM    8  C   UNL     1      -6.818  13.647  67.839  1.00  0.00    -0.153 A  
HETATM    9  N   UNL     1      -5.788  14.587  67.729  1.00  0.00    -0.291 NA 
HETATM   10  N   UNL     1      -6.463  12.478  68.389  1.00  0.00    -0.061 NA 
HETATM   11  C   UNL     1      -9.900  15.352  66.514  1.00  0.00    -0.272 A  
HETATM   12  N   UNL     1      -8.635  11.663  67.991  1.00  0.00    -0.146 NA 
HETATM   13  H2  UNL     1      -6.104  15.450  68.174  1.00  0.00     0.000 HD 
HETATM   14  C   UNL     1      -7.386  11.509  68.449  1.00  0.00    -0.097 A  
HETATM   15  H1  UNL     1      -4.845  14.390  68.061  1.00  0.00     0.000 HD 
BRANCH  11  16
HETATM   16  O   UNL     1     -10.125  16.618  66.049  1.00  0.00    -0.322 OA 
HETATM   17  C   UNL     1     -10.144  17.704  66.961  1.00  0.00    -0.330 C  
ENDBRANCH  11  16
BRANCH  14  18
HETATM   18  N   UNL     1      -7.021  10.292  68.974  1.00  0.00    -0.060 NA 
HETATM   19  C   UNL     1      -5.621   9.936  69.032  1.00  0.00    -0.035 C  
BRANCH  18  20
HETATM   20  C   UNL     1      -8.009   9.448  69.624  1.00  0.00    -0.109 C  
BRANCH  20  21
HETATM   21  C   UNL     1      -8.209   8.126  68.870  1.00  0.00    -0.124 C  
BRANCH  21  22
HETATM   22  C   UNL     1      -9.363   8.192  67.870  1.00  0.00    -0.134 C  
BRANCH  22  23
HETATM   23  N   UNL     1      -9.095   9.116  66.788  1.00  0.00    -0.140 N  
HETATM   24  C   UNL     1      -8.073   8.925  65.888  1.00  0.00    -0.109 C  
HETATM   25  H   UNL     1      -9.686   9.941  66.690  1.00  0.00     0.000 HD 
HETATM   26  O   UNL     1      -7.295   7.978  65.943  1.00  0.00    -0.073 OA 
BRANCH  24  27
HETATM   27  C   UNL     1      -7.979  10.003  64.799  1.00  0.00    -0.144 C  
HETATM   28  C   UNL     1      -7.333   9.429  63.552  1.00  0.00    -0.103 C  
HETATM   29  C   UNL     1      -7.793  10.386  62.486  1.00  0.00    -0.173 C  
HETATM   30  C   UNL     1      -9.184  10.760  62.954  1.00  0.00    -0.323 C  
HETATM   31  O   UNL     1      -9.238  10.549  64.374  1.00  0.00    -0.206 OA 
ENDBRANCH  24  27
ENDBRANCH  22  23
ENDBRANCH  21  22
ENDBRANCH  20  21
ENDBRANCH  18  20
ENDBRANCH  14  18
ENDBRANCH   2   3
TORSDOF 8
ENDMDL
MODEL      227
REMARK 921   NORMALIZED FREE ENERGY PREDICTED BY IDOCK:   -3.67 KCAL/MOL
REMARK 922        TOTAL FREE ENERGY PREDICTED BY IDOCK:   -6.92 KCAL/MOL
REMARK 923 INTER-LIGAND FREE ENERGY PREDICTED BY IDOCK:   -5.46 KCAL/MOL
REMARK 924 INTRA-LIGAND FREE ENERGY PREDICTED BY IDOCK:   -1.46 KCAL/MOL
REMARK 927      BINDING AFFINITY PREDICTED BY RF-SCORE:    0.00 PKD
ROOT
HETATM    1  C   UNL     1     -12.696  11.986  63.894  1.00  0.00    -0.354 C  
HETATM    2  O   UNL     1     -12.517  12.457  65.229  1.00  0.00    -0.611 OA 
ENDROOT
BRANCH   2   3
HETATM    3  C   UNL     1     -11.264  12.269  65.754  1.00  0.00    -0.337 A  
HETATM    4  C   UNL     1     -10.399  11.288  65.237  1.00  0.00    -0.337 A  
HETATM    5  C   UNL     1      -9.175  10.990  65.813  1.00  0.00    -0.205 A  
HETATM    6  C   UNL     1      -8.765  11.735  66.910  1.00  0.00    -0.189 A  
HETATM    7  C   UNL     1      -9.568  12.805  67.371  1.00  0.00    -0.199 A  
HETATM    8  C   UNL     1      -7.556  11.323  67.470  1.00  0.00    -0.110 A  
HETATM    9  N   UNL     1      -6.972  12.005  68.542  1.00  0.00    -0.083 NA 
HETATM   10  N   UNL     1      -6.861  10.271  67.018  1.00  0.00    -0.082 NA 
HETATM   11  C   UNL     1     -10.822  13.073  66.810  1.00  0.00    -0.268 A  
HETATM   12  N   UNL     1      -8.455   9.984  65.311  1.00  0.00    -0.146 NA 
HETATM   13  H2  UNL     1      -7.662  12.059  69.292  1.00  0.00     0.000 HD 
HETATM   14  C   UNL     1      -7.329   9.626  65.942  1.00  0.00    -0.099 A  
HETATM   15  H1  UNL     1      -6.088  11.704  68.951  1.00  0.00     0.000 HD 
BRANCH  11  16
HETATM   16  O   UNL     1     -11.451  14.116  67.431  1.00  0.00    -0.310 OA 
HETATM   17  C   UNL     1     -12.032  13.920  68.710  1.00  0.00    -0.358 C  
ENDBRANCH  11  16
BRANCH  14  18
HETATM   18  N   UNL     1      -6.603   8.570  65.447  1.00  0.00    -0.059 NA 
HETATM   19  C   UNL     1      -5.535   8.824  64.504  1.00  0.00    -0.058 C  
BRANCH  18  20
HETATM   20  C   UNL     1      -6.783   7.234  65.991  1.00  0.00    -0.053 C  
BRANCH  20  21
HETATM   21  C   UNL     1      -5.705   6.896  67.029  1.00  0.00    -0.018 C  
BRANCH  21  22
HETATM   22  C   UNL     1      -6.298   6.481  68.375  1.00  0.00    -0.037 C  
BRANCH  22  23
HETATM   23  N   UNL     1      -7.030   7.561  69.003  1.00  0.00    -0.071 N  
HETATM   24  C   UNL     1      -8.399   7.549  69.136  1.00  0.00    -0.135 C  
HETATM   25  H   UNL     1      -6.511   8.362  69.362  1.00  0.00     0.000 HD 
HETATM   26  O   UNL     1      -9.109   6.642  68.712  1.00  0.00    -0.132 OA 
BRANCH  24  27
HETATM   27  C   UNL     1      -8.976   8.773  69.859  1.00  0.00    -0.152 C  
HETATM   28  C   UNL     1      -9.935   9.514  68.947  1.00  0.00    -0.187 C  
HETATM   29  C   UNL     1     -10.765  10.299  69.926  1.00  0.00    -0.344 C  
HETATM   30  C   UNL     1     -10.848   9.364  71.114  1.00  0.00    -0.357 C  
HETATM   31  O   UNL     1      -9.717   8.480  71.054  1.00  0.00    -0.171 OA 
ENDBRANCH  24  27
ENDBRANCH  22  23
ENDBRANCH  21  22
ENDBRANCH  20  21
ENDBRANCH  18  20
ENDBRANCH  14  18
ENDBRANCH   2   3
TORSDOF 8
ENDMDL
MODEL      228
REMARK 921   NORMALIZED FREE ENERGY PREDICTED BY IDOCK:   -3.65 KCAL/MOL
REMARK 922        TOTAL FREE ENERGY PREDICTED BY IDOCK:   -6.89 KCAL/MOL
REMARK 923 INTER-LIGAND FREE ENERGY PREDICTED BY IDOCK:   -6.01 KCAL/MOL
REMARK 924 INTRA-LIGAND FREE ENERGY PREDICTED BY IDOCK:   -0.89 KCAL/MOL
REMARK 927      BINDING AFFINITY PREDICTED BY RF-SCORE:    0.00 PKD
ROOT
HETATM    1  C   UNL     1      -6.858  18.537  68.117  1.00  0.00    -0.229 C  
HETATM    2  O   UNL     1      -8.089  18.541  68.840  1.00  0.00    -0.287 OA 
ENDROOT
BRANCH   2   3
HETATM    3  C   UNL     1      -8.955  17.525  68.525  1.00  0.00    -0.279 A  
HETATM    4  C   UNL     1      -8.616  16.181  68.760  1.00  0.00    -0.236 A  
HETATM    5  C   UNL     1      -9.413  15.124  68.349  1.00  0.00    -0.208 A  
HETATM    6  C   UNL     1     -10.623  15.413  67.734  1.00  0.00    -0.274 A  
HETATM    7  C   UNL     1     -11.036  16.759  67.596  1.00  0.00    -0.178 A  
HETATM    8  C   UNL     1     -11.327  14.295  67.290  1.00  0.00    -0.334 A  
HETATM    9  N   UNL     1     -12.592  14.407  66.705  1.00  0.00    -0.455 NA 
HETATM   10  N   UNL     1     -10.864  13.043  67.408  1.00  0.00    -0.248 NA 
HETATM   11  C   UNL     1     -10.207  17.822  67.975  1.00  0.00    -0.377 A  
HETATM   12  N   UNL     1      -8.974  13.877  68.534  1.00  0.00    -0.173 NA 
HETATM   13  H2  UNL     1     -12.519  15.060  65.924  1.00  0.00     0.000 HD 
HETATM   14  C   UNL     1      -9.693  12.865  68.033  1.00  0.00    -0.224 A  
HETATM   15  H1  UNL     1     -13.107  13.589  66.380  1.00  0.00     0.000 HD 
BRANCH  11  16
HETATM   16  O   UNL     1     -10.777  19.037  67.715  1.00  0.00    -0.415 OA 
HETATM   17  C   UNL     1     -10.427  19.732  66.529  1.00  0.00    -0.500 C  
ENDBRANCH  11  16
BRANCH  14  18
HETATM   18  N   UNL     1      -9.228  11.582  68.194  1.00  0.00    -0.175 NA 
HETATM   19  C   UNL     1     -10.094  10.582  68.779  1.00  0.00    -0.191 C  
BRANCH  18  20
HETATM   20  C   UNL     1      -7.949  11.188  67.626  1.00  0.00    -0.116 C  
BRANCH  20  21
HETATM   21  C   UNL     1      -8.129  10.282  66.401  1.00  0.00    -0.123 C  
BRANCH  21  22
HETATM   22  C   UNL     1      -7.608   8.865  66.640  1.00  0.00    -0.089 C  
BRANCH  22  23
HETATM   23  N   UNL     1      -7.194   8.661  68.012  1.00  0.00    -0.086 N  
HETATM   24  C   UNL     1      -7.867   7.825  68.872  1.00  0.00    -0.122 C  
HETATM   25  H   UNL     1      -6.370   9.156  68.354  1.00  0.00     0.000 HD 
HETATM   26  O   UNL     1      -8.881   7.210  68.558  1.00  0.00    -0.126 OA 
BRANCH  24  27
HETATM   27  C   UNL     1      -7.246   7.725  70.271  1.00  0.00    -0.062 C  
HETATM   28  C   UNL     1      -7.864   8.760  71.192  1.00  0.00    -0.161 C  
HETATM   29  C   UNL     1      -7.566   8.195  72.554  1.00  0.00    -0.157 C  
HETATM   30  C   UNL     1      -7.668   6.701  72.322  1.00  0.00    -0.096 C  
HETATM   31  O   UNL     1      -7.426   6.459  70.927  1.00  0.00    -0.084 OA 
ENDBRANCH  24  27
ENDBRANCH  22  23
ENDBRANCH  21  22
ENDBRANCH  20  21
ENDBRANCH  18  20
ENDBRANCH  14  18
ENDBRANCH   2   3
TORSDOF 8
ENDMDL
MODEL      229
REMARK 921   NORMALIZED FREE ENERGY PREDICTED BY IDOCK:   -3.64 KCAL/MOL
REMARK 922        TOTAL FREE ENERGY PREDICTED BY IDOCK:   -6.88 KCAL/MOL
REMARK 923 INTER-LIGAND FREE ENERGY PREDICTED BY IDOCK:   -5.72 KCAL/MOL
REMARK 924 INTRA-LIGAND FREE ENERGY PREDICTED BY IDOCK:   -1.16 KCAL/MOL
REMARK 927      BINDING AFFINITY PREDICTED BY RF-SCORE:    0.00 PKD
ROOT
HETATM    1  C   UNL     1     -10.722  15.564  65.122  1.00  0.00    -0.440 C  
HETATM    2  O   UNL     1     -11.348  14.392  65.644  1.00  0.00    -0.318 OA 
ENDROOT
BRANCH   2   3
HETATM    3  C   UNL     1     -10.547  13.282  65.714  1.00  0.00    -0.284 A  
HETATM    4  C   UNL     1      -9.747  13.033  66.844  1.00  0.00    -0.238 A  
HETATM    5  C   UNL     1      -8.839  11.988  66.904  1.00  0.00    -0.197 A  
HETATM    6  C   UNL     1      -8.763  11.119  65.824  1.00  0.00    -0.153 A  
HETATM    7  C   UNL     1      -9.644  11.284  64.728  1.00  0.00    -0.269 A  
HETATM    8  C   UNL     1      -7.777  10.141  65.937  1.00  0.00    -0.127 A  
HETATM    9  N   UNL     1      -7.609   9.149  64.964  1.00  0.00    -0.104 NA 
HETATM   10  N   UNL     1      -6.940  10.062  66.979  1.00  0.00    -0.087 NA 
HETATM   11  C   UNL     1     -10.529  12.366  64.657  1.00  0.00    -0.309 A  
HETATM   12  N   UNL     1      -8.056  11.876  67.979  1.00  0.00    -0.141 NA 
HETATM   13  H2  UNL     1      -7.489   9.613  64.063  1.00  0.00     0.000 HD 
HETATM   14  C   UNL     1      -7.103  10.935  67.982  1.00  0.00    -0.077 A  
HETATM   15  H1  UNL     1      -6.888   8.434  65.048  1.00  0.00     0.000 HD 
BRANCH  11  16
HETATM   16  O   UNL     1     -11.254  12.362  63.498  1.00  0.00    -0.437 OA 
HETATM   17  C   UNL     1     -12.621  11.981  63.531  1.00  0.00    -0.507 C  
ENDBRANCH  11  16
BRANCH  14  18
HETATM   18  N   UNL     1      -6.275  10.838  69.074  1.00  0.00    -0.041 NA 
HETATM   19  C   UNL     1      -6.181  11.950  69.994  1.00  0.00    -0.123 C  
BRANCH  18  20
HETATM   20  C   UNL     1      -5.636   9.574  69.401  1.00  0.00    -0.035 C  
BRANCH  20  21
HETATM   21  C   UNL     1      -5.236   9.507  70.881  1.00  0.00    -0.039 C  
BRANCH  21  22
HETATM   22  C   UNL     1      -6.199   8.658  71.709  1.00  0.00    -0.069 C  
BRANCH  22  23
HETATM   23  N   UNL     1      -7.501   8.544  71.085  1.00  0.00    -0.083 N  
HETATM   24  C   UNL     1      -8.272   7.409  71.183  1.00  0.00    -0.106 C  
HETATM   25  H   UNL     1      -7.859   9.335  70.551  1.00  0.00     0.000 HD 
HETATM   26  O   UNL     1      -7.912   6.400  71.782  1.00  0.00    -0.103 OA 
BRANCH  24  27
HETATM   27  C   UNL     1      -9.630   7.505  70.476  1.00  0.00    -0.168 C  
HETATM   28  C   UNL     1      -9.890   6.243  69.673  1.00  0.00    -0.192 C  
HETATM   29  C   UNL     1     -11.386   6.269  69.513  1.00  0.00    -0.475 C  
HETATM   30  C   UNL     1     -11.848   6.878  70.820  1.00  0.00    -0.377 C  
HETATM   31  O   UNL     1     -10.761   7.653  71.349  1.00  0.00    -0.222 OA 
ENDBRANCH  24  27
ENDBRANCH  22  23
ENDBRANCH  21  22
ENDBRANCH  20  21
ENDBRANCH  18  20
ENDBRANCH  14  18
ENDBRANCH   2   3
TORSDOF 8
ENDMDL
MODEL      230
REMARK 921   NORMALIZED FREE ENERGY PREDICTED BY IDOCK:   -3.64 KCAL/MOL
REMARK 922        TOTAL FREE ENERGY PREDICTED BY IDOCK:   -6.88 KCAL/MOL
REMARK 923 INTER-LIGAND FREE ENERGY PREDICTED BY IDOCK:   -4.45 KCAL/MOL
REMARK 924 INTRA-LIGAND FREE ENERGY PREDICTED BY IDOCK:   -2.43 KCAL/MOL
REMARK 927      BINDING AFFINITY PREDICTED BY RF-SCORE:    0.00 PKD
ROOT
HETATM    1  C   UNL     1     -10.526  11.560  65.481  1.00  0.00    -0.275 C  
HETATM    2  O   UNL     1     -10.244  10.371  64.743  1.00  0.00    -0.345 OA 
ENDROOT
BRANCH   2   3
HETATM    3  C   UNL     1      -9.440   9.462  65.382  1.00  0.00    -0.253 A  
HETATM    4  C   UNL     1      -9.965   8.573  66.337  1.00  0.00    -0.314 A  
HETATM    5  C   UNL     1      -9.167   7.723  67.087  1.00  0.00    -0.146 A  
HETATM    6  C   UNL     1      -7.802   7.711  66.838  1.00  0.00    -0.111 A  
HETATM    7  C   UNL     1      -7.271   8.513  65.799  1.00  0.00    -0.076 A  
HETATM    8  C   UNL     1      -7.067   6.881  67.684  1.00  0.00    -0.085 A  
HETATM    9  N   UNL     1      -5.688   6.708  67.527  1.00  0.00    -0.012 NA 
HETATM   10  N   UNL     1      -7.619   6.179  68.682  1.00  0.00    -0.090 NA 
HETATM   11  C   UNL     1      -8.077   9.399  65.075  1.00  0.00    -0.129 A  
HETATM   12  N   UNL     1      -9.737   6.974  68.034  1.00  0.00    -0.128 NA 
HETATM   13  H2  UNL     1      -5.253   7.631  67.540  1.00  0.00     0.000 HD 
HETATM   14  C   UNL     1      -8.949   6.242  68.831  1.00  0.00    -0.126 A  
HETATM   15  H1  UNL     1      -5.151   6.101  68.146  1.00  0.00     0.000 HD 
BRANCH  11  16
HETATM   16  O   UNL     1      -7.360  10.109  64.152  1.00  0.00    -0.135 OA 
HETATM   17  C   UNL     1      -6.553   9.417  63.213  1.00  0.00    -0.093 C  
ENDBRANCH  11  16
BRANCH  14  18
HETATM   18  N   UNL     1      -9.530   5.495  69.828  1.00  0.00    -0.143 NA 
HETATM   19  C   UNL     1      -9.649   4.063  69.662  1.00  0.00    -0.200 C  
BRANCH  18  20
HETATM   20  C   UNL     1      -9.860   6.105  71.105  1.00  0.00    -0.181 C  
BRANCH  20  21
HETATM   21  C   UNL     1     -11.373   6.317  71.256  1.00  0.00    -0.356 C  
BRANCH  21  22
HETATM   22  C   UNL     1     -11.821   7.695  70.768  1.00  0.00    -0.205 C  
BRANCH  22  23
HETATM   23  N   UNL     1     -10.705   8.603  70.600  1.00  0.00    -0.215 N  
HETATM   24  C   UNL     1     -10.777   9.724  69.806  1.00  0.00    -0.256 C  
HETATM   25  H   UNL     1      -9.833   8.404  71.089  1.00  0.00     0.000 HD 
HETATM   26  O   UNL     1     -11.774  10.030  69.160  1.00  0.00    -0.042 OA 
BRANCH  24  27
HETATM   27  C   UNL     1      -9.496  10.569  69.789  1.00  0.00     0.101 C  
HETATM   28  C   UNL     1      -8.294   9.701  70.110  1.00  0.00    -0.221 C  
HETATM   29  C   UNL     1      -7.157  10.509  69.545  1.00  0.00    -0.124 C  
HETATM   30  C   UNL     1      -7.781  11.149  68.322  1.00  0.00    -0.116 C  
HETATM   31  O   UNL     1      -9.201  11.200  68.533  1.00  0.00    -0.172 OA 
ENDBRANCH  24  27
ENDBRANCH  22  23
ENDBRANCH  21  22
ENDBRANCH  20  21
ENDBRANCH  18  20
ENDBRANCH  14  18
ENDBRANCH   2   3
TORSDOF 8
ENDMDL
MODEL      231
REMARK 921   NORMALIZED FREE ENERGY PREDICTED BY IDOCK:   -3.64 KCAL/MOL
REMARK 922        TOTAL FREE ENERGY PREDICTED BY IDOCK:   -6.87 KCAL/MOL
REMARK 923 INTER-LIGAND FREE ENERGY PREDICTED BY IDOCK:   -5.33 KCAL/MOL
REMARK 924 INTRA-LIGAND FREE ENERGY PREDICTED BY IDOCK:   -1.54 KCAL/MOL
REMARK 927      BINDING AFFINITY PREDICTED BY RF-SCORE:    0.00 PKD
ROOT
HETATM    1  C   UNL     1      -7.426  13.040  67.312  1.00  0.00    -0.074 C  
HETATM    2  O   UNL     1      -6.640  12.291  68.239  1.00  0.00    -0.051 OA 
ENDROOT
BRANCH   2   3
HETATM    3  C   UNL     1      -7.089  11.021  68.494  1.00  0.00    -0.078 A  
HETATM    4  C   UNL     1      -7.972  10.761  69.557  1.00  0.00    -0.022 A  
HETATM    5  C   UNL     1      -8.354   9.478  69.917  1.00  0.00    -0.170 A  
HETATM    6  C   UNL     1      -7.891   8.415  69.156  1.00  0.00    -0.105 A  
HETATM    7  C   UNL     1      -7.098   8.665  68.011  1.00  0.00    -0.082 A  
HETATM    8  C   UNL     1      -8.265   7.158  69.629  1.00  0.00    -0.131 A  
HETATM    9  N   UNL     1      -7.932   5.985  68.944  1.00  0.00    -0.099 NA 
HETATM   10  N   UNL     1      -8.980   6.980  70.747  1.00  0.00    -0.149 NA 
HETATM   11  C   UNL     1      -6.681   9.960  67.678  1.00  0.00    -0.073 A  
HETATM   12  N   UNL     1      -9.126   9.316  70.995  1.00  0.00    -0.234 NA 
HETATM   13  H2  UNL     1      -6.921   5.979  68.807  1.00  0.00     0.000 HD 
HETATM   14  C   UNL     1      -9.397   8.070  71.405  1.00  0.00    -0.144 A  
HETATM   15  H1  UNL     1      -8.207   5.066  69.290  1.00  0.00     0.000 HD 
BRANCH  11  16
HETATM   16  O   UNL     1      -5.888   9.974  66.565  1.00  0.00    -0.055 OA 
HETATM   17  C   UNL     1      -6.309   9.287  65.397  1.00  0.00    -0.065 C  
ENDBRANCH  11  16
BRANCH  14  18
HETATM   18  N   UNL     1     -10.165   7.899  72.532  1.00  0.00    -0.253 NA 
HETATM   19  C   UNL     1      -9.555   7.369  73.731  1.00  0.00    -0.284 C  
BRANCH  18  20
HETATM   20  C   UNL     1     -11.526   8.405  72.576  1.00  0.00    -0.352 C  
BRANCH  20  21
HETATM   21  C   UNL     1     -12.246   8.212  71.235  1.00  0.00    -0.302 C  
BRANCH  21  22
HETATM   22  C   UNL     1     -12.953   9.482  70.762  1.00  0.00    -0.022 C  
BRANCH  22  23
HETATM   23  N   UNL     1     -12.167  10.214  69.791  1.00  0.00    -0.499 N  
HETATM   24  C   UNL     1     -12.031  11.582  69.829  1.00  0.00    -0.346 C  
HETATM   25  H   UNL     1     -11.697   9.695  69.050  1.00  0.00     0.000 HD 
HETATM   26  O   UNL     1     -12.581  12.291  70.666  1.00  0.00    -0.257 OA 
BRANCH  24  27
HETATM   27  C   UNL     1     -11.130  12.159  68.729  1.00  0.00    -0.250 C  
HETATM   28  C   UNL     1     -11.109  11.227  67.531  1.00  0.00    -0.346 C  
HETATM   29  C   UNL     1     -10.663  12.143  66.423  1.00  0.00    -0.292 C  
HETATM   30  C   UNL     1     -11.305  13.460  66.804  1.00  0.00    -0.325 C  
HETATM   31  O   UNL     1     -11.534  13.440  68.222  1.00  0.00    -0.274 OA 
ENDBRANCH  24  27
ENDBRANCH  22  23
ENDBRANCH  21  22
ENDBRANCH  20  21
ENDBRANCH  18  20
ENDBRANCH  14  18
ENDBRANCH   2   3
TORSDOF 8
ENDMDL
MODEL      232
REMARK 921   NORMALIZED FREE ENERGY PREDICTED BY IDOCK:   -3.63 KCAL/MOL
REMARK 922        TOTAL FREE ENERGY PREDICTED BY IDOCK:   -6.86 KCAL/MOL
REMARK 923 INTER-LIGAND FREE ENERGY PREDICTED BY IDOCK:   -5.39 KCAL/MOL
REMARK 924 INTRA-LIGAND FREE ENERGY PREDICTED BY IDOCK:   -1.47 KCAL/MOL
REMARK 927      BINDING AFFINITY PREDICTED BY RF-SCORE:    0.00 PKD
ROOT
HETATM    1  C   UNL     1      -9.244   2.385  64.885  1.00  0.00    -0.133 C  
HETATM    2  O   UNL     1      -9.254   3.812  64.843  1.00  0.00    -0.131 OA 
ENDROOT
BRANCH   2   3
HETATM    3  C   UNL     1      -8.954   4.434  66.028  1.00  0.00    -0.122 A  
HETATM    4  C   UNL     1      -9.397   3.912  67.256  1.00  0.00    -0.220 A  
HETATM    5  C   UNL     1      -9.215   4.574  68.460  1.00  0.00    -0.133 A  
HETATM    6  C   UNL     1      -8.513   5.771  68.454  1.00  0.00    -0.110 A  
HETATM    7  C   UNL     1      -7.957   6.252  67.245  1.00  0.00    -0.109 A  
HETATM    8  C   UNL     1      -8.437   6.403  69.694  1.00  0.00    -0.130 A  
HETATM    9  N   UNL     1      -7.713   7.587  69.874  1.00  0.00    -0.096 NA 
HETATM   10  N   UNL     1      -9.023   5.922  70.798  1.00  0.00    -0.147 NA 
HETATM   11  C   UNL     1      -8.181   5.600  66.026  1.00  0.00    -0.113 A  
HETATM   12  N   UNL     1      -9.744   4.050  69.568  1.00  0.00    -0.199 NA 
HETATM   13  H2  UNL     1      -8.056   8.268  69.196  1.00  0.00     0.000 HD 
HETATM   14  C   UNL     1      -9.664   4.750  70.708  1.00  0.00    -0.197 A  
HETATM   15  H1  UNL     1      -7.658   8.048  70.781  1.00  0.00     0.000 HD 
BRANCH  11  16
HETATM   16  O   UNL     1      -7.595   6.254  64.978  1.00  0.00    -0.078 OA 
HETATM   17  C   UNL     1      -6.449   7.058  65.210  1.00  0.00    -0.043 C  
ENDBRANCH  11  16
BRANCH  14  18
HETATM   18  N   UNL     1     -10.235   4.228  71.843  1.00  0.00    -0.165 NA 
HETATM   19  C   UNL     1      -9.782   2.948  72.342  1.00  0.00    -0.148 C  
BRANCH  18  20
HETATM   20  C   UNL     1     -11.157   5.027  72.634  1.00  0.00    -0.197 C  
BRANCH  20  21
HETATM   21  C   UNL     1     -10.475   5.612  73.878  1.00  0.00    -0.302 C  
BRANCH  21  22
HETATM   22  C   UNL     1     -10.479   7.141  73.882  1.00  0.00    -0.246 C  
BRANCH  22  23
HETATM   23  N   UNL     1     -10.680   7.688  72.557  1.00  0.00    -0.268 N  
HETATM   24  C   UNL     1     -11.796   8.417  72.219  1.00  0.00    -0.389 C  
HETATM   25  H   UNL     1      -9.966   7.527  71.846  1.00  0.00     0.000 HD 
HETATM   26  O   UNL     1     -12.717   8.640  72.999  1.00  0.00    -0.242 OA 
BRANCH  24  27
HETATM   27  C   UNL     1     -11.800   8.934  70.774  1.00  0.00    -0.194 C  
HETATM   28  C   UNL     1     -12.266  10.378  70.738  1.00  0.00    -0.457 C  
HETATM   29  C   UNL     1     -11.718  10.857  69.421  1.00  0.00    -0.397 C  
HETATM   30  C   UNL     1     -10.411  10.101  69.311  1.00  0.00    -0.225 C  
HETATM   31  O   UNL     1     -10.522   8.918  70.119  1.00  0.00    -0.200 OA 
ENDBRANCH  24  27
ENDBRANCH  22  23
ENDBRANCH  21  22
ENDBRANCH  20  21
ENDBRANCH  18  20
ENDBRANCH  14  18
ENDBRANCH   2   3
TORSDOF 8
ENDMDL
MODEL      233
REMARK 921   NORMALIZED FREE ENERGY PREDICTED BY IDOCK:   -3.61 KCAL/MOL
REMARK 922        TOTAL FREE ENERGY PREDICTED BY IDOCK:   -6.84 KCAL/MOL
REMARK 923 INTER-LIGAND FREE ENERGY PREDICTED BY IDOCK:   -5.07 KCAL/MOL
REMARK 924 INTRA-LIGAND FREE ENERGY PREDICTED BY IDOCK:   -1.77 KCAL/MOL
REMARK 927      BINDING AFFINITY PREDICTED BY RF-SCORE:    0.00 PKD
ROOT
HETATM    1  C   UNL     1     -10.143  12.621  66.524  1.00  0.00    -0.248 C  
HETATM    2  O   UNL     1      -8.778  12.464  66.913  1.00  0.00    -0.198 OA 
ENDROOT
BRANCH   2   3
HETATM    3  C   UNL     1      -8.455  11.238  67.434  1.00  0.00    -0.137 A  
HETATM    4  C   UNL     1      -8.677  10.943  68.791  1.00  0.00    -0.158 A  
HETATM    5  C   UNL     1      -8.257   9.760  69.379  1.00  0.00    -0.135 A  
HETATM    6  C   UNL     1      -7.646   8.807  68.577  1.00  0.00    -0.098 A  
HETATM    7  C   UNL     1      -7.521   9.036  67.186  1.00  0.00    -0.087 A  
HETATM    8  C   UNL     1      -7.193   7.680  69.261  1.00  0.00    -0.082 A  
HETATM    9  N   UNL     1      -6.610   6.599  68.592  1.00  0.00    -0.049 NA 
HETATM   10  N   UNL     1      -7.298   7.538  70.589  1.00  0.00    -0.067 NA 
HETATM   11  C   UNL     1      -7.910  10.250  66.607  1.00  0.00    -0.116 A  
HETATM   12  N   UNL     1      -8.430   9.598  70.693  1.00  0.00    -0.230 NA 
HETATM   13  H2  UNL     1      -5.836   6.957  68.033  1.00  0.00     0.000 HD 
HETATM   14  C   UNL     1      -7.919   8.505  71.275  1.00  0.00    -0.132 A  
HETATM   15  H1  UNL     1      -6.279   5.775  69.093  1.00  0.00     0.000 HD 
BRANCH  11  16
HETATM   16  O   UNL     1      -7.662  10.281  65.263  1.00  0.00    -0.141 OA 
HETATM   17  C   UNL     1      -6.338  10.083  64.792  1.00  0.00    -0.127 C  
ENDBRANCH  11  16
BRANCH  14  18
HETATM   18  N   UNL     1      -8.068   8.351  72.633  1.00  0.00    -0.298 NA 
HETATM   19  C   UNL     1      -6.906   8.451  73.489  1.00  0.00    -0.093 C  
BRANCH  18  20
HETATM   20  C   UNL     1      -9.394   8.264  73.221  1.00  0.00    -0.174 C  
BRANCH  20  21
HETATM   21  C   UNL     1      -9.885   6.812  73.297  1.00  0.00    -0.214 C  
BRANCH  21  22
HETATM   22  C   UNL     1     -11.277   6.634  72.691  1.00  0.00    -0.249 C  
BRANCH  22  23
HETATM   23  N   UNL     1     -11.222   6.110  71.342  1.00  0.00    -0.289 N  
HETATM   24  C   UNL     1     -11.243   6.921  70.232  1.00  0.00    -0.316 C  
HETATM   25  H   UNL     1     -11.165   5.100  71.211  1.00  0.00     0.000 HD 
HETATM   26  O   UNL     1     -11.336   8.143  70.292  1.00  0.00    -0.236 OA 
BRANCH  24  27
HETATM   27  C   UNL     1     -11.143   6.169  68.898  1.00  0.00    -0.345 C  
HETATM   28  C   UNL     1     -10.652   7.104  67.808  1.00  0.00    -0.293 C  
HETATM   29  C   UNL     1     -10.121   6.144  66.779  1.00  0.00    -0.234 C  
HETATM   30  C   UNL     1      -9.557   5.025  67.630  1.00  0.00    -0.146 C  
HETATM   31  O   UNL     1     -10.237   5.054  68.895  1.00  0.00    -0.178 OA 
ENDBRANCH  24  27
ENDBRANCH  22  23
ENDBRANCH  21  22
ENDBRANCH  20  21
ENDBRANCH  18  20
ENDBRANCH  14  18
ENDBRANCH   2   3
TORSDOF 8
ENDMDL
MODEL      234
REMARK 921   NORMALIZED FREE ENERGY PREDICTED BY IDOCK:   -3.61 KCAL/MOL
REMARK 922        TOTAL FREE ENERGY PREDICTED BY IDOCK:   -6.84 KCAL/MOL
REMARK 923 INTER-LIGAND FREE ENERGY PREDICTED BY IDOCK:   -6.61 KCAL/MOL
REMARK 924 INTRA-LIGAND FREE ENERGY PREDICTED BY IDOCK:   -0.22 KCAL/MOL
REMARK 927      BINDING AFFINITY PREDICTED BY RF-SCORE:    0.00 PKD
ROOT
HETATM    1  C   UNL     1     -10.661  12.135  68.680  1.00  0.00    -0.223 C  
HETATM    2  O   UNL     1     -11.750  11.821  69.547  1.00  0.00    -0.292 OA 
ENDROOT
BRANCH   2   3
HETATM    3  C   UNL     1     -11.687  10.587  70.143  1.00  0.00    -0.326 A  
HETATM    4  C   UNL     1     -10.866   9.570  69.625  1.00  0.00    -0.255 A  
HETATM    5  C   UNL     1     -10.865   8.279  70.127  1.00  0.00    -0.237 A  
HETATM    6  C   UNL     1     -11.665   8.000  71.227  1.00  0.00    -0.311 A  
HETATM    7  C   UNL     1     -12.408   9.039  71.836  1.00  0.00    -0.455 A  
HETATM    8  C   UNL     1     -11.657   6.664  71.623  1.00  0.00    -0.304 A  
HETATM    9  N   UNL     1     -12.361   6.226  72.750  1.00  0.00    -0.328 NA 
HETATM   10  N   UNL     1     -10.969   5.712  70.978  1.00  0.00    -0.221 NA 
HETATM   11  C   UNL     1     -12.437  10.331  71.297  1.00  0.00    -0.408 A  
HETATM   12  N   UNL     1     -10.121   7.352  69.520  1.00  0.00    -0.183 NA 
HETATM   13  H2  UNL     1     -13.334   6.515  72.643  1.00  0.00     0.000 HD 
HETATM   14  C   UNL     1     -10.212   6.083  69.938  1.00  0.00    -0.205 A  
HETATM   15  H1  UNL     1     -12.355   5.249  73.040  1.00  0.00     0.000 HD 
BRANCH  11  16
HETATM   16  O   UNL     1     -13.248  11.168  72.010  1.00  0.00    -0.493 OA 
HETATM   17  C   UNL     1     -13.114  12.572  71.854  1.00  0.00    -0.368 C  
ENDBRANCH  11  16
BRANCH  14  18
HETATM   18  N   UNL     1      -9.470   5.122  69.294  1.00  0.00    -0.130 NA 
HETATM   19  C   UNL     1      -9.296   3.827  69.916  1.00  0.00    -0.177 C  
BRANCH  18  20
HETATM   20  C   UNL     1      -9.015   5.337  67.931  1.00  0.00    -0.109 C  
BRANCH  20  21
HETATM   21  C   UNL     1      -9.977   4.716  66.909  1.00  0.00    -0.239 C  
BRANCH  21  22
HETATM   22  C   UNL     1      -9.488   4.884  65.470  1.00  0.00    -0.145 C  
BRANCH  22  23
HETATM   23  N   UNL     1      -8.934   6.201  65.233  1.00  0.00    -0.370 N  
HETATM   24  C   UNL     1      -8.118   6.478  64.162  1.00  0.00    -0.042 C  
HETATM   25  H   UNL     1      -9.159   6.951  65.885  1.00  0.00     0.000 HD 
HETATM   26  O   UNL     1      -7.772   5.633  63.341  1.00  0.00    -0.076 OA 
BRANCH  24  27
HETATM   27  C   UNL     1      -7.664   7.941  64.075  1.00  0.00    -0.133 C  
HETATM   28  C   UNL     1      -7.245   8.274  62.655  1.00  0.00    -0.096 C  
HETATM   29  C   UNL     1      -7.353   9.774  62.633  1.00  0.00    -0.119 C  
HETATM   30  C   UNL     1      -8.539  10.033  63.539  1.00  0.00    -0.208 C  
HETATM   31  O   UNL     1      -8.665   8.910  64.425  1.00  0.00    -0.160 OA 
ENDBRANCH  24  27
ENDBRANCH  22  23
ENDBRANCH  21  22
ENDBRANCH  20  21
ENDBRANCH  18  20
ENDBRANCH  14  18
ENDBRANCH   2   3
TORSDOF 8
ENDMDL
MODEL      235
REMARK 921   NORMALIZED FREE ENERGY PREDICTED BY IDOCK:   -3.61 KCAL/MOL
REMARK 922        TOTAL FREE ENERGY PREDICTED BY IDOCK:   -6.84 KCAL/MOL
REMARK 923 INTER-LIGAND FREE ENERGY PREDICTED BY IDOCK:   -6.21 KCAL/MOL
REMARK 924 INTRA-LIGAND FREE ENERGY PREDICTED BY IDOCK:   -0.62 KCAL/MOL
REMARK 927      BINDING AFFINITY PREDICTED BY RF-SCORE:    0.00 PKD
ROOT
HETATM    1  C   UNL     1      -9.397   2.293  70.437  1.00  0.00    -0.119 C  
HETATM    2  O   UNL     1      -9.858   2.745  71.711  1.00  0.00    -0.152 OA 
ENDROOT
BRANCH   2   3
HETATM    3  C   UNL     1      -9.571   4.053  72.006  1.00  0.00    -0.143 A  
HETATM    4  C   UNL     1     -10.398   5.098  71.556  1.00  0.00    -0.278 A  
HETATM    5  C   UNL     1     -10.079   6.435  71.733  1.00  0.00    -0.185 A  
HETATM    6  C   UNL     1      -8.925   6.749  72.438  1.00  0.00    -0.141 A  
HETATM    7  C   UNL     1      -8.143   5.712  73.001  1.00  0.00    -0.118 A  
HETATM    8  C   UNL     1      -8.644   8.112  72.509  1.00  0.00    -0.194 A  
HETATM    9  N   UNL     1      -7.552   8.601  73.234  1.00  0.00    -0.381 NA 
HETATM   10  N   UNL     1      -9.397   9.047  71.916  1.00  0.00    -0.363 NA 
HETATM   11  C   UNL     1      -8.449   4.363  72.782  1.00  0.00    -0.106 A  
HETATM   12  N   UNL     1     -10.875   7.363  71.198  1.00  0.00    -0.239 NA 
HETATM   13  H2  UNL     1      -6.714   8.126  72.896  1.00  0.00     0.000 HD 
HETATM   14  C   UNL     1     -10.502   8.647  71.273  1.00  0.00    -0.242 A  
HETATM   15  H1  UNL     1      -7.346   9.598  73.286  1.00  0.00     0.000 HD 
BRANCH  11  16
HETATM   16  O   UNL     1      -7.544   3.528  73.374  1.00  0.00    -0.059 OA 
HETATM   17  C   UNL     1      -7.943   2.743  74.487  1.00  0.00    -0.059 C  
ENDBRANCH  11  16
BRANCH  14  18
HETATM   18  N   UNL     1     -11.303   9.602  70.695  1.00  0.00    -0.288 NA 
HETATM   19  C   UNL     1     -12.644   9.803  71.199  1.00  0.00    -0.345 C  
BRANCH  18  20
HETATM   20  C   UNL     1     -10.756  10.520  69.709  1.00  0.00    -0.264 C  
BRANCH  20  21
HETATM   21  C   UNL     1     -10.884   9.962  68.285  1.00  0.00    -0.275 C  
BRANCH  21  22
HETATM   22  C   UNL     1     -11.222  11.047  67.261  1.00  0.00    -0.258 C  
BRANCH  22  23
HETATM   23  N   UNL     1     -10.507  12.279  67.517  1.00  0.00    -0.211 N  
HETATM   24  C   UNL     1     -10.515  13.336  66.637  1.00  0.00    -0.279 C  
HETATM   25  H   UNL     1      -9.976  12.367  68.383  1.00  0.00     0.000 HD 
HETATM   26  O   UNL     1     -11.103  13.311  65.560  1.00  0.00    -0.281 OA 
BRANCH  24  27
HETATM   27  C   UNL     1      -9.721  14.560  67.110  1.00  0.00    -0.240 C  
HETATM   28  C   UNL     1     -10.409  15.835  66.660  1.00  0.00    -0.292 C  
HETATM   29  C   UNL     1      -9.845  16.856  67.611  1.00  0.00    -0.259 C  
HETATM   30  C   UNL     1      -9.686  16.063  68.891  1.00  0.00    -0.232 C  
HETATM   31  O   UNL     1      -9.574  14.676  68.535  1.00  0.00    -0.209 OA 
ENDBRANCH  24  27
ENDBRANCH  22  23
ENDBRANCH  21  22
ENDBRANCH  20  21
ENDBRANCH  18  20
ENDBRANCH  14  18
ENDBRANCH   2   3
TORSDOF 8
ENDMDL
MODEL      236
REMARK 921   NORMALIZED FREE ENERGY PREDICTED BY IDOCK:   -3.60 KCAL/MOL
REMARK 922        TOTAL FREE ENERGY PREDICTED BY IDOCK:   -6.83 KCAL/MOL
REMARK 923 INTER-LIGAND FREE ENERGY PREDICTED BY IDOCK:   -6.13 KCAL/MOL
REMARK 924 INTRA-LIGAND FREE ENERGY PREDICTED BY IDOCK:   -0.70 KCAL/MOL
REMARK 927      BINDING AFFINITY PREDICTED BY RF-SCORE:    0.00 PKD
ROOT
HETATM    1  C   UNL     1     -12.017  15.812  68.907  1.00  0.00    -0.252 C  
HETATM    2  O   UNL     1     -10.617  15.818  69.186  1.00  0.00    -0.214 OA 
ENDROOT
BRANCH   2   3
HETATM    3  C   UNL     1      -9.890  14.842  68.554  1.00  0.00    -0.218 A  
HETATM    4  C   UNL     1     -10.360  13.519  68.479  1.00  0.00    -0.242 A  
HETATM    5  C   UNL     1      -9.604  12.483  67.954  1.00  0.00    -0.206 A  
HETATM    6  C   UNL     1      -8.356  12.782  67.427  1.00  0.00    -0.189 A  
HETATM    7  C   UNL     1      -7.915  14.127  67.385  1.00  0.00    -0.201 A  
HETATM    8  C   UNL     1      -7.634  11.674  66.985  1.00  0.00    -0.154 A  
HETATM    9  N   UNL     1      -6.384  11.807  66.371  1.00  0.00    -0.431 NA 
HETATM   10  N   UNL     1      -8.084  10.417  67.092  1.00  0.00    -0.114 NA 
HETATM   11  C   UNL     1      -8.666  15.161  67.956  1.00  0.00    -0.165 A  
HETATM   12  N   UNL     1     -10.091  11.242  68.002  1.00  0.00    -0.173 NA 
HETATM   13  H2  UNL     1      -5.783  12.342  66.998  1.00  0.00     0.000 HD 
HETATM   14  C   UNL     1      -9.310  10.231  67.599  1.00  0.00    -0.144 A  
HETATM   15  H1  UNL     1      -5.858  10.996  66.047  1.00  0.00     0.000 HD 
BRANCH  11  16
HETATM   16  O   UNL     1      -8.041  16.371  67.847  1.00  0.00    -0.154 OA 
HETATM   17  C   UNL     1      -7.801  16.920  66.560  1.00  0.00    -0.294 C  
ENDBRANCH  11  16
BRANCH  14  18
HETATM   18  N   UNL     1      -9.797   8.949  67.677  1.00  0.00    -0.172 NA 
HETATM   19  C   UNL     1      -9.571   8.037  66.577  1.00  0.00    -0.226 C  
BRANCH  18  20
HETATM   20  C   UNL     1     -10.376   8.458  68.916  1.00  0.00    -0.215 C  
BRANCH  20  21
HETATM   21  C   UNL     1      -9.452   8.715  70.114  1.00  0.00    -0.172 C  
BRANCH  21  22
HETATM   22  C   UNL     1     -10.226   9.076  71.382  1.00  0.00    -0.329 C  
BRANCH  22  23
HETATM   23  N   UNL     1     -10.365   7.946  72.276  1.00  0.00    -0.232 N  
HETATM   24  C   UNL     1      -9.555   7.767  73.373  1.00  0.00    -0.290 C  
HETATM   25  H   UNL     1     -11.091   7.256  72.085  1.00  0.00     0.000 HD 
HETATM   26  O   UNL     1      -8.640   8.529  73.667  1.00  0.00    -0.325 OA 
BRANCH  24  27
HETATM   27  C   UNL     1      -9.888   6.523  74.209  1.00  0.00    -0.314 C  
HETATM   28  C   UNL     1     -11.013   5.742  73.555  1.00  0.00    -0.208 C  
HETATM   29  C   UNL     1     -10.843   4.374  74.158  1.00  0.00    -0.267 C  
HETATM   30  C   UNL     1      -9.340   4.260  74.303  1.00  0.00    -0.106 C  
HETATM   31  O   UNL     1      -8.806   5.592  74.370  1.00  0.00    -0.120 OA 
ENDBRANCH  24  27
ENDBRANCH  22  23
ENDBRANCH  21  22
ENDBRANCH  20  21
ENDBRANCH  18  20
ENDBRANCH  14  18
ENDBRANCH   2   3
TORSDOF 8
ENDMDL
MODEL      237
REMARK 921   NORMALIZED FREE ENERGY PREDICTED BY IDOCK:   -3.60 KCAL/MOL
REMARK 922        TOTAL FREE ENERGY PREDICTED BY IDOCK:   -6.82 KCAL/MOL
REMARK 923 INTER-LIGAND FREE ENERGY PREDICTED BY IDOCK:   -5.86 KCAL/MOL
REMARK 924 INTRA-LIGAND FREE ENERGY PREDICTED BY IDOCK:   -0.96 KCAL/MOL
REMARK 927      BINDING AFFINITY PREDICTED BY RF-SCORE:    0.00 PKD
ROOT
HETATM    1  C   UNL     1      -8.179  10.292  65.045  1.00  0.00    -0.154 C  
HETATM    2  O   UNL     1      -8.003   8.885  64.878  1.00  0.00    -0.115 OA 
ENDROOT
BRANCH   2   3
HETATM    3  C   UNL     1      -8.110   8.142  66.026  1.00  0.00    -0.112 A  
HETATM    4  C   UNL     1      -9.111   8.411  66.976  1.00  0.00    -0.171 A  
HETATM    5  C   UNL     1      -9.178   7.762  68.199  1.00  0.00    -0.138 A  
HETATM    6  C   UNL     1      -8.252   6.763  68.464  1.00  0.00    -0.120 A  
HETATM    7  C   UNL     1      -7.312   6.395  67.472  1.00  0.00    -0.091 A  
HETATM    8  C   UNL     1      -8.347   6.211  69.741  1.00  0.00    -0.124 A  
HETATM    9  N   UNL     1      -7.529   5.151  70.147  1.00  0.00    -0.062 NA 
HETATM   10  N   UNL     1      -9.230   6.631  70.657  1.00  0.00    -0.158 NA 
HETATM   11  C   UNL     1      -7.223   7.085  66.257  1.00  0.00    -0.075 A  
HETATM   12  N   UNL     1     -10.107   8.141  69.079  1.00  0.00    -0.200 NA 
HETATM   13  H2  UNL     1      -6.559   5.431  69.999  1.00  0.00     0.000 HD 
HETATM   14  C   UNL     1     -10.094   7.590  70.299  1.00  0.00    -0.194 A  
HETATM   15  H1  UNL     1      -7.599   4.748  71.081  1.00  0.00     0.000 HD 
BRANCH  11  16
HETATM   16  O   UNL     1      -6.221   6.601  65.463  1.00  0.00    -0.036 OA 
HETATM   17  C   UNL     1      -6.537   5.704  64.410  1.00  0.00    -0.045 C  
ENDBRANCH  11  16
BRANCH  14  18
HETATM   18  N   UNL     1     -11.030   8.000  71.218  1.00  0.00    -0.232 NA 
HETATM   19  C   UNL     1     -11.993   7.047  71.725  1.00  0.00    -0.326 C  
BRANCH  18  20
HETATM   20  C   UNL     1     -10.947   9.326  71.808  1.00  0.00    -0.313 C  
BRANCH  20  21
HETATM   21  C   UNL     1     -12.306  10.039  71.792  1.00  0.00    -0.434 C  
BRANCH  21  22
HETATM   22  C   UNL     1     -12.699  10.517  70.394  1.00  0.00    -0.252 C  
BRANCH  22  23
HETATM   23  N   UNL     1     -12.318  11.894  70.162  1.00  0.00    -0.215 N  
HETATM   24  C   UNL     1     -11.955  12.362  68.921  1.00  0.00    -0.241 C  
HETATM   25  H   UNL     1     -12.320  12.543  70.949  1.00  0.00     0.000 HD 
HETATM   26  O   UNL     1     -11.898  11.651  67.923  1.00  0.00    -0.543 OA 
BRANCH  24  27
HETATM   27  C   UNL     1     -11.618  13.859  68.883  1.00  0.00    -0.316 C  
HETATM   28  C   UNL     1     -12.015  14.516  70.192  1.00  0.00    -0.377 C  
HETATM   29  C   UNL     1     -11.171  15.761  70.193  1.00  0.00    -0.357 C  
HETATM   30  C   UNL     1      -9.898  15.299  69.514  1.00  0.00    -0.226 C  
HETATM   31  O   UNL     1     -10.227  14.164  68.697  1.00  0.00    -0.234 OA 
ENDBRANCH  24  27
ENDBRANCH  22  23
ENDBRANCH  21  22
ENDBRANCH  20  21
ENDBRANCH  18  20
ENDBRANCH  14  18
ENDBRANCH   2   3
TORSDOF 8
ENDMDL
MODEL      238
REMARK 921   NORMALIZED FREE ENERGY PREDICTED BY IDOCK:   -3.60 KCAL/MOL
REMARK 922        TOTAL FREE ENERGY PREDICTED BY IDOCK:   -6.82 KCAL/MOL
REMARK 923 INTER-LIGAND FREE ENERGY PREDICTED BY IDOCK:   -5.69 KCAL/MOL
REMARK 924 INTRA-LIGAND FREE ENERGY PREDICTED BY IDOCK:   -1.13 KCAL/MOL
REMARK 927      BINDING AFFINITY PREDICTED BY RF-SCORE:    0.00 PKD
ROOT
HETATM    1  C   UNL     1      -9.799  15.170  68.631  1.00  0.00    -0.218 C  
HETATM    2  O   UNL     1      -9.521  14.593  67.355  1.00  0.00    -0.195 OA 
ENDROOT
BRANCH   2   3
HETATM    3  C   UNL     1      -8.787  13.435  67.384  1.00  0.00    -0.214 A  
HETATM    4  C   UNL     1      -9.407  12.178  67.279  1.00  0.00    -0.183 A  
HETATM    5  C   UNL     1      -8.714  10.986  67.422  1.00  0.00    -0.132 A  
HETATM    6  C   UNL     1      -7.341  11.042  67.615  1.00  0.00    -0.094 A  
HETATM    7  C   UNL     1      -6.682  12.295  67.603  1.00  0.00    -0.126 A  
HETATM    8  C   UNL     1      -6.734   9.804  67.818  1.00  0.00    -0.069 A  
HETATM    9  N   UNL     1      -5.349   9.679  67.966  1.00  0.00    -0.040 NA 
HETATM   10  N   UNL     1      -7.417   8.652  67.864  1.00  0.00    -0.095 NA 
HETATM   11  C   UNL     1      -7.394  13.495  67.501  1.00  0.00    -0.164 A  
HETATM   12  N   UNL     1      -9.395   9.838  67.397  1.00  0.00    -0.133 NA 
HETATM   13  H2  UNL     1      -5.059  10.297  68.724  1.00  0.00     0.000 HD 
HETATM   14  C   UNL     1      -8.738   8.699  67.649  1.00  0.00    -0.136 A  
HETATM   15  H1  UNL     1      -4.906   8.772  68.115  1.00  0.00     0.000 HD 
BRANCH  11  16
HETATM   16  O   UNL     1      -6.572  14.587  67.556  1.00  0.00    -0.227 OA 
HETATM   17  C   UNL     1      -5.947  14.930  68.782  1.00  0.00    -0.084 C  
ENDBRANCH  11  16
BRANCH  14  18
HETATM   18  N   UNL     1      -9.443   7.519  67.655  1.00  0.00    -0.136 NA 
HETATM   19  C   UNL     1     -10.784   7.491  67.116  1.00  0.00    -0.309 C  
BRANCH  18  20
HETATM   20  C   UNL     1      -8.790   6.277  68.035  1.00  0.00    -0.112 C  
BRANCH  20  21
HETATM   21  C   UNL     1      -9.758   5.326  68.753  1.00  0.00    -0.203 C  
BRANCH  21  22
HETATM   22  C   UNL     1      -9.577   5.345  70.271  1.00  0.00    -0.177 C  
BRANCH  22  23
HETATM   23  N   UNL     1     -10.668   6.019  70.942  1.00  0.00    -0.253 N  
HETATM   24  C   UNL     1     -10.572   7.313  71.394  1.00  0.00    -0.211 C  
HETATM   25  H   UNL     1     -11.543   5.514  71.084  1.00  0.00     0.000 HD 
HETATM   26  O   UNL     1      -9.552   7.989  71.292  1.00  0.00    -0.152 OA 
BRANCH  24  27
HETATM   27  C   UNL     1     -11.851   7.852  72.048  1.00  0.00    -0.318 C  
HETATM   28  C   UNL     1     -12.060   9.306  71.667  1.00  0.00    -0.451 C  
HETATM   29  C   UNL     1     -13.531   9.494  71.918  1.00  0.00    -0.502 C  
HETATM   30  C   UNL     1     -14.107   8.145  71.540  1.00  0.00    -0.383 C  
HETATM   31  O   UNL     1     -13.059   7.171  71.672  1.00  0.00    -0.372 OA 
ENDBRANCH  24  27
ENDBRANCH  22  23
ENDBRANCH  21  22
ENDBRANCH  20  21
ENDBRANCH  18  20
ENDBRANCH  14  18
ENDBRANCH   2   3
TORSDOF 8
ENDMDL
MODEL      239
REMARK 921   NORMALIZED FREE ENERGY PREDICTED BY IDOCK:   -3.59 KCAL/MOL
REMARK 922        TOTAL FREE ENERGY PREDICTED BY IDOCK:   -6.80 KCAL/MOL
REMARK 923 INTER-LIGAND FREE ENERGY PREDICTED BY IDOCK:   -6.23 KCAL/MOL
REMARK 924 INTRA-LIGAND FREE ENERGY PREDICTED BY IDOCK:   -0.58 KCAL/MOL
REMARK 927      BINDING AFFINITY PREDICTED BY RF-SCORE:    0.00 PKD
ROOT
HETATM    1  C   UNL     1      -7.089   5.542  66.171  1.00  0.00    -0.068 C  
HETATM    2  O   UNL     1      -7.613   4.954  67.362  1.00  0.00    -0.088 OA 
ENDROOT
BRANCH   2   3
HETATM    3  C   UNL     1      -8.431   5.767  68.104  1.00  0.00    -0.109 A  
HETATM    4  C   UNL     1      -8.813   7.037  67.637  1.00  0.00    -0.119 A  
HETATM    5  C   UNL     1      -9.539   7.931  68.407  1.00  0.00    -0.150 A  
HETATM    6  C   UNL     1      -9.955   7.528  69.668  1.00  0.00    -0.184 A  
HETATM    7  C   UNL     1      -9.682   6.211  70.109  1.00  0.00    -0.194 A  
HETATM    8  C   UNL     1     -10.617   8.512  70.400  1.00  0.00    -0.223 A  
HETATM    9  N   UNL     1     -11.155   8.251  71.665  1.00  0.00    -0.251 NA 
HETATM   10  N   UNL     1     -10.807   9.759  69.948  1.00  0.00    -0.255 NA 
HETATM   11  C   UNL     1      -8.912   5.328  69.343  1.00  0.00    -0.100 A  
HETATM   12  N   UNL     1      -9.784   9.150  67.918  1.00  0.00    -0.150 NA 
HETATM   13  H2  UNL     1     -10.408   7.875  72.250  1.00  0.00     0.000 HD 
HETATM   14  C   UNL     1     -10.385  10.047  68.710  1.00  0.00    -0.198 A  
HETATM   15  H1  UNL     1     -11.639   8.971  72.200  1.00  0.00     0.000 HD 
BRANCH  11  16
HETATM   16  O   UNL     1      -8.730   4.128  69.970  1.00  0.00    -0.067 OA 
HETATM   17  C   UNL     1      -7.414   3.685  70.263  1.00  0.00    -0.041 C  
ENDBRANCH  11  16
BRANCH  14  18
HETATM   18  N   UNL     1     -10.610  11.312  68.222  1.00  0.00    -0.187 NA 
HETATM   19  C   UNL     1      -9.561  12.303  68.310  1.00  0.00    -0.212 C  
BRANCH  18  20
HETATM   20  C   UNL     1     -11.819  11.603  67.469  1.00  0.00    -0.120 C  
BRANCH  20  21
HETATM   21  C   UNL     1     -11.509  12.363  66.172  1.00  0.00    -0.430 C  
BRANCH  21  22
HETATM   22  C   UNL     1     -12.234  13.707  66.094  1.00  0.00    -0.444 C  
BRANCH  22  23
HETATM   23  N   UNL     1     -11.435  14.790  66.626  1.00  0.00    -0.354 N  
HETATM   24  C   UNL     1     -10.770  15.684  65.820  1.00  0.00    -0.341 C  
HETATM   25  H   UNL     1     -11.362  14.895  67.638  1.00  0.00     0.000 HD 
HETATM   26  O   UNL     1     -10.777  15.621  64.595  1.00  0.00    -0.431 OA 
BRANCH  24  27
HETATM   27  C   UNL     1     -10.006  16.775  66.582  1.00  0.00    -0.293 C  
HETATM   28  C   UNL     1      -9.551  16.249  67.931  1.00  0.00    -0.227 C  
HETATM   29  C   UNL     1      -8.429  17.190  68.278  1.00  0.00    -0.236 C  
HETATM   30  C   UNL     1      -7.813  17.484  66.927  1.00  0.00    -0.228 C  
HETATM   31  O   UNL     1      -8.821  17.256  65.929  1.00  0.00    -0.528 OA 
ENDBRANCH  24  27
ENDBRANCH  22  23
ENDBRANCH  21  22
ENDBRANCH  20  21
ENDBRANCH  18  20
ENDBRANCH  14  18
ENDBRANCH   2   3
TORSDOF 8
ENDMDL
MODEL      240
REMARK 921   NORMALIZED FREE ENERGY PREDICTED BY IDOCK:   -3.57 KCAL/MOL
REMARK 922        TOTAL FREE ENERGY PREDICTED BY IDOCK:   -6.78 KCAL/MOL
REMARK 923 INTER-LIGAND FREE ENERGY PREDICTED BY IDOCK:   -5.64 KCAL/MOL
REMARK 924 INTRA-LIGAND FREE ENERGY PREDICTED BY IDOCK:   -1.14 KCAL/MOL
REMARK 927      BINDING AFFINITY PREDICTED BY RF-SCORE:    0.00 PKD
ROOT
HETATM    1  C   UNL     1      -9.706  12.449  67.838  1.00  0.00    -0.204 C  
HETATM    2  O   UNL     1     -11.026  11.945  68.040  1.00  0.00    -0.201 OA 
ENDROOT
BRANCH   2   3
HETATM    3  C   UNL     1     -11.101  10.751  68.711  1.00  0.00    -0.259 A  
HETATM    4  C   UNL     1     -10.557   9.575  68.165  1.00  0.00    -0.265 A  
HETATM    5  C   UNL     1     -10.715   8.332  68.756  1.00  0.00    -0.042 A  
HETATM    6  C   UNL     1     -11.387   8.260  69.968  1.00  0.00    -0.001 A  
HETATM    7  C   UNL     1     -11.837   9.448  70.592  1.00  0.00    -0.268 A  
HETATM    8  C   UNL     1     -11.562   6.966  70.457  1.00  0.00    -0.346 A  
HETATM    9  N   UNL     1     -12.164   6.723  71.696  1.00  0.00    -0.352 NA 
HETATM   10  N   UNL     1     -11.154   5.873  69.799  1.00  0.00    -0.389 NA 
HETATM   11  C   UNL     1     -11.711  10.695  69.969  1.00  0.00    -0.324 A  
HETATM   12  N   UNL     1     -10.243   7.254  68.125  1.00  0.00    -0.180 NA 
HETATM   13  H2  UNL     1     -13.075   7.183  71.697  1.00  0.00     0.000 HD 
HETATM   14  C   UNL     1     -10.499   6.046  68.644  1.00  0.00    -0.241 A  
HETATM   15  H1  UNL     1     -12.292   5.776  72.053  1.00  0.00     0.000 HD 
BRANCH  11  16
HETATM   16  O   UNL     1     -12.250  11.702  70.720  1.00  0.00    -0.375 OA 
HETATM   17  C   UNL     1     -13.124  11.384  71.791  1.00  0.00    -0.418 C  
ENDBRANCH  11  16
BRANCH  14  18
HETATM   18  N   UNL     1     -10.041   4.933  67.980  1.00  0.00    -0.114 NA 
HETATM   19  C   UNL     1     -10.037   4.922  66.534  1.00  0.00    -0.255 C  
BRANCH  18  20
HETATM   20  C   UNL     1      -9.405   3.851  68.713  1.00  0.00    -0.166 C  
BRANCH  20  21
HETATM   21  C   UNL     1      -7.961   4.200  69.098  1.00  0.00    -0.060 C  
BRANCH  21  22
HETATM   22  C   UNL     1      -7.487   3.439  70.337  1.00  0.00    -0.041 C  
BRANCH  22  23
HETATM   23  N   UNL     1      -8.067   3.965  71.555  1.00  0.00    -0.068 N  
HETATM   24  C   UNL     1      -7.316   4.593  72.521  1.00  0.00    -0.083 C  
HETATM   25  H   UNL     1      -9.071   3.867  71.702  1.00  0.00     0.000 HD 
HETATM   26  O   UNL     1      -6.099   4.734  72.443  1.00  0.00    -0.019 OA 
BRANCH  24  27
HETATM   27  C   UNL     1      -8.127   5.105  73.719  1.00  0.00    -0.109 C  
HETATM   28  C   UNL     1      -8.693   6.480  73.415  1.00  0.00    -0.132 C  
HETATM   29  C   UNL     1      -9.830   6.581  74.396  1.00  0.00    -0.355 C  
HETATM   30  C   UNL     1     -10.333   5.154  74.467  1.00  0.00    -0.268 C  
HETATM   31  O   UNL     1      -9.251   4.290  74.085  1.00  0.00    -0.102 OA 
ENDBRANCH  24  27
ENDBRANCH  22  23
ENDBRANCH  21  22
ENDBRANCH  20  21
ENDBRANCH  18  20
ENDBRANCH  14  18
ENDBRANCH   2   3
TORSDOF 8
ENDMDL
MODEL      241
REMARK 921   NORMALIZED FREE ENERGY PREDICTED BY IDOCK:   -3.57 KCAL/MOL
REMARK 922        TOTAL FREE ENERGY PREDICTED BY IDOCK:   -6.77 KCAL/MOL
REMARK 923 INTER-LIGAND FREE ENERGY PREDICTED BY IDOCK:   -5.32 KCAL/MOL
REMARK 924 INTRA-LIGAND FREE ENERGY PREDICTED BY IDOCK:   -1.45 KCAL/MOL
REMARK 927      BINDING AFFINITY PREDICTED BY RF-SCORE:    0.00 PKD
ROOT
HETATM    1  C   UNL     1     -12.149   8.872  72.246  1.00  0.00    -0.322 C  
HETATM    2  O   UNL     1     -12.607   7.530  72.079  1.00  0.00    -0.294 OA 
ENDROOT
BRANCH   2   3
HETATM    3  C   UNL     1     -11.712   6.675  71.490  1.00  0.00    -0.321 A  
HETATM    4  C   UNL     1     -11.354   6.815  70.138  1.00  0.00    -0.404 A  
HETATM    5  C   UNL     1     -10.546   5.903  69.478  1.00  0.00    -0.308 A  
HETATM    6  C   UNL     1     -10.023   4.842  70.203  1.00  0.00    -0.321 A  
HETATM    7  C   UNL     1     -10.276   4.750  71.593  1.00  0.00    -0.249 A  
HETATM    8  C   UNL     1      -9.281   3.936  69.448  1.00  0.00    -0.153 A  
HETATM    9  N   UNL     1      -8.634   2.844  70.036  1.00  0.00    -0.057 NA 
HETATM   10  N   UNL     1      -9.113   4.049  68.124  1.00  0.00    -0.126 NA 
HETATM   11  C   UNL     1     -11.127   5.651  72.243  1.00  0.00    -0.261 A  
HETATM   12  N   UNL     1     -10.328   6.064  68.171  1.00  0.00    -0.182 NA 
HETATM   13  H2  UNL     1      -9.329   2.315  70.564  1.00  0.00     0.000 HD 
HETATM   14  C   UNL     1      -9.642   5.119  67.515  1.00  0.00    -0.140 A  
HETATM   15  H1  UNL     1      -8.090   2.181  69.483  1.00  0.00     0.000 HD 
BRANCH  11  16
HETATM   16  O   UNL     1     -11.270   5.357  73.570  1.00  0.00    -0.274 OA 
HETATM   17  C   UNL     1     -10.454   4.354  74.155  1.00  0.00    -0.256 C  
ENDBRANCH  11  16
BRANCH  14  18
HETATM   18  N   UNL     1      -9.443   5.266  66.164  1.00  0.00    -0.155 NA 
HETATM   19  C   UNL     1     -10.263   4.514  65.240  1.00  0.00    -0.163 C  
BRANCH  18  20
HETATM   20  C   UNL     1      -8.543   6.291  65.662  1.00  0.00    -0.139 C  
BRANCH  20  21
HETATM   21  C   UNL     1      -9.034   7.700  66.020  1.00  0.00    -0.178 C  
BRANCH  21  22
HETATM   22  C   UNL     1      -7.917   8.587  66.569  1.00  0.00    -0.099 C  
BRANCH  22  23
HETATM   23  N   UNL     1      -7.731   8.411  67.994  1.00  0.00    -0.102 N  
HETATM   24  C   UNL     1      -7.340   9.436  68.822  1.00  0.00    -0.074 C  
HETATM   25  H   UNL     1      -7.897   7.490  68.399  1.00  0.00     0.000 HD 
HETATM   26  O   UNL     1      -7.093  10.570  68.421  1.00  0.00    -0.075 OA 
BRANCH  24  27
HETATM   27  C   UNL     1      -7.232   9.048  70.302  1.00  0.00    -0.058 C  
HETATM   28  C   UNL     1      -8.588   9.170  70.973  1.00  0.00    -0.236 C  
HETATM   29  C   UNL     1      -8.427   8.287  72.181  1.00  0.00    -0.239 C  
HETATM   30  C   UNL     1      -7.530   7.181  71.665  1.00  0.00    -0.086 C  
HETATM   31  O   UNL     1      -6.793   7.702  70.547  1.00  0.00    -0.046 OA 
ENDBRANCH  24  27
ENDBRANCH  22  23
ENDBRANCH  21  22
ENDBRANCH  20  21
ENDBRANCH  18  20
ENDBRANCH  14  18
ENDBRANCH   2   3
TORSDOF 8
ENDMDL
MODEL      242
REMARK 921   NORMALIZED FREE ENERGY PREDICTED BY IDOCK:   -3.56 KCAL/MOL
REMARK 922        TOTAL FREE ENERGY PREDICTED BY IDOCK:   -6.76 KCAL/MOL
REMARK 923 INTER-LIGAND FREE ENERGY PREDICTED BY IDOCK:   -5.70 KCAL/MOL
REMARK 924 INTRA-LIGAND FREE ENERGY PREDICTED BY IDOCK:   -1.06 KCAL/MOL
REMARK 927      BINDING AFFINITY PREDICTED BY RF-SCORE:    0.00 PKD
ROOT
HETATM    1  C   UNL     1     -12.565  14.578  70.409  1.00  0.00    -0.346 C  
HETATM    2  O   UNL     1     -12.343  14.706  69.004  1.00  0.00    -0.203 OA 
ENDROOT
BRANCH   2   3
HETATM    3  C   UNL     1     -11.091  14.347  68.574  1.00  0.00    -0.253 A  
HETATM    4  C   UNL     1     -10.634  13.022  68.692  1.00  0.00    -0.257 A  
HETATM    5  C   UNL     1      -9.337  12.647  68.378  1.00  0.00    -0.148 A  
HETATM    6  C   UNL     1      -8.477  13.610  67.871  1.00  0.00    -0.177 A  
HETATM    7  C   UNL     1      -8.955  14.922  67.633  1.00  0.00    -0.181 A  
HETATM    8  C   UNL     1      -7.175  13.165  67.649  1.00  0.00    -0.159 A  
HETATM    9  N   UNL     1      -6.201  13.993  67.083  1.00  0.00    -0.313 NA 
HETATM   10  N   UNL     1      -6.768  11.922  67.936  1.00  0.00    -0.073 NA 
HETATM   11  C   UNL     1     -10.253  15.304  67.992  1.00  0.00    -0.230 A  
HETATM   12  N   UNL     1      -8.960  11.386  68.603  1.00  0.00    -0.161 NA 
HETATM   13  H2  UNL     1      -6.149  14.844  67.644  1.00  0.00     0.000 HD 
HETATM   14  C   UNL     1      -7.677  11.058  68.407  1.00  0.00    -0.119 A  
HETATM   15  H1  UNL     1      -5.249  13.666  66.920  1.00  0.00     0.000 HD 
BRANCH  11  16
HETATM   16  O   UNL     1     -10.495  16.621  67.719  1.00  0.00    -0.296 OA 
HETATM   17  C   UNL     1     -10.408  17.578  68.763  1.00  0.00    -0.358 C  
ENDBRANCH  11  16
BRANCH  14  18
HETATM   18  N   UNL     1      -7.278   9.768  68.667  1.00  0.00    -0.072 NA 
HETATM   19  C   UNL     1      -7.012   9.371  70.032  1.00  0.00    -0.071 C  
BRANCH  18  20
HETATM   20  C   UNL     1      -7.294   8.768  67.613  1.00  0.00    -0.085 C  
BRANCH  20  21
HETATM   21  C   UNL     1      -7.011   7.363  68.162  1.00  0.00    -0.075 C  
BRANCH  21  22
HETATM   22  C   UNL     1      -8.211   6.426  68.016  1.00  0.00    -0.116 C  
BRANCH  22  23
HETATM   23  N   UNL     1      -9.172   6.602  69.085  1.00  0.00    -0.137 N  
HETATM   24  C   UNL     1     -10.304   7.370  68.943  1.00  0.00    -0.206 C  
HETATM   25  H   UNL     1      -9.003   6.138  69.977  1.00  0.00     0.000 HD 
HETATM   26  O   UNL     1     -10.576   7.986  67.917  1.00  0.00    -0.209 OA 
BRANCH  24  27
HETATM   27  C   UNL     1     -11.208   7.400  70.183  1.00  0.00    -0.218 C  
HETATM   28  C   UNL     1     -10.543   6.662  71.330  1.00  0.00    -0.255 C  
HETATM   29  C   UNL     1     -11.258   7.225  72.529  1.00  0.00    -0.342 C  
HETATM   30  C   UNL     1     -11.510   8.661  72.119  1.00  0.00    -0.373 C  
HETATM   31  O   UNL     1     -11.510   8.712  70.683  1.00  0.00    -0.269 OA 
ENDBRANCH  24  27
ENDBRANCH  22  23
ENDBRANCH  21  22
ENDBRANCH  20  21
ENDBRANCH  18  20
ENDBRANCH  14  18
ENDBRANCH   2   3
TORSDOF 8
ENDMDL
MODEL      243
REMARK 921   NORMALIZED FREE ENERGY PREDICTED BY IDOCK:   -3.56 KCAL/MOL
REMARK 922        TOTAL FREE ENERGY PREDICTED BY IDOCK:   -6.76 KCAL/MOL
REMARK 923 INTER-LIGAND FREE ENERGY PREDICTED BY IDOCK:   -6.09 KCAL/MOL
REMARK 924 INTRA-LIGAND FREE ENERGY PREDICTED BY IDOCK:   -0.67 KCAL/MOL
REMARK 927      BINDING AFFINITY PREDICTED BY RF-SCORE:    0.00 PKD
ROOT
HETATM    1  C   UNL     1     -11.833   6.606  70.472  1.00  0.00    -0.370 C  
HETATM    2  O   UNL     1     -10.456   6.979  70.422  1.00  0.00    -0.201 OA 
ENDROOT
BRANCH   2   3
HETATM    3  C   UNL     1     -10.126   7.868  69.432  1.00  0.00    -0.196 A  
HETATM    4  C   UNL     1     -10.160   9.255  69.659  1.00  0.00    -0.208 A  
HETATM    5  C   UNL     1      -9.948  10.185  68.654  1.00  0.00    -0.170 A  
HETATM    6  C   UNL     1      -9.629   9.721  67.385  1.00  0.00    -0.187 A  
HETATM    7  C   UNL     1      -9.473   8.332  67.165  1.00  0.00    -0.206 A  
HETATM    8  C   UNL     1      -9.502  10.719  66.420  1.00  0.00    -0.171 A  
HETATM    9  N   UNL     1      -9.124  10.426  65.105  1.00  0.00    -0.184 NA 
HETATM   10  N   UNL     1      -9.706  12.017  66.677  1.00  0.00    -0.204 NA 
HETATM   11  C   UNL     1      -9.730   7.397  68.175  1.00  0.00    -0.151 A  
HETATM   12  N   UNL     1     -10.086  11.482  68.937  1.00  0.00    -0.172 NA 
HETATM   13  H2  UNL     1      -9.768   9.722  64.744  1.00  0.00     0.000 HD 
HETATM   14  C   UNL     1      -9.993  12.369  67.937  1.00  0.00    -0.204 A  
HETATM   15  H1  UNL     1      -9.030  11.156  64.400  1.00  0.00     0.000 HD 
BRANCH  11  16
HETATM   16  O   UNL     1      -9.564   6.112  67.740  1.00  0.00    -0.115 OA 
HETATM   17  C   UNL     1     -10.397   5.611  66.707  1.00  0.00    -0.262 C  
ENDBRANCH  11  16
BRANCH  14  18
HETATM   18  N   UNL     1     -10.166  13.702  68.220  1.00  0.00    -0.238 NA 
HETATM   19  C   UNL     1      -9.561  14.259  69.410  1.00  0.00     0.313 C  
BRANCH  18  20
HETATM   20  C   UNL     1     -10.797  14.582  67.250  1.00  0.00    -0.297 C  
BRANCH  20  21
HETATM   21  C   UNL     1     -11.227  15.910  67.888  1.00  0.00    -0.297 C  
BRANCH  21  22
HETATM   22  C   UNL     1     -10.958  17.109  66.978  1.00  0.00     0.081 C  
BRANCH  22  23
HETATM   23  N   UNL     1      -9.954  17.996  67.528  1.00  0.00    -0.314 N  
HETATM   24  C   UNL     1      -9.551  19.144  66.888  1.00  0.00    -0.325 C  
HETATM   25  H   UNL     1      -9.529  17.759  68.424  1.00  0.00     0.000 HD 
HETATM   26  O   UNL     1      -9.986  19.495  65.796  1.00  0.00    -0.418 OA 
BRANCH  24  27
HETATM   27  C   UNL     1      -8.500  19.959  67.654  1.00  0.00    -0.326 C  
HETATM   28  C   UNL     1      -7.960  19.150  68.819  1.00  0.00    -0.382 C  
HETATM   29  C   UNL     1      -6.648  19.831  69.099  1.00  0.00    -0.377 C  
HETATM   30  C   UNL     1      -6.188  20.245  67.717  1.00  0.00    -0.234 C  
HETATM   31  O   UNL     1      -7.353  20.349  66.883  1.00  0.00    -0.276 OA 
ENDBRANCH  24  27
ENDBRANCH  22  23
ENDBRANCH  21  22
ENDBRANCH  20  21
ENDBRANCH  18  20
ENDBRANCH  14  18
ENDBRANCH   2   3
TORSDOF 8
ENDMDL
MODEL      244
REMARK 921   NORMALIZED FREE ENERGY PREDICTED BY IDOCK:   -3.56 KCAL/MOL
REMARK 922        TOTAL FREE ENERGY PREDICTED BY IDOCK:   -6.76 KCAL/MOL
REMARK 923 INTER-LIGAND FREE ENERGY PREDICTED BY IDOCK:   -5.82 KCAL/MOL
REMARK 924 INTRA-LIGAND FREE ENERGY PREDICTED BY IDOCK:   -0.93 KCAL/MOL
REMARK 927      BINDING AFFINITY PREDICTED BY RF-SCORE:    0.00 PKD
ROOT
HETATM    1  C   UNL     1     -12.199  12.462  70.690  1.00  0.00    -0.278 C  
HETATM    2  O   UNL     1     -12.363  12.586  69.277  1.00  0.00    -0.103 OA 
ENDROOT
BRANCH   2   3
HETATM    3  C   UNL     1     -11.657  11.682  68.524  1.00  0.00    -0.317 A  
HETATM    4  C   UNL     1     -10.976  10.609  69.126  1.00  0.00    -0.296 A  
HETATM    5  C   UNL     1     -10.159   9.747  68.413  1.00  0.00    -0.166 A  
HETATM    6  C   UNL     1     -10.060   9.917  67.039  1.00  0.00    -0.275 A  
HETATM    7  C   UNL     1     -10.832  10.917  66.400  1.00  0.00    -0.210 A  
HETATM    8  C   UNL     1      -9.165   9.053  66.412  1.00  0.00    -0.188 A  
HETATM    9  N   UNL     1      -8.994   9.052  65.023  1.00  0.00    -0.352 NA 
HETATM   10  N   UNL     1      -8.426   8.155  67.076  1.00  0.00    -0.118 NA 
HETATM   11  C   UNL     1     -11.622  11.811  67.131  1.00  0.00    -0.266 A  
HETATM   12  N   UNL     1      -9.479   8.808  69.077  1.00  0.00    -0.159 NA 
HETATM   13  H2  UNL     1      -8.763  10.004  64.736  1.00  0.00     0.000 HD 
HETATM   14  C   UNL     1      -8.604   8.053  68.400  1.00  0.00    -0.127 A  
HETATM   15  H1  UNL     1      -8.338   8.420  64.565  1.00  0.00     0.000 HD 
BRANCH  11  16
HETATM   16  O   UNL     1     -12.247  12.723  66.327  1.00  0.00    -0.515 OA 
HETATM   17  C   UNL     1     -11.843  14.082  66.367  1.00  0.00    -0.418 C  
ENDBRANCH  11  16
BRANCH  14  18
HETATM   18  N   UNL     1      -7.880   7.108  69.085  1.00  0.00    -0.115 NA 
HETATM   19  C   UNL     1      -7.368   7.424  70.401  1.00  0.00    -0.077 C  
BRANCH  18  20
HETATM   20  C   UNL     1      -7.777   5.750  68.576  1.00  0.00    -0.093 C  
BRANCH  20  21
HETATM   21  C   UNL     1      -8.442   4.740  69.521  1.00  0.00    -0.092 C  
BRANCH  21  22
HETATM   22  C   UNL     1      -9.760   4.200  68.965  1.00  0.00    -0.118 C  
BRANCH  22  23
HETATM   23  N   UNL     1      -9.722   4.044  67.526  1.00  0.00    -0.164 N  
HETATM   24  C   UNL     1     -10.329   4.931  66.670  1.00  0.00    -0.242 C  
HETATM   25  H   UNL     1      -9.225   3.245  67.133  1.00  0.00     0.000 HD 
HETATM   26  O   UNL     1     -10.971   5.905  67.051  1.00  0.00    -0.297 OA 
BRANCH  24  27
HETATM   27  C   UNL     1     -10.143   4.602  65.182  1.00  0.00    -0.054 C  
HETATM   28  C   UNL     1      -8.980   3.644  65.001  1.00  0.00    -0.131 C  
HETATM   29  C   UNL     1      -9.270   3.040  63.654  1.00  0.00    -0.097 C  
HETATM   30  C   UNL     1     -10.784   2.977  63.639  1.00  0.00    -0.215 C  
HETATM   31  O   UNL     1     -11.271   3.972  64.553  1.00  0.00    -0.336 OA 
ENDBRANCH  24  27
ENDBRANCH  22  23
ENDBRANCH  21  22
ENDBRANCH  20  21
ENDBRANCH  18  20
ENDBRANCH  14  18
ENDBRANCH   2   3
TORSDOF 8
ENDMDL
MODEL      245
REMARK 921   NORMALIZED FREE ENERGY PREDICTED BY IDOCK:   -3.55 KCAL/MOL
REMARK 922        TOTAL FREE ENERGY PREDICTED BY IDOCK:   -6.74 KCAL/MOL
REMARK 923 INTER-LIGAND FREE ENERGY PREDICTED BY IDOCK:   -7.14 KCAL/MOL
REMARK 924 INTRA-LIGAND FREE ENERGY PREDICTED BY IDOCK:    0.40 KCAL/MOL
REMARK 927      BINDING AFFINITY PREDICTED BY RF-SCORE:    0.00 PKD
ROOT
HETATM    1  C   UNL     1     -13.467   9.223  72.268  1.00  0.00    -0.482 C  
HETATM    2  O   UNL     1     -12.182   8.602  72.241  1.00  0.00    -0.362 OA 
ENDROOT
BRANCH   2   3
HETATM    3  C   UNL     1     -11.624   8.466  70.996  1.00  0.00    -0.275 A  
HETATM    4  C   UNL     1     -11.383   9.587  70.181  1.00  0.00    -0.241 A  
HETATM    5  C   UNL     1     -10.931   9.481  68.876  1.00  0.00    -0.086 A  
HETATM    6  C   UNL     1     -10.648   8.217  68.378  1.00  0.00    -0.148 A  
HETATM    7  C   UNL     1     -10.770   7.087  69.222  1.00  0.00    -0.245 A  
HETATM    8  C   UNL     1     -10.267   8.196  67.037  1.00  0.00    -0.308 A  
HETATM    9  N   UNL     1      -9.888   7.009  66.399  1.00  0.00    -0.401 NA 
HETATM   10  N   UNL     1     -10.213   9.294  66.273  1.00  0.00    -0.249 NA 
HETATM   11  C   UNL     1     -11.268   7.198  70.525  1.00  0.00    -0.290 A  
HETATM   12  N   UNL     1     -10.814  10.591  68.143  1.00  0.00    -0.233 NA 
HETATM   13  H2  UNL     1     -10.644   6.334  66.520  1.00  0.00     0.000 HD 
HETATM   14  C   UNL     1     -10.487  10.472  66.850  1.00  0.00    -0.246 A  
HETATM   15  H1  UNL     1      -9.609   6.994  65.419  1.00  0.00     0.000 HD 
BRANCH  11  16
HETATM   16  O   UNL     1     -11.348   5.985  71.150  1.00  0.00    -0.292 OA 
HETATM   17  C   UNL     1     -10.289   5.564  71.995  1.00  0.00    -0.213 C  
ENDBRANCH  11  16
BRANCH  14  18
HETATM   18  N   UNL     1     -10.396  11.610  66.085  1.00  0.00    -0.233 NA 
HETATM   19  C   UNL     1     -11.552  12.057  65.339  1.00  0.00    -0.286 C  
BRANCH  18  20
HETATM   20  C   UNL     1      -9.214  12.452  66.160  1.00  0.00    -0.101 C  
BRANCH  20  21
HETATM   21  C   UNL     1      -8.529  12.345  67.529  1.00  0.00    -0.175 C  
BRANCH  21  22
HETATM   22  C   UNL     1      -9.426  12.822  68.671  1.00  0.00     0.004 C  
BRANCH  22  23
HETATM   23  N   UNL     1     -10.155  14.025  68.325  1.00  0.00    -0.240 N  
HETATM   24  C   UNL     1      -9.720  15.280  68.678  1.00  0.00    -0.212 C  
HETATM   25  H   UNL     1     -11.025  13.937  67.800  1.00  0.00     0.000 HD 
HETATM   26  O   UNL     1      -8.702  15.482  69.332  1.00  0.00    -0.246 OA 
BRANCH  24  27
HETATM   27  C   UNL     1     -10.621  16.423  68.188  1.00  0.00    -0.318 C  
HETATM   28  C   UNL     1     -10.189  17.734  68.818  1.00  0.00    -0.373 C  
HETATM   29  C   UNL     1     -10.773  18.749  67.873  1.00  0.00    -0.347 C  
HETATM   30  C   UNL     1     -10.651  18.060  66.530  1.00  0.00    -0.253 C  
HETATM   31  O   UNL     1     -10.602  16.644  66.769  1.00  0.00    -0.293 OA 
ENDBRANCH  24  27
ENDBRANCH  22  23
ENDBRANCH  21  22
ENDBRANCH  20  21
ENDBRANCH  18  20
ENDBRANCH  14  18
ENDBRANCH   2   3
TORSDOF 8
ENDMDL
MODEL      246
REMARK 921   NORMALIZED FREE ENERGY PREDICTED BY IDOCK:   -3.54 KCAL/MOL
REMARK 922        TOTAL FREE ENERGY PREDICTED BY IDOCK:   -6.74 KCAL/MOL
REMARK 923 INTER-LIGAND FREE ENERGY PREDICTED BY IDOCK:   -6.03 KCAL/MOL
REMARK 924 INTRA-LIGAND FREE ENERGY PREDICTED BY IDOCK:   -0.70 KCAL/MOL
REMARK 927      BINDING AFFINITY PREDICTED BY RF-SCORE:    0.00 PKD
ROOT
HETATM    1  C   UNL     1      -6.628  16.266  68.734  1.00  0.00    -0.136 C  
HETATM    2  O   UNL     1      -6.682  15.385  67.613  1.00  0.00    -0.146 OA 
ENDROOT
BRANCH   2   3
HETATM    3  C   UNL     1      -7.829  14.642  67.505  1.00  0.00    -0.193 A  
HETATM    4  C   UNL     1      -7.888  13.321  67.984  1.00  0.00    -0.148 A  
HETATM    5  C   UNL     1      -8.989  12.502  67.789  1.00  0.00    -0.184 A  
HETATM    6  C   UNL     1     -10.099  13.033  67.147  1.00  0.00    -0.244 A  
HETATM    7  C   UNL     1     -10.103  14.396  66.765  1.00  0.00    -0.266 A  
HETATM    8  C   UNL     1     -11.132  12.122  66.930  1.00  0.00    -0.297 A  
HETATM    9  N   UNL     1     -12.345  12.510  66.351  1.00  0.00    -0.453 NA 
HETATM   10  N   UNL     1     -11.053  10.830  67.274  1.00  0.00    -0.305 NA 
HETATM   11  C   UNL     1      -8.972  15.205  66.927  1.00  0.00    -0.252 A  
HETATM   12  N   UNL     1      -8.927  11.233  68.198  1.00  0.00    -0.159 NA 
HETATM   13  H2  UNL     1     -12.136  12.964  65.462  1.00  0.00     0.000 HD 
HETATM   14  C   UNL     1      -9.947  10.416  67.905  1.00  0.00    -0.167 A  
HETATM   15  H1  UNL     1     -13.100  11.844  66.193  1.00  0.00     0.000 HD 
BRANCH  11  16
HETATM   16  O   UNL     1      -9.173  16.471  66.452  1.00  0.00    -0.254 OA 
HETATM   17  C   UNL     1     -10.407  16.796  65.830  1.00  0.00    -0.328 C  
ENDBRANCH  11  16
BRANCH  14  18
HETATM   18  N   UNL     1      -9.873   9.101  68.297  1.00  0.00    -0.156 NA 
HETATM   19  C   UNL     1     -10.297   8.064  67.383  1.00  0.00    -0.284 C  
BRANCH  18  20
HETATM   20  C   UNL     1      -9.215   8.742  69.542  1.00  0.00    -0.149 C  
BRANCH  20  21
HETATM   21  C   UNL     1     -10.048   9.157  70.763  1.00  0.00    -0.333 C  
BRANCH  21  22
HETATM   22  C   UNL     1      -9.350   8.834  72.084  1.00  0.00    -0.206 C  
BRANCH  22  23
HETATM   23  N   UNL     1      -9.684   7.510  72.567  1.00  0.00    -0.158 N  
HETATM   24  C   UNL     1      -8.770   6.483  72.603  1.00  0.00    -0.124 C  
HETATM   25  H   UNL     1     -10.634   7.333  72.894  1.00  0.00     0.000 HD 
HETATM   26  O   UNL     1      -7.614   6.595  72.208  1.00  0.00    -0.093 OA 
BRANCH  24  27
HETATM   27  C   UNL     1      -9.317   5.171  73.181  1.00  0.00    -0.131 C  
HETATM   28  C   UNL     1     -10.834   5.169  73.127  1.00  0.00    -0.344 C  
HETATM   29  C   UNL     1     -11.154   3.701  73.207  1.00  0.00    -0.252 C  
HETATM   30  C   UNL     1     -10.007   3.070  72.446  1.00  0.00    -0.164 C  
HETATM   31  O   UNL     1      -8.899   3.983  72.491  1.00  0.00    -0.104 OA 
ENDBRANCH  24  27
ENDBRANCH  22  23
ENDBRANCH  21  22
ENDBRANCH  20  21
ENDBRANCH  18  20
ENDBRANCH  14  18
ENDBRANCH   2   3
TORSDOF 8
ENDMDL
MODEL      247
REMARK 921   NORMALIZED FREE ENERGY PREDICTED BY IDOCK:   -3.53 KCAL/MOL
REMARK 922        TOTAL FREE ENERGY PREDICTED BY IDOCK:   -6.71 KCAL/MOL
REMARK 923 INTER-LIGAND FREE ENERGY PREDICTED BY IDOCK:   -5.85 KCAL/MOL
REMARK 924 INTRA-LIGAND FREE ENERGY PREDICTED BY IDOCK:   -0.86 KCAL/MOL
REMARK 927      BINDING AFFINITY PREDICTED BY RF-SCORE:    0.00 PKD
ROOT
HETATM    1  C   UNL     1      -6.583   9.804  63.533  1.00  0.00    -0.117 C  
HETATM    2  O   UNL     1      -6.522   8.388  63.711  1.00  0.00    -0.072 OA 
ENDROOT
BRANCH   2   3
HETATM    3  C   UNL     1      -7.437   7.869  64.591  1.00  0.00    -0.101 A  
HETATM    4  C   UNL     1      -7.837   8.587  65.732  1.00  0.00    -0.100 A  
HETATM    5  C   UNL     1      -8.667   8.049  66.703  1.00  0.00    -0.140 A  
HETATM    6  C   UNL     1      -9.170   6.771  66.504  1.00  0.00    -0.190 A  
HETATM    7  C   UNL     1      -8.875   6.079  65.305  1.00  0.00     0.005 A  
HETATM    8  C   UNL     1      -9.937   6.281  67.559  1.00  0.00    -0.134 A  
HETATM    9  N   UNL     1     -10.568   5.034  67.493  1.00  0.00    -0.033 NA 
HETATM   10  N   UNL     1     -10.146   6.964  68.693  1.00  0.00    -0.156 NA 
HETATM   11  C   UNL     1      -8.002   6.612  64.349  1.00  0.00    -0.097 A  
HETATM   12  N   UNL     1      -8.925   8.767  67.798  1.00  0.00    -0.135 NA 
HETATM   13  H2  UNL     1      -9.858   4.336  67.273  1.00  0.00     0.000 HD 
HETATM   14  C   UNL     1      -9.633   8.198  68.783  1.00  0.00    -0.149 A  
HETATM   15  H1  UNL     1     -11.130   4.676  68.266  1.00  0.00     0.000 HD 
BRANCH  11  16
HETATM   16  O   UNL     1      -7.818   5.765  63.291  1.00  0.00    -0.089 OA 
HETATM   17  C   UNL     1      -8.042   4.375  63.463  1.00  0.00    -0.094 C  
ENDBRANCH  11  16
BRANCH  14  18
HETATM   18  N   UNL     1      -9.874   8.923  69.925  1.00  0.00    -0.177 NA 
HETATM   19  C   UNL     1      -8.758   9.446  70.682  1.00  0.00    -0.211 C  
BRANCH  18  20
HETATM   20  C   UNL     1     -11.230   9.312  70.275  1.00  0.00    -0.231 C  
BRANCH  20  21
HETATM   21  C   UNL     1     -11.470  10.809  70.036  1.00  0.00    -0.412 C  
BRANCH  21  22
HETATM   22  C   UNL     1     -11.933  11.105  68.610  1.00  0.00    -0.219 C  
BRANCH  22  23
HETATM   23  N   UNL     1     -11.714  12.488  68.242  1.00  0.00    -0.327 N  
HETATM   24  C   UNL     1     -11.872  12.946  66.955  1.00  0.00    -0.379 C  
HETATM   25  H   UNL     1     -11.433  13.149  68.966  1.00  0.00     0.000 HD 
HETATM   26  O   UNL     1     -12.183  12.220  66.015  1.00  0.00    -0.646 OA 
BRANCH  24  27
HETATM   27  C   UNL     1     -11.623  14.450  66.783  1.00  0.00    -0.385 C  
HETATM   28  C   UNL     1     -10.314  14.841  67.445  1.00  0.00    -0.242 C  
HETATM   29  C   UNL     1      -9.981  16.135  66.753  1.00  0.00    -0.264 C  
HETATM   30  C   UNL     1     -10.499  15.902  65.348  1.00  0.00    -0.405 C  
HETATM   31  O   UNL     1     -11.523  14.898  65.422  1.00  0.00    -0.346 OA 
ENDBRANCH  24  27
ENDBRANCH  22  23
ENDBRANCH  21  22
ENDBRANCH  20  21
ENDBRANCH  18  20
ENDBRANCH  14  18
ENDBRANCH   2   3
TORSDOF 8
ENDMDL
MODEL      248
REMARK 921   NORMALIZED FREE ENERGY PREDICTED BY IDOCK:   -3.51 KCAL/MOL
REMARK 922        TOTAL FREE ENERGY PREDICTED BY IDOCK:   -6.69 KCAL/MOL
REMARK 923 INTER-LIGAND FREE ENERGY PREDICTED BY IDOCK:   -5.94 KCAL/MOL
REMARK 924 INTRA-LIGAND FREE ENERGY PREDICTED BY IDOCK:   -0.75 KCAL/MOL
REMARK 927      BINDING AFFINITY PREDICTED BY RF-SCORE:    0.00 PKD
ROOT
HETATM    1  C   UNL     1      -6.435   6.759  66.930  1.00  0.00    -0.043 C  
HETATM    2  O   UNL     1      -7.861   6.821  66.920  1.00  0.00    -0.104 OA 
ENDROOT
BRANCH   2   3
HETATM    3  C   UNL     1      -8.394   8.074  67.086  1.00  0.00    -0.121 A  
HETATM    4  C   UNL     1      -7.573   9.184  67.349  1.00  0.00    -0.085 A  
HETATM    5  C   UNL     1      -8.082  10.440  67.638  1.00  0.00    -0.107 A  
HETATM    6  C   UNL     1      -9.458  10.617  67.605  1.00  0.00    -0.167 A  
HETATM    7  C   UNL     1     -10.294   9.540  67.225  1.00  0.00    -0.319 A  
HETATM    8  C   UNL     1      -9.887  11.890  67.976  1.00  0.00    -0.190 A  
HETATM    9  N   UNL     1     -11.238  12.252  67.937  1.00  0.00    -0.254 NA 
HETATM   10  N   UNL     1      -9.050  12.859  68.371  1.00  0.00    -0.167 NA 
HETATM   11  C   UNL     1      -9.776   8.264  66.976  1.00  0.00    -0.211 A  
HETATM   12  N   UNL     1      -7.234  11.419  67.964  1.00  0.00    -0.080 NA 
HETATM   13  H2  UNL     1     -11.759  11.572  68.491  1.00  0.00     0.000 HD 
HETATM   14  C   UNL     1      -7.737  12.598  68.353  1.00  0.00    -0.133 A  
HETATM   15  H1  UNL     1     -11.551  13.183  68.208  1.00  0.00     0.000 HD 
BRANCH  11  16
HETATM   16  O   UNL     1     -10.756   7.362  66.669  1.00  0.00    -0.241 OA 
HETATM   17  C   UNL     1     -11.097   6.355  67.609  1.00  0.00    -0.289 C  
ENDBRANCH  11  16
BRANCH  14  18
HETATM   18  N   UNL     1      -6.868  13.597  68.719  1.00  0.00    -0.102 NA 
HETATM   19  C   UNL     1      -6.650  13.868  70.123  1.00  0.00     0.049 C  
BRANCH  18  20
HETATM   20  C   UNL     1      -6.043  14.256  67.720  1.00  0.00    -0.118 C  
BRANCH  20  21
HETATM   21  C   UNL     1      -5.754  15.715  68.097  1.00  0.00    -0.133 C  
BRANCH  21  22
HETATM   22  C   UNL     1      -5.932  16.670  66.916  1.00  0.00    -0.117 C  
BRANCH  22  23
HETATM   23  N   UNL     1      -7.119  17.488  67.050  1.00  0.00    -0.168 N  
HETATM   24  C   UNL     1      -8.363  17.057  66.656  1.00  0.00    -0.250 C  
HETATM   25  H   UNL     1      -7.028  18.420  67.453  1.00  0.00     0.000 HD 
HETATM   26  O   UNL     1      -8.565  15.962  66.138  1.00  0.00    -0.330 OA 
BRANCH  24  27
HETATM   27  C   UNL     1      -9.493  18.063  66.914  1.00  0.00    -0.288 C  
HETATM   28  C   UNL     1      -8.928  19.339  67.511  1.00  0.00    -0.344 C  
HETATM   29  C   UNL     1     -10.008  20.340  67.204  1.00  0.00    -0.593 C  
HETATM   30  C   UNL     1     -10.526  19.867  65.862  1.00  0.00    -0.461 C  
HETATM   31  O   UNL     1     -10.225  18.467  65.747  1.00  0.00    -0.571 OA 
ENDBRANCH  24  27
ENDBRANCH  22  23
ENDBRANCH  21  22
ENDBRANCH  20  21
ENDBRANCH  18  20
ENDBRANCH  14  18
ENDBRANCH   2   3
TORSDOF 8
ENDMDL
MODEL      249
REMARK 921   NORMALIZED FREE ENERGY PREDICTED BY IDOCK:   -3.47 KCAL/MOL
REMARK 922        TOTAL FREE ENERGY PREDICTED BY IDOCK:   -6.64 KCAL/MOL
REMARK 923 INTER-LIGAND FREE ENERGY PREDICTED BY IDOCK:   -4.61 KCAL/MOL
REMARK 924 INTRA-LIGAND FREE ENERGY PREDICTED BY IDOCK:   -2.02 KCAL/MOL
REMARK 927      BINDING AFFINITY PREDICTED BY RF-SCORE:    0.00 PKD
ROOT
HETATM    1  C   UNL     1     -12.056   8.085  72.129  1.00  0.00    -0.343 C  
HETATM    2  O   UNL     1     -12.142   6.743  71.649  1.00  0.00    -0.326 OA 
ENDROOT
BRANCH   2   3
HETATM    3  C   UNL     1     -10.940   6.120  71.432  1.00  0.00    -0.277 A  
HETATM    4  C   UNL     1     -10.098   6.514  70.377  1.00  0.00    -0.213 A  
HETATM    5  C   UNL     1      -8.934   5.834  70.054  1.00  0.00    -0.139 A  
HETATM    6  C   UNL     1      -8.558   4.759  70.846  1.00  0.00    -0.126 A  
HETATM    7  C   UNL     1      -9.330   4.422  71.984  1.00  0.00    -0.180 A  
HETATM    8  C   UNL     1      -7.415   4.091  70.410  1.00  0.00    -0.045 A  
HETATM    9  N   UNL     1      -6.868   3.023  71.130  1.00  0.00    -0.031 NA 
HETATM   10  N   UNL     1      -6.750   4.426  69.297  1.00  0.00    -0.044 NA 
HETATM   11  C   UNL     1     -10.527   5.086  72.279  1.00  0.00    -0.214 A  
HETATM   12  N   UNL     1      -8.239   6.221  68.982  1.00  0.00    -0.113 NA 
HETATM   13  H2  UNL     1      -7.603   2.329  71.267  1.00  0.00     0.000 HD 
HETATM   14  C   UNL     1      -7.180   5.491  68.608  1.00  0.00    -0.074 A  
HETATM   15  H1  UNL     1      -6.032   2.535  70.810  1.00  0.00     0.000 HD 
BRANCH  11  16
HETATM   16  O   UNL     1     -11.137   4.577  73.391  1.00  0.00    -0.273 OA 
HETATM   17  C   UNL     1     -11.020   3.193  73.680  1.00  0.00    -0.233 C  
ENDBRANCH  11  16
BRANCH  14  18
HETATM   18  N   UNL     1      -6.481   5.869  67.487  1.00  0.00    -0.045 NA 
HETATM   19  C   UNL     1      -5.656   7.056  67.532  1.00  0.00    -0.024 C  
BRANCH  18  20
HETATM   20  C   UNL     1      -6.430   4.996  66.326  1.00  0.00    -0.044 C  
BRANCH  20  21
HETATM   21  C   UNL     1      -7.832   4.553  65.887  1.00  0.00    -0.095 C  
BRANCH  21  22
HETATM   22  C   UNL     1      -8.522   5.591  65.002  1.00  0.00    -0.147 C  
BRANCH  22  23
HETATM   23  N   UNL     1      -9.038   6.706  65.769  1.00  0.00    -0.360 N  
HETATM   24  C   UNL     1      -8.589   7.994  65.595  1.00  0.00    -0.145 C  
HETATM   25  H   UNL     1      -9.762   6.529  66.465  1.00  0.00     0.000 HD 
HETATM   26  O   UNL     1      -7.704   8.298  64.802  1.00  0.00    -0.100 OA 
BRANCH  24  27
HETATM   27  C   UNL     1      -9.288   9.032  66.484  1.00  0.00    -0.191 C  
HETATM   28  C   UNL     1     -10.465   8.397  67.201  1.00  0.00    -0.380 C  
HETATM   29  C   UNL     1     -10.675   9.333  68.360  1.00  0.00    -0.192 C  
HETATM   30  C   UNL     1      -9.263   9.767  68.696  1.00  0.00    -0.137 C  
HETATM   31  O   UNL     1      -8.464   9.604  67.513  1.00  0.00    -0.124 OA 
ENDBRANCH  24  27
ENDBRANCH  22  23
ENDBRANCH  21  22
ENDBRANCH  20  21
ENDBRANCH  18  20
ENDBRANCH  14  18
ENDBRANCH   2   3
TORSDOF 8
ENDMDL
MODEL      250
REMARK 921   NORMALIZED FREE ENERGY PREDICTED BY IDOCK:   -3.46 KCAL/MOL
REMARK 922        TOTAL FREE ENERGY PREDICTED BY IDOCK:   -6.61 KCAL/MOL
REMARK 923 INTER-LIGAND FREE ENERGY PREDICTED BY IDOCK:   -5.01 KCAL/MOL
REMARK 924 INTRA-LIGAND FREE ENERGY PREDICTED BY IDOCK:   -1.61 KCAL/MOL
REMARK 927      BINDING AFFINITY PREDICTED BY RF-SCORE:    0.00 PKD
ROOT
HETATM    1  C   UNL     1      -8.617   9.889  64.468  1.00  0.00    -0.186 C  
HETATM    2  O   UNL     1      -8.388   8.480  64.446  1.00  0.00    -0.161 OA 
ENDROOT
BRANCH   2   3
HETATM    3  C   UNL     1      -8.541   7.843  65.650  1.00  0.00    -0.138 A  
HETATM    4  C   UNL     1      -9.579   8.194  66.532  1.00  0.00    -0.303 A  
HETATM    5  C   UNL     1      -9.695   7.657  67.804  1.00  0.00    -0.148 A  
HETATM    6  C   UNL     1      -8.783   6.687  68.195  1.00  0.00    -0.117 A  
HETATM    7  C   UNL     1      -7.804   6.235  67.278  1.00  0.00    -0.108 A  
HETATM    8  C   UNL     1      -8.929   6.252  69.511  1.00  0.00    -0.134 A  
HETATM    9  N   UNL     1      -8.130   5.235  70.043  1.00  0.00    -0.083 NA 
HETATM   10  N   UNL     1      -9.847   6.751  70.350  1.00  0.00    -0.175 NA 
HETATM   11  C   UNL     1      -7.666   6.813  66.011  1.00  0.00    -0.093 A  
HETATM   12  N   UNL     1     -10.658   8.111  68.609  1.00  0.00    -0.159 NA 
HETATM   13  H2  UNL     1      -7.154   5.502  69.909  1.00  0.00     0.000 HD 
HETATM   14  C   UNL     1     -10.695   7.672  69.874  1.00  0.00    -0.249 A  
HETATM   15  H1  UNL     1      -8.238   4.917  71.006  1.00  0.00     0.000 HD 
BRANCH  11  16
HETATM   16  O   UNL     1      -6.634   6.261  65.303  1.00  0.00    -0.041 OA 
HETATM   17  C   UNL     1      -5.297   6.541  65.686  1.00  0.00    -0.018 C  
ENDBRANCH  11  16
BRANCH  14  18
HETATM   18  N   UNL     1     -11.666   8.162  70.714  1.00  0.00    -0.247 NA 
HETATM   19  C   UNL     1     -12.759   7.302  71.112  1.00  0.00    -0.306 C  
BRANCH  18  20
HETATM   20  C   UNL     1     -11.508   9.465  71.337  1.00  0.00    -0.379 C  
BRANCH  20  21
HETATM   21  C   UNL     1     -12.635  10.426  70.933  1.00  0.00    -0.478 C  
BRANCH  21  22
HETATM   22  C   UNL     1     -12.329  11.173  69.635  1.00  0.00    -0.218 C  
BRANCH  22  23
HETATM   23  N   UNL     1     -10.942  11.581  69.555  1.00  0.00    -0.424 N  
HETATM   24  C   UNL     1     -10.274  11.703  68.359  1.00  0.00    -0.207 C  
HETATM   25  H   UNL     1     -10.440  11.785  70.419  1.00  0.00     0.000 HD 
HETATM   26  O   UNL     1     -10.787  11.454  67.272  1.00  0.00    -0.232 OA 
BRANCH  24  27
HETATM   27  C   UNL     1      -8.821  12.179  68.492  1.00  0.00    -0.079 C  
HETATM   28  C   UNL     1      -7.870  11.018  68.267  1.00  0.00    -0.121 C  
HETATM   29  C   UNL     1      -6.588  11.720  67.909  1.00  0.00    -0.068 C  
HETATM   30  C   UNL     1      -7.078  12.930  67.140  1.00  0.00     0.040 C  
HETATM   31  O   UNL     1      -8.427  13.196  67.557  1.00  0.00    -0.173 OA 
ENDBRANCH  24  27
ENDBRANCH  22  23
ENDBRANCH  21  22
ENDBRANCH  20  21
ENDBRANCH  18  20
ENDBRANCH  14  18
ENDBRANCH   2   3
TORSDOF 8
ENDMDL
MODEL      251
REMARK 921   NORMALIZED FREE ENERGY PREDICTED BY IDOCK:   -3.46 KCAL/MOL
REMARK 922        TOTAL FREE ENERGY PREDICTED BY IDOCK:   -6.61 KCAL/MOL
REMARK 923 INTER-LIGAND FREE ENERGY PREDICTED BY IDOCK:   -5.81 KCAL/MOL
REMARK 924 INTRA-LIGAND FREE ENERGY PREDICTED BY IDOCK:   -0.80 KCAL/MOL
REMARK 927      BINDING AFFINITY PREDICTED BY RF-SCORE:    0.00 PKD
ROOT
HETATM    1  C   UNL     1     -10.528  17.519  65.915  1.00  0.00    -0.249 C  
HETATM    2  O   UNL     1      -9.133  17.760  66.093  1.00  0.00    -0.457 OA 
ENDROOT
BRANCH   2   3
HETATM    3  C   UNL     1      -8.438  16.752  66.710  1.00  0.00    -0.234 A  
HETATM    4  C   UNL     1      -8.805  15.406  66.539  1.00  0.00    -0.347 A  
HETATM    5  C   UNL     1      -8.203  14.371  67.237  1.00  0.00    -0.203 A  
HETATM    6  C   UNL     1      -7.155  14.676  68.094  1.00  0.00    -0.127 A  
HETATM    7  C   UNL     1      -6.693  16.011  68.188  1.00  0.00    -0.132 A  
HETATM    8  C   UNL     1      -6.655  13.588  68.807  1.00  0.00    -0.102 A  
HETATM    9  N   UNL     1      -5.558  13.713  69.666  1.00  0.00    -0.091 NA 
HETATM   10  N   UNL     1      -7.163  12.353  68.711  1.00  0.00    -0.107 NA 
HETATM   11  C   UNL     1      -7.333  17.057  67.513  1.00  0.00    -0.154 A  
HETATM   12  N   UNL     1      -8.673  13.131  67.081  1.00  0.00    -0.213 NA 
HETATM   13  H2  UNL     1      -5.767  14.456  70.334  1.00  0.00     0.000 HD 
HETATM   14  C   UNL     1      -8.164  12.154  67.843  1.00  0.00    -0.155 A  
HETATM   15  H1  UNL     1      -5.192  12.917  70.188  1.00  0.00     0.000 HD 
BRANCH  11  16
HETATM   16  O   UNL     1      -6.757  18.268  67.776  1.00  0.00    -0.200 OA 
HETATM   17  C   UNL     1      -7.274  19.073  68.824  1.00  0.00    -0.323 C  
ENDBRANCH  11  16
BRANCH  14  18
HETATM   18  N   UNL     1      -8.666  10.882  67.707  1.00  0.00    -0.127 NA 
HETATM   19  C   UNL     1      -9.021  10.396  66.391  1.00  0.00    -0.149 C  
BRANCH  18  20
HETATM   20  C   UNL     1      -8.678   9.972  68.840  1.00  0.00    -0.146 C  
BRANCH  20  21
HETATM   21  C   UNL     1      -9.806  10.310  69.826  1.00  0.00    -0.201 C  
BRANCH  21  22
HETATM   22  C   UNL     1     -11.083   9.517  69.545  1.00  0.00    -0.142 C  
BRANCH  22  23
HETATM   23  N   UNL     1     -10.804   8.143  69.185  1.00  0.00    -0.412 N  
HETATM   24  C   UNL     1     -11.082   7.088  70.022  1.00  0.00    -0.278 C  
HETATM   25  H   UNL     1     -10.385   7.950  68.276  1.00  0.00     0.000 HD 
HETATM   26  O   UNL     1     -11.560   7.225  71.144  1.00  0.00    -0.272 OA 
BRANCH  24  27
HETATM   27  C   UNL     1     -10.740   5.711  69.439  1.00  0.00    -0.295 C  
HETATM   28  C   UNL     1     -10.185   5.862  68.034  1.00  0.00    -0.224 C  
HETATM   29  C   UNL     1      -9.441   4.568  67.843  1.00  0.00    -0.200 C  
HETATM   30  C   UNL     1      -8.908   4.285  69.232  1.00  0.00    -0.093 C  
HETATM   31  O   UNL     1      -9.753   4.968  70.172  1.00  0.00    -0.172 OA 
ENDBRANCH  24  27
ENDBRANCH  22  23
ENDBRANCH  21  22
ENDBRANCH  20  21
ENDBRANCH  18  20
ENDBRANCH  14  18
ENDBRANCH   2   3
TORSDOF 8
ENDMDL
MODEL      252
REMARK 921   NORMALIZED FREE ENERGY PREDICTED BY IDOCK:   -3.45 KCAL/MOL
REMARK 922        TOTAL FREE ENERGY PREDICTED BY IDOCK:   -6.60 KCAL/MOL
REMARK 923 INTER-LIGAND FREE ENERGY PREDICTED BY IDOCK:   -6.01 KCAL/MOL
REMARK 924 INTRA-LIGAND FREE ENERGY PREDICTED BY IDOCK:   -0.59 KCAL/MOL
REMARK 927      BINDING AFFINITY PREDICTED BY RF-SCORE:    0.00 PKD
ROOT
HETATM    1  C   UNL     1      -8.215   1.573  68.852  1.00  0.00    -0.048 C  
HETATM    2  O   UNL     1      -9.469   2.225  69.048  1.00  0.00    -0.144 OA 
ENDROOT
BRANCH   2   3
HETATM    3  C   UNL     1      -9.392   3.513  69.514  1.00  0.00    -0.173 A  
HETATM    4  C   UNL     1      -9.535   4.610  68.646  1.00  0.00    -0.213 A  
HETATM    5  C   UNL     1      -9.348   5.920  69.057  1.00  0.00    -0.123 A  
HETATM    6  C   UNL     1      -9.067   6.156  70.395  1.00  0.00    -0.158 A  
HETATM    7  C   UNL     1      -9.037   5.074  71.307  1.00  0.00    -0.176 A  
HETATM    8  C   UNL     1      -8.824   7.493  70.707  1.00  0.00    -0.148 A  
HETATM    9  N   UNL     1      -8.587   7.910  72.022  1.00  0.00    -0.122 NA 
HETATM   10  N   UNL     1      -8.821   8.470  69.792  1.00  0.00    -0.135 NA 
HETATM   11  C   UNL     1      -9.185   3.751  70.877  1.00  0.00    -0.125 A  
HETATM   12  N   UNL     1      -9.416   6.895  68.148  1.00  0.00    -0.123 NA 
HETATM   13  H2  UNL     1      -7.812   7.356  72.390  1.00  0.00     0.000 HD 
HETATM   14  C   UNL     1      -9.121   8.145  68.528  1.00  0.00    -0.136 A  
HETATM   15  H1  UNL     1      -8.409   8.887  72.250  1.00  0.00     0.000 HD 
BRANCH  11  16
HETATM   16  O   UNL     1      -9.079   2.860  71.908  1.00  0.00    -0.082 OA 
HETATM   17  C   UNL     1     -10.205   2.080  72.277  1.00  0.00    -0.156 C  
ENDBRANCH  11  16
BRANCH  14  18
HETATM   18  N   UNL     1      -9.160   9.147  67.588  1.00  0.00    -0.123 NA 
HETATM   19  C   UNL     1      -7.950   9.499  66.877  1.00  0.00    -0.109 C  
BRANCH  18  20
HETATM   20  C   UNL     1     -10.430   9.726  67.184  1.00  0.00    -0.250 C  
BRANCH  20  21
HETATM   21  C   UNL     1     -10.381  11.260  67.192  1.00  0.00    -0.244 C  
BRANCH  21  22
HETATM   22  C   UNL     1      -9.879  11.822  68.522  1.00  0.00    -0.189 C  
BRANCH  22  23
HETATM   23  N   UNL     1     -10.749  12.857  69.040  1.00  0.00    -0.412 N  
HETATM   24  C   UNL     1     -11.795  12.588  69.891  1.00  0.00    -0.303 C  
HETATM   25  H   UNL     1     -10.580  13.824  68.762  1.00  0.00     0.000 HD 
HETATM   26  O   UNL     1     -12.091  11.455  70.258  1.00  0.00    -0.331 OA 
BRANCH  24  27
HETATM   27  C   UNL     1     -12.574  13.828  70.348  1.00  0.00    -0.256 C  
HETATM   28  C   UNL     1     -13.181  13.587  71.718  1.00  0.00    -0.490 C  
HETATM   29  C   UNL     1     -13.417  14.989  72.213  1.00  0.00    -0.521 C  
HETATM   30  C   UNL     1     -12.246  15.749  71.627  1.00  0.00    -0.456 C  
HETATM   31  O   UNL     1     -11.791  15.026  70.471  1.00  0.00    -0.259 OA 
ENDBRANCH  24  27
ENDBRANCH  22  23
ENDBRANCH  21  22
ENDBRANCH  20  21
ENDBRANCH  18  20
ENDBRANCH  14  18
ENDBRANCH   2   3
TORSDOF 8
ENDMDL
MODEL      253
REMARK 921   NORMALIZED FREE ENERGY PREDICTED BY IDOCK:   -3.44 KCAL/MOL
REMARK 922        TOTAL FREE ENERGY PREDICTED BY IDOCK:   -6.58 KCAL/MOL
REMARK 923 INTER-LIGAND FREE ENERGY PREDICTED BY IDOCK:   -5.71 KCAL/MOL
REMARK 924 INTRA-LIGAND FREE ENERGY PREDICTED BY IDOCK:   -0.88 KCAL/MOL
REMARK 927      BINDING AFFINITY PREDICTED BY RF-SCORE:    0.00 PKD
ROOT
HETATM    1  C   UNL     1     -12.198  12.293  66.234  1.00  0.00     0.141 C  
HETATM    2  O   UNL     1     -11.824  11.752  67.501  1.00  0.00    -0.577 OA 
ENDROOT
BRANCH   2   3
HETATM    3  C   UNL     1     -10.529  11.992  67.882  1.00  0.00    -0.202 A  
HETATM    4  C   UNL     1     -10.114  13.276  68.277  1.00  0.00    -0.250 A  
HETATM    5  C   UNL     1      -8.792  13.584  68.555  1.00  0.00    -0.086 A  
HETATM    6  C   UNL     1      -7.853  12.564  68.498  1.00  0.00    -0.108 A  
HETATM    7  C   UNL     1      -8.271  11.240  68.219  1.00  0.00    -0.143 A  
HETATM    8  C   UNL     1      -6.539  12.973  68.722  1.00  0.00    -0.096 A  
HETATM    9  N   UNL     1      -5.480  12.060  68.761  1.00  0.00    -0.050 NA 
HETATM   10  N   UNL     1      -6.197  14.250  68.937  1.00  0.00    -0.086 NA 
HETATM   11  C   UNL     1      -9.601  10.945  67.898  1.00  0.00    -0.166 A  
HETATM   12  N   UNL     1      -8.470  14.848  68.837  1.00  0.00    -0.171 NA 
HETATM   13  H2  UNL     1      -5.497  11.525  67.892  1.00  0.00     0.000 HD 
HETATM   14  C   UNL     1      -7.177  15.161  68.992  1.00  0.00    -0.149 A  
HETATM   15  H1  UNL     1      -4.520  12.360  68.925  1.00  0.00     0.000 HD 
BRANCH  11  16
HETATM   16  O   UNL     1      -9.781   9.620  67.618  1.00  0.00    -0.143 OA 
HETATM   17  C   UNL     1      -9.305   8.643  68.531  1.00  0.00    -0.138 C  
ENDBRANCH  11  16
BRANCH  14  18
HETATM   18  N   UNL     1      -6.841  16.468  69.250  1.00  0.00    -0.218 NA 
HETATM   19  C   UNL     1      -5.448  16.821  69.417  1.00  0.00    -0.147 C  
BRANCH  18  20
HETATM   20  C   UNL     1      -7.849  17.512  69.184  1.00  0.00    -0.013 C  
BRANCH  20  21
HETATM   21  C   UNL     1      -7.300  18.788  68.532  1.00  0.00    -0.324 C  
BRANCH  21  22
HETATM   22  C   UNL     1      -8.260  19.375  67.497  1.00  0.00    -0.286 C  
BRANCH  22  23
HETATM   23  N   UNL     1      -8.678  18.390  66.522  1.00  0.00    -0.283 N  
HETATM   24  C   UNL     1      -9.999  18.065  66.318  1.00  0.00    -0.337 C  
HETATM   25  H   UNL     1      -7.966  17.919  65.964  1.00  0.00     0.000 HD 
HETATM   26  O   UNL     1     -10.921  18.559  66.959  1.00  0.00    -0.293 OA 
BRANCH  24  27
HETATM   27  C   UNL     1     -10.231  17.021  65.217  1.00  0.00     0.168 C  
HETATM   28  C   UNL     1     -10.233  15.626  65.813  1.00  0.00    -0.391 C  
HETATM   29  C   UNL     1     -10.971  14.834  64.768  1.00  0.00    -0.393 C  
HETATM   30  C   UNL     1     -11.987  15.832  64.252  1.00  0.00    -0.058 C  
HETATM   31  O   UNL     1     -11.475  17.149  64.511  1.00  0.00    -0.907 OA 
ENDBRANCH  24  27
ENDBRANCH  22  23
ENDBRANCH  21  22
ENDBRANCH  20  21
ENDBRANCH  18  20
ENDBRANCH  14  18
ENDBRANCH   2   3
TORSDOF 8
ENDMDL
MODEL      254
REMARK 921   NORMALIZED FREE ENERGY PREDICTED BY IDOCK:   -3.44 KCAL/MOL
REMARK 922        TOTAL FREE ENERGY PREDICTED BY IDOCK:   -6.58 KCAL/MOL
REMARK 923 INTER-LIGAND FREE ENERGY PREDICTED BY IDOCK:   -5.64 KCAL/MOL
REMARK 924 INTRA-LIGAND FREE ENERGY PREDICTED BY IDOCK:   -0.94 KCAL/MOL
REMARK 927      BINDING AFFINITY PREDICTED BY RF-SCORE:    0.00 PKD
ROOT
HETATM    1  C   UNL     1     -12.807  12.180  63.640  1.00  0.00    -0.341 C  
HETATM    2  O   UNL     1     -12.411  12.587  64.950  1.00  0.00    -0.466 OA 
ENDROOT
BRANCH   2   3
HETATM    3  C   UNL     1     -11.122  12.272  65.295  1.00  0.00    -0.316 A  
HETATM    4  C   UNL     1     -10.453  11.187  64.700  1.00  0.00    -0.400 A  
HETATM    5  C   UNL     1      -9.197  10.767  65.105  1.00  0.00    -0.209 A  
HETATM    6  C   UNL     1      -8.551  11.488  66.100  1.00  0.00    -0.094 A  
HETATM    7  C   UNL     1      -9.157  12.653  66.627  1.00  0.00    -0.193 A  
HETATM    8  C   UNL     1      -7.325  10.957  66.495  1.00  0.00    -0.142 A  
HETATM    9  N   UNL     1      -6.518  11.595  67.443  1.00  0.00    -0.090 NA 
HETATM   10  N   UNL     1      -6.821   9.822  65.992  1.00  0.00    -0.091 NA 
HETATM   11  C   UNL     1     -10.444  13.047  66.243  1.00  0.00    -0.276 A  
HETATM   12  N   UNL     1      -8.672   9.674  64.547  1.00  0.00    -0.188 NA 
HETATM   13  H2  UNL     1      -7.079  11.745  68.282  1.00  0.00     0.000 HD 
HETATM   14  C   UNL     1      -7.510   9.207  65.022  1.00  0.00    -0.105 A  
HETATM   15  H1  UNL     1      -5.621  11.206  67.732  1.00  0.00     0.000 HD 
BRANCH  11  16
HETATM   16  O   UNL     1     -10.858  14.169  66.904  1.00  0.00    -0.290 OA 
HETATM   17  C   UNL     1     -11.861  14.063  67.901  1.00  0.00    -0.376 C  
ENDBRANCH  11  16
BRANCH  14  18
HETATM   18  N   UNL     1      -6.983   8.064  64.471  1.00  0.00    -0.070 NA 
HETATM   19  C   UNL     1      -5.821   8.160  63.616  1.00  0.00    -0.066 C  
BRANCH  18  20
HETATM   20  C   UNL     1      -7.475   6.758  64.879  1.00  0.00    -0.094 C  
BRANCH  20  21
HETATM   21  C   UNL     1      -6.609   6.150  65.990  1.00  0.00    -0.048 C  
BRANCH  21  22
HETATM   22  C   UNL     1      -7.352   5.078  66.789  1.00  0.00    -0.086 C  
BRANCH  22  23
HETATM   23  N   UNL     1      -8.473   5.625  67.523  1.00  0.00    -0.104 N  
HETATM   24  C   UNL     1      -9.742   5.105  67.431  1.00  0.00    -0.152 C  
HETATM   25  H   UNL     1      -8.315   6.427  68.133  1.00  0.00     0.000 HD 
HETATM   26  O   UNL     1     -10.032   4.159  66.705  1.00  0.00    -0.221 OA 
BRANCH  24  27
HETATM   27  C   UNL     1     -10.780   5.809  68.315  1.00  0.00    -0.208 C  
HETATM   28  C   UNL     1     -10.521   5.493  69.777  1.00  0.00    -0.389 C  
HETATM   29  C   UNL     1     -11.229   6.621  70.477  1.00  0.00    -0.388 C  
HETATM   30  C   UNL     1     -11.018   7.784  69.529  1.00  0.00    -0.084 C  
HETATM   31  O   UNL     1     -10.788   7.242  68.219  1.00  0.00    -0.157 OA 
ENDBRANCH  24  27
ENDBRANCH  22  23
ENDBRANCH  21  22
ENDBRANCH  20  21
ENDBRANCH  18  20
ENDBRANCH  14  18
ENDBRANCH   2   3
TORSDOF 8
ENDMDL
MODEL      255
REMARK 921   NORMALIZED FREE ENERGY PREDICTED BY IDOCK:   -3.38 KCAL/MOL
REMARK 922        TOTAL FREE ENERGY PREDICTED BY IDOCK:   -6.49 KCAL/MOL
REMARK 923 INTER-LIGAND FREE ENERGY PREDICTED BY IDOCK:   -6.11 KCAL/MOL
REMARK 924 INTRA-LIGAND FREE ENERGY PREDICTED BY IDOCK:   -0.38 KCAL/MOL
REMARK 927      BINDING AFFINITY PREDICTED BY RF-SCORE:    0.00 PKD
ROOT
HETATM    1  C   UNL     1      -9.946   7.656  73.458  1.00  0.00    -0.295 C  
HETATM    2  O   UNL     1     -10.915   7.967  72.457  1.00  0.00    -0.309 OA 
ENDROOT
BRANCH   2   3
HETATM    3  C   UNL     1     -10.408   8.197  71.203  1.00  0.00    -0.198 A  
HETATM    4  C   UNL     1     -10.470   9.474  70.617  1.00  0.00    -0.374 A  
HETATM    5  C   UNL     1     -10.077   9.719  69.311  1.00  0.00    -0.198 A  
HETATM    6  C   UNL     1      -9.544   8.669  68.576  1.00  0.00    -0.162 A  
HETATM    7  C   UNL     1      -9.363   7.405  69.188  1.00  0.00    -0.146 A  
HETATM    8  C   UNL     1      -9.241   8.984  67.253  1.00  0.00    -0.134 A  
HETATM    9  N   UNL     1      -8.639   8.057  66.395  1.00  0.00    -0.137 NA 
HETATM   10  N   UNL     1      -9.477  10.187  66.714  1.00  0.00    -0.163 NA 
HETATM   11  C   UNL     1      -9.801   7.155  70.494  1.00  0.00    -0.179 A  
HETATM   12  N   UNL     1     -10.253  10.941  68.804  1.00  0.00    -0.188 NA 
HETATM   13  H2  UNL     1      -9.216   7.215  66.392  1.00  0.00     0.000 HD 
HETATM   14  C   UNL     1      -9.978  11.142  67.509  1.00  0.00    -0.181 A  
HETATM   15  H1  UNL     1      -8.418   8.289  65.427  1.00  0.00     0.000 HD 
BRANCH  11  16
HETATM   16  O   UNL     1      -9.572   5.863  70.875  1.00  0.00    -0.166 OA 
HETATM   17  C   UNL     1      -8.321   5.260  70.582  1.00  0.00    -0.113 C  
ENDBRANCH  11  16
BRANCH  14  18
HETATM   18  N   UNL     1     -10.187  12.391  66.976  1.00  0.00    -0.219 NA 
HETATM   19  C   UNL     1     -10.831  12.514  65.687  1.00  0.00    -0.277 C  
BRANCH  18  20
HETATM   20  C   UNL     1      -9.929  13.581  67.770  1.00  0.00    -0.232 C  
BRANCH  20  21
HETATM   21  C   UNL     1      -9.904  14.847  66.903  1.00  0.00    -0.246 C  
BRANCH  21  22
HETATM   22  C   UNL     1      -8.494  15.416  66.741  1.00  0.00    -0.272 C  
BRANCH  22  23
HETATM   23  N   UNL     1      -8.464  16.854  66.909  1.00  0.00    -0.199 N  
HETATM   24  C   UNL     1      -7.325  17.598  66.715  1.00  0.00    -0.210 C  
HETATM   25  H   UNL     1      -9.322  17.333  67.182  1.00  0.00     0.000 HD 
HETATM   26  O   UNL     1      -6.242  17.107  66.412  1.00  0.00    -0.205 OA 
BRANCH  24  27
HETATM   27  C   UNL     1      -7.514  19.108  66.913  1.00  0.00    -0.218 C  
HETATM   28  C   UNL     1      -6.936  19.535  68.250  1.00  0.00    -0.328 C  
HETATM   29  C   UNL     1      -6.723  21.011  68.049  1.00  0.00    -0.226 C  
HETATM   30  C   UNL     1      -6.339  21.094  66.586  1.00  0.00    -0.298 C  
HETATM   31  O   UNL     1      -6.876  19.935  65.928  1.00  0.00    -0.237 OA 
ENDBRANCH  24  27
ENDBRANCH  22  23
ENDBRANCH  21  22
ENDBRANCH  20  21
ENDBRANCH  18  20
ENDBRANCH  14  18
ENDBRANCH   2   3
TORSDOF 8
ENDMDL
MODEL      256
REMARK 921   NORMALIZED FREE ENERGY PREDICTED BY IDOCK:   -3.36 KCAL/MOL
REMARK 922        TOTAL FREE ENERGY PREDICTED BY IDOCK:   -6.47 KCAL/MOL
REMARK 923 INTER-LIGAND FREE ENERGY PREDICTED BY IDOCK:   -5.64 KCAL/MOL
REMARK 924 INTRA-LIGAND FREE ENERGY PREDICTED BY IDOCK:   -0.83 KCAL/MOL
REMARK 927      BINDING AFFINITY PREDICTED BY RF-SCORE:    0.00 PKD
ROOT
HETATM    1  C   UNL     1     -13.044  11.329  71.975  1.00  0.00    -0.326 C  
HETATM    2  O   UNL     1     -13.394  11.293  70.592  1.00  0.00     0.153 OA 
ENDROOT
BRANCH   2   3
HETATM    3  C   UNL     1     -12.351  11.470  69.719  1.00  0.00    -0.155 A  
HETATM    4  C   UNL     1     -11.708  10.372  69.121  1.00  0.00    -0.191 A  
HETATM    5  C   UNL     1     -10.579  10.504  68.329  1.00  0.00    -0.206 A  
HETATM    6  C   UNL     1     -10.103  11.782  68.070  1.00  0.00    -0.198 A  
HETATM    7  C   UNL     1     -10.806  12.906  68.565  1.00  0.00    -0.283 A  
HETATM    8  C   UNL     1      -8.926  11.820  67.324  1.00  0.00    -0.172 A  
HETATM    9  N   UNL     1      -8.348  13.029  66.924  1.00  0.00    -0.389 NA 
HETATM   10  N   UNL     1      -8.278  10.719  66.921  1.00  0.00    -0.126 NA 
HETATM   11  C   UNL     1     -11.921  12.763  69.399  1.00  0.00    -0.263 A  
HETATM   12  N   UNL     1      -9.980   9.402  67.873  1.00  0.00    -0.173 NA 
HETATM   13  H2  UNL     1      -8.209  13.600  67.758  1.00  0.00     0.000 HD 
HETATM   14  C   UNL     1      -8.826   9.531  67.205  1.00  0.00    -0.131 A  
HETATM   15  H1  UNL     1      -7.487  13.057  66.379  1.00  0.00     0.000 HD 
BRANCH  11  16
HETATM   16  O   UNL     1     -12.421  13.970  69.801  1.00  0.00    -0.325 OA 
HETATM   17  C   UNL     1     -11.957  14.551  71.009  1.00  0.00    -0.332 C  
ENDBRANCH  11  16
BRANCH  14  18
HETATM   18  N   UNL     1      -8.191   8.396  66.761  1.00  0.00    -0.101 NA 
HETATM   19  C   UNL     1      -6.756   8.413  66.578  1.00  0.00    -0.060 C  
BRANCH  18  20
HETATM   20  C   UNL     1      -8.920   7.144  66.646  1.00  0.00    -0.146 C  
BRANCH  20  21
HETATM   21  C   UNL     1      -8.753   6.274  67.899  1.00  0.00    -0.114 C  
BRANCH  21  22
HETATM   22  C   UNL     1     -10.082   6.004  68.604  1.00  0.00    -0.168 C  
BRANCH  22  23
HETATM   23  N   UNL     1      -9.968   6.113  70.043  1.00  0.00    -0.169 N  
HETATM   24  C   UNL     1     -11.046   6.381  70.853  1.00  0.00    -0.298 C  
HETATM   25  H   UNL     1      -9.052   5.985  70.473  1.00  0.00     0.000 HD 
HETATM   26  O   UNL     1     -12.179   6.576  70.424  1.00  0.00    -0.306 OA 
BRANCH  24  27
HETATM   27  C   UNL     1     -10.717   6.423  72.351  1.00  0.00    -0.226 C  
HETATM   28  C   UNL     1     -11.398   5.271  73.067  1.00  0.00    -0.376 C  
HETATM   29  C   UNL     1     -10.582   5.150  74.325  1.00  0.00    -0.290 C  
HETATM   30  C   UNL     1      -9.188   5.504  73.850  1.00  0.00    -0.126 C  
HETATM   31  O   UNL     1      -9.321   6.312  72.670  1.00  0.00    -0.146 OA 
ENDBRANCH  24  27
ENDBRANCH  22  23
ENDBRANCH  21  22
ENDBRANCH  20  21
ENDBRANCH  18  20
ENDBRANCH  14  18
ENDBRANCH   2   3
TORSDOF 8
ENDMDL
MODEL      257
REMARK 921   NORMALIZED FREE ENERGY PREDICTED BY IDOCK:   -3.32 KCAL/MOL
REMARK 922        TOTAL FREE ENERGY PREDICTED BY IDOCK:   -6.42 KCAL/MOL
REMARK 923 INTER-LIGAND FREE ENERGY PREDICTED BY IDOCK:   -4.92 KCAL/MOL
REMARK 924 INTRA-LIGAND FREE ENERGY PREDICTED BY IDOCK:   -1.49 KCAL/MOL
REMARK 927      BINDING AFFINITY PREDICTED BY RF-SCORE:    0.00 PKD
ROOT
HETATM    1  C   UNL     1     -12.414   6.729  71.593  1.00  0.00    -0.351 C  
HETATM    2  O   UNL     1     -11.898   7.422  70.456  1.00  0.00    -0.254 OA 
ENDROOT
BRANCH   2   3
HETATM    3  C   UNL     1     -10.838   6.815  69.833  1.00  0.00    -0.266 A  
HETATM    4  C   UNL     1     -10.997   6.167  68.595  1.00  0.00    -0.415 A  
HETATM    5  C   UNL     1      -9.980   5.444  67.992  1.00  0.00    -0.154 A  
HETATM    6  C   UNL     1      -8.738   5.413  68.610  1.00  0.00    -0.097 A  
HETATM    7  C   UNL     1      -8.526   6.158  69.795  1.00  0.00    -0.128 A  
HETATM    8  C   UNL     1      -7.795   4.608  67.974  1.00  0.00    -0.081 A  
HETATM    9  N   UNL     1      -6.477   4.515  68.434  1.00  0.00    -0.037 NA 
HETATM   10  N   UNL     1      -8.067   3.887  66.878  1.00  0.00    -0.096 NA 
HETATM   11  C   UNL     1      -9.569   6.851  70.421  1.00  0.00    -0.169 A  
HETATM   12  N   UNL     1     -10.242   4.786  66.861  1.00  0.00    -0.209 NA 
HETATM   13  H2  UNL     1      -6.507   4.245  69.417  1.00  0.00     0.000 HD 
HETATM   14  C   UNL     1      -9.290   3.997  66.344  1.00  0.00    -0.177 A  
HETATM   15  H1  UNL     1      -5.788   3.926  67.968  1.00  0.00     0.000 HD 
BRANCH  11  16
HETATM   16  O   UNL     1      -9.161   7.464  71.572  1.00  0.00    -0.140 OA 
HETATM   17  C   UNL     1      -7.894   7.143  72.123  1.00  0.00    -0.091 C  
ENDBRANCH  11  16
BRANCH  14  18
HETATM   18  N   UNL     1      -9.567   3.293  65.197  1.00  0.00    -0.141 NA 
HETATM   19  C   UNL     1      -9.095   1.932  65.069  1.00  0.00    -0.123 C  
BRANCH  18  20
HETATM   20  C   UNL     1     -10.471   3.842  64.200  1.00  0.00    -0.257 C  
BRANCH  20  21
HETATM   21  C   UNL     1      -9.746   4.139  62.881  1.00  0.00    -0.130 C  
BRANCH  21  22
HETATM   22  C   UNL     1      -8.438   4.901  63.092  1.00  0.00    -0.119 C  
BRANCH  22  23
HETATM   23  N   UNL     1      -8.647   6.169  63.759  1.00  0.00    -0.321 N  
HETATM   24  C   UNL     1      -7.722   6.715  64.616  1.00  0.00    -0.112 C  
HETATM   25  H   UNL     1      -9.515   6.676  63.587  1.00  0.00     0.000 HD 
HETATM   26  O   UNL     1      -6.663   6.167  64.904  1.00  0.00    -0.041 OA 
BRANCH  24  27
HETATM   27  C   UNL     1      -8.123   8.080  65.194  1.00  0.00    -0.143 C  
HETATM   28  C   UNL     1      -8.758   8.936  64.114  1.00  0.00    -0.079 C  
HETATM   29  C   UNL     1      -9.535   9.942  64.921  1.00  0.00    -0.355 C  
HETATM   30  C   UNL     1      -9.989   9.128  66.116  1.00  0.00    -0.268 C  
HETATM   31  O   UNL     1      -9.076   8.029  66.267  1.00  0.00    -0.171 OA 
ENDBRANCH  24  27
ENDBRANCH  22  23
ENDBRANCH  21  22
ENDBRANCH  20  21
ENDBRANCH  18  20
ENDBRANCH  14  18
ENDBRANCH   2   3
TORSDOF 8
ENDMDL
MODEL      258
REMARK 921   NORMALIZED FREE ENERGY PREDICTED BY IDOCK:   -3.31 KCAL/MOL
REMARK 922        TOTAL FREE ENERGY PREDICTED BY IDOCK:   -6.39 KCAL/MOL
REMARK 923 INTER-LIGAND FREE ENERGY PREDICTED BY IDOCK:   -5.82 KCAL/MOL
REMARK 924 INTRA-LIGAND FREE ENERGY PREDICTED BY IDOCK:   -0.57 KCAL/MOL
REMARK 927      BINDING AFFINITY PREDICTED BY RF-SCORE:    0.00 PKD
ROOT
HETATM    1  C   UNL     1     -11.259   1.808  63.072  1.00  0.00    -0.263 C  
HETATM    2  O   UNL     1     -10.739   3.135  62.988  1.00  0.00    -0.192 OA 
ENDROOT
BRANCH   2   3
HETATM    3  C   UNL     1     -10.039   3.560  64.087  1.00  0.00    -0.204 A  
HETATM    4  C   UNL     1     -10.628   4.409  65.041  1.00  0.00    -0.144 A  
HETATM    5  C   UNL     1      -9.919   4.953  66.100  1.00  0.00    -0.231 A  
HETATM    6  C   UNL     1      -8.588   4.593  66.255  1.00  0.00    -0.113 A  
HETATM    7  C   UNL     1      -8.010   3.647  65.374  1.00  0.00    -0.093 A  
HETATM    8  C   UNL     1      -7.932   5.238  67.301  1.00  0.00    -0.101 A  
HETATM    9  N   UNL     1      -6.604   4.944  67.631  1.00  0.00    -0.048 NA 
HETATM   10  N   UNL     1      -8.518   6.161  68.075  1.00  0.00    -0.116 NA 
HETATM   11  C   UNL     1      -8.720   3.134  64.282  1.00  0.00    -0.094 A  
HETATM   12  N   UNL     1     -10.533   5.819  66.909  1.00  0.00    -0.255 NA 
HETATM   13  H2  UNL     1      -6.040   5.060  66.789  1.00  0.00     0.000 HD 
HETATM   14  C   UNL     1      -9.813   6.428  67.859  1.00  0.00    -0.123 A  
HETATM   15  H1  UNL     1      -6.125   5.416  68.397  1.00  0.00     0.000 HD 
BRANCH  11  16
HETATM   16  O   UNL     1      -7.965   2.273  63.536  1.00  0.00    -0.070 OA 
HETATM   17  C   UNL     1      -6.881   1.589  64.143  1.00  0.00    -0.030 C  
ENDBRANCH  11  16
BRANCH  14  18
HETATM   18  N   UNL     1     -10.435   7.345  68.673  1.00  0.00    -0.198 NA 
HETATM   19  C   UNL     1     -10.913   6.929  69.973  1.00  0.00    -0.279 C  
BRANCH  18  20
HETATM   20  C   UNL     1     -10.457   8.752  68.311  1.00  0.00    -0.187 C  
BRANCH  20  21
HETATM   21  C   UNL     1     -10.898   9.633  69.488  1.00  0.00    -0.253 C  
BRANCH  21  22
HETATM   22  C   UNL     1     -10.470  11.091  69.319  1.00  0.00    -0.180 C  
BRANCH  22  23
HETATM   23  N   UNL     1     -10.917  11.648  68.060  1.00  0.00    -0.210 N  
HETATM   24  C   UNL     1     -11.744  12.744  67.988  1.00  0.00    -0.356 C  
HETATM   25  H   UNL     1     -10.607  11.210  67.193  1.00  0.00     0.000 HD 
HETATM   26  O   UNL     1     -12.188  13.320  68.976  1.00  0.00    -0.277 OA 
BRANCH  24  27
HETATM   27  C   UNL     1     -12.073  13.195  66.558  1.00  0.00    -0.358 C  
HETATM   28  C   UNL     1     -11.225  14.395  66.181  1.00  0.00    -0.336 C  
HETATM   29  C   UNL     1     -11.271  14.359  64.677  1.00  0.00    -0.366 C  
HETATM   30  C   UNL     1     -11.302  12.874  64.383  1.00  0.00    -0.358 C  
HETATM   31  O   UNL     1     -11.834  12.210  65.540  1.00  0.00    -0.386 OA 
ENDBRANCH  24  27
ENDBRANCH  22  23
ENDBRANCH  21  22
ENDBRANCH  20  21
ENDBRANCH  18  20
ENDBRANCH  14  18
ENDBRANCH   2   3
TORSDOF 8
ENDMDL
MODEL      259
REMARK 921   NORMALIZED FREE ENERGY PREDICTED BY IDOCK:   -3.30 KCAL/MOL
REMARK 922        TOTAL FREE ENERGY PREDICTED BY IDOCK:   -6.38 KCAL/MOL
REMARK 923 INTER-LIGAND FREE ENERGY PREDICTED BY IDOCK:   -5.66 KCAL/MOL
REMARK 924 INTRA-LIGAND FREE ENERGY PREDICTED BY IDOCK:   -0.73 KCAL/MOL
REMARK 927      BINDING AFFINITY PREDICTED BY RF-SCORE:    0.00 PKD
ROOT
HETATM    1  C   UNL     1     -13.466   9.223  72.274  1.00  0.00    -0.482 C  
HETATM    2  O   UNL     1     -12.175   8.614  72.263  1.00  0.00    -0.362 OA 
ENDROOT
BRANCH   2   3
HETATM    3  C   UNL     1     -11.577   8.532  71.032  1.00  0.00    -0.279 A  
HETATM    4  C   UNL     1     -11.307   9.687  70.276  1.00  0.00    -0.311 A  
HETATM    5  C   UNL     1     -10.814   9.637  68.982  1.00  0.00    -0.183 A  
HETATM    6  C   UNL     1     -10.519   8.396  68.437  1.00  0.00    -0.208 A  
HETATM    7  C   UNL     1     -10.671   7.229  69.225  1.00  0.00    -0.212 A  
HETATM    8  C   UNL     1     -10.094   8.432  67.110  1.00  0.00    -0.265 A  
HETATM    9  N   UNL     1      -9.699   7.274  66.432  1.00  0.00    -0.385 NA 
HETATM   10  N   UNL     1     -10.013   9.564  66.398  1.00  0.00    -0.256 NA 
HETATM   11  C   UNL     1     -11.210   7.284  70.516  1.00  0.00    -0.279 A  
HETATM   12  N   UNL     1     -10.670  10.778  68.304  1.00  0.00    -0.196 NA 
HETATM   13  H2  UNL     1     -10.459   6.598  66.498  1.00  0.00     0.000 HD 
HETATM   14  C   UNL     1     -10.302  10.716  67.018  1.00  0.00    -0.231 A  
HETATM   15  H1  UNL     1      -9.388   7.302  65.461  1.00  0.00     0.000 HD 
BRANCH  11  16
HETATM   16  O   UNL     1     -11.313   6.044  71.083  1.00  0.00    -0.292 OA 
HETATM   17  C   UNL     1     -10.283   5.582  71.942  1.00  0.00    -0.199 C  
ENDBRANCH  11  16
BRANCH  14  18
HETATM   18  N   UNL     1     -10.183  11.886  66.308  1.00  0.00    -0.211 NA 
HETATM   19  C   UNL     1     -11.309  12.365  65.536  1.00  0.00    -0.346 C  
BRANCH  18  20
HETATM   20  C   UNL     1      -9.008  12.726  66.468  1.00  0.00    -0.092 C  
BRANCH  20  21
HETATM   21  C   UNL     1      -8.358  12.534  67.845  1.00  0.00    -0.167 C  
BRANCH  21  22
HETATM   22  C   UNL     1      -6.890  12.121  67.747  1.00  0.00    -0.106 C  
BRANCH  22  23
HETATM   23  N   UNL     1      -6.670  11.132  66.712  1.00  0.00    -0.125 N  
HETATM   24  C   UNL     1      -6.605   9.785  66.978  1.00  0.00    -0.071 C  
HETATM   25  H   UNL     1      -6.560  11.447  65.748  1.00  0.00     0.000 HD 
HETATM   26  O   UNL     1      -6.701   9.315  68.108  1.00  0.00    -0.059 OA 
BRANCH  24  27
HETATM   27  C   UNL     1      -6.399   8.904  65.738  1.00  0.00    -0.056 C  
HETATM   28  C   UNL     1      -6.103   7.476  66.156  1.00  0.00    -0.038 C  
HETATM   29  C   UNL     1      -6.454   6.701  64.914  1.00  0.00    -0.042 C  
HETATM   30  C   UNL     1      -7.624   7.484  64.355  1.00  0.00    -0.111 C  
HETATM   31  O   UNL     1      -7.526   8.829  64.851  1.00  0.00    -0.091 OA 
ENDBRANCH  24  27
ENDBRANCH  22  23
ENDBRANCH  21  22
ENDBRANCH  20  21
ENDBRANCH  18  20
ENDBRANCH  14  18
ENDBRANCH   2   3
TORSDOF 8
ENDMDL
MODEL      260
REMARK 921   NORMALIZED FREE ENERGY PREDICTED BY IDOCK:   -3.28 KCAL/MOL
REMARK 922        TOTAL FREE ENERGY PREDICTED BY IDOCK:   -6.35 KCAL/MOL
REMARK 923 INTER-LIGAND FREE ENERGY PREDICTED BY IDOCK:   -5.72 KCAL/MOL
REMARK 924 INTRA-LIGAND FREE ENERGY PREDICTED BY IDOCK:   -0.63 KCAL/MOL
REMARK 927      BINDING AFFINITY PREDICTED BY RF-SCORE:    0.00 PKD
ROOT
HETATM    1  C   UNL     1     -11.077  15.290  70.018  1.00  0.00    -0.287 C  
HETATM    2  O   UNL     1     -11.016  15.260  68.592  1.00  0.00    -0.237 OA 
ENDROOT
BRANCH   2   3
HETATM    3  C   UNL     1      -9.975  14.541  68.065  1.00  0.00    -0.222 A  
HETATM    4  C   UNL     1     -10.198  13.337  67.374  1.00  0.00    -0.229 A  
HETATM    5  C   UNL     1      -9.166  12.525  66.931  1.00  0.00    -0.211 A  
HETATM    6  C   UNL     1      -7.861  12.953  67.127  1.00  0.00    -0.084 A  
HETATM    7  C   UNL     1      -7.618  14.218  67.714  1.00  0.00    -0.175 A  
HETATM    8  C   UNL     1      -6.887  12.045  66.716  1.00  0.00     0.050 A  
HETATM    9  N   UNL     1      -5.522  12.348  66.787  1.00  0.00    -0.442 NA 
HETATM   10  N   UNL     1      -7.176  10.840  66.208  1.00  0.00    -0.136 NA 
HETATM   11  C   UNL     1      -8.664  15.013  68.197  1.00  0.00    -0.165 A  
HETATM   12  N   UNL     1      -9.467  11.355  66.362  1.00  0.00    -0.198 NA 
HETATM   13  H2  UNL     1      -5.312  12.618  67.748  1.00  0.00     0.000 HD 
HETATM   14  C   UNL     1      -8.467  10.525  66.041  1.00  0.00    -0.156 A  
HETATM   15  H1  UNL     1      -4.810  11.683  66.485  1.00  0.00     0.000 HD 
BRANCH  11  16
HETATM   16  O   UNL     1      -8.210  16.171  68.765  1.00  0.00    -0.189 OA 
HETATM   17  C   UNL     1      -6.991  16.161  69.491  1.00  0.00    -0.186 C  
ENDBRANCH  11  16
BRANCH  14  18
HETATM   18  N   UNL     1      -8.774   9.307  65.484  1.00  0.00    -0.164 NA 
HETATM   19  C   UNL     1      -8.781   9.167  64.044  1.00  0.00    -0.137 C  
BRANCH  18  20
HETATM   20  C   UNL     1      -8.917   8.130  66.325  1.00  0.00    -0.177 C  
BRANCH  20  21
HETATM   21  C   UNL     1     -10.391   7.827  66.629  1.00  0.00    -0.262 C  
BRANCH  21  22
HETATM   22  C   UNL     1     -10.564   6.591  67.512  1.00  0.00    -0.280 C  
BRANCH  22  23
HETATM   23  N   UNL     1     -10.357   6.889  68.913  1.00  0.00    -0.181 N  
HETATM   24  C   UNL     1      -9.917   5.947  69.813  1.00  0.00    -0.181 C  
HETATM   25  H   UNL     1     -10.546   7.834  69.246  1.00  0.00     0.000 HD 
HETATM   26  O   UNL     1      -9.690   4.780  69.510  1.00  0.00    -0.165 OA 
BRANCH  24  27
HETATM   27  C   UNL     1      -9.733   6.475  71.242  1.00  0.00    -0.173 C  
HETATM   28  C   UNL     1     -10.730   7.584  71.521  1.00  0.00    -0.242 C  
HETATM   29  C   UNL     1     -10.778   7.599  73.025  1.00  0.00    -0.449 C  
HETATM   30  C   UNL     1     -10.605   6.136  73.376  1.00  0.00    -0.269 C  
HETATM   31  O   UNL     1      -9.929   5.501  72.280  1.00  0.00    -0.169 OA 
ENDBRANCH  24  27
ENDBRANCH  22  23
ENDBRANCH  21  22
ENDBRANCH  20  21
ENDBRANCH  18  20
ENDBRANCH  14  18
ENDBRANCH   2   3
TORSDOF 8
ENDMDL
MODEL      261
REMARK 921   NORMALIZED FREE ENERGY PREDICTED BY IDOCK:   -3.28 KCAL/MOL
REMARK 922        TOTAL FREE ENERGY PREDICTED BY IDOCK:   -6.34 KCAL/MOL
REMARK 923 INTER-LIGAND FREE ENERGY PREDICTED BY IDOCK:   -5.01 KCAL/MOL
REMARK 924 INTRA-LIGAND FREE ENERGY PREDICTED BY IDOCK:   -1.34 KCAL/MOL
REMARK 927      BINDING AFFINITY PREDICTED BY RF-SCORE:    0.00 PKD
ROOT
HETATM    1  C   UNL     1      -8.642   9.090  63.073  1.00  0.00    -0.162 C  
HETATM    2  O   UNL     1      -9.081  10.148  63.925  1.00  0.00    -0.217 OA 
ENDROOT
BRANCH   2   3
HETATM    3  C   UNL     1      -8.840   9.962  65.261  1.00  0.00    -0.181 A  
HETATM    4  C   UNL     1      -9.876   9.618  66.147  1.00  0.00    -0.334 A  
HETATM    5  C   UNL     1      -9.694   9.537  67.518  1.00  0.00    -0.155 A  
HETATM    6  C   UNL     1      -8.420   9.745  68.027  1.00  0.00    -0.118 A  
HETATM    7  C   UNL     1      -7.340   9.974  67.141  1.00  0.00    -0.091 A  
HETATM    8  C   UNL     1      -8.340   9.714  69.418  1.00  0.00    -0.145 A  
HETATM    9  N   UNL     1      -7.119   9.845  70.088  1.00  0.00    -0.130 NA 
HETATM   10  N   UNL     1      -9.407   9.539  70.209  1.00  0.00    -0.246 NA 
HETATM   11  C   UNL     1      -7.539  10.097  65.761  1.00  0.00    -0.134 A  
HETATM   12  N   UNL     1     -10.753   9.292  68.294  1.00  0.00    -0.185 NA 
HETATM   13  H2  UNL     1      -6.678  10.708  69.768  1.00  0.00     0.000 HD 
HETATM   14  C   UNL     1     -10.593   9.328  69.624  1.00  0.00    -0.229 A  
HETATM   15  H1  UNL     1      -7.061   9.822  71.105  1.00  0.00     0.000 HD 
BRANCH  11  16
HETATM   16  O   UNL     1      -6.375  10.361  65.094  1.00  0.00    -0.122 OA 
HETATM   17  C   UNL     1      -5.330   9.403  65.108  1.00  0.00    -0.045 C  
ENDBRANCH  11  16
BRANCH  14  18
HETATM   18  N   UNL     1     -11.686   9.107  70.426  1.00  0.00    -0.159 NA 
HETATM   19  C   UNL     1     -12.415  10.237  70.959  1.00  0.00    -0.384 C  
BRANCH  18  20
HETATM   20  C   UNL     1     -12.213   7.763  70.595  1.00  0.00     0.051 C  
BRANCH  20  21
HETATM   21  C   UNL     1     -11.936   7.220  72.004  1.00  0.00    -0.333 C  
BRANCH  21  22
HETATM   22  C   UNL     1     -11.201   5.880  71.980  1.00  0.00    -0.273 C  
BRANCH  22  23
HETATM   23  N   UNL     1     -10.678   5.569  70.667  1.00  0.00    -0.260 N  
HETATM   24  C   UNL     1      -9.348   5.709  70.348  1.00  0.00    -0.160 C  
HETATM   25  H   UNL     1     -11.320   5.233  69.950  1.00  0.00     0.000 HD 
HETATM   26  O   UNL     1      -8.506   6.131  71.136  1.00  0.00    -0.123 OA 
BRANCH  24  27
HETATM   27  C   UNL     1      -8.994   5.296  68.913  1.00  0.00    -0.103 C  
HETATM   28  C   UNL     1      -9.422   3.861  68.664  1.00  0.00    -0.217 C  
HETATM   29  C   UNL     1      -9.501   3.809  67.162  1.00  0.00    -0.234 C  
HETATM   30  C   UNL     1      -9.987   5.199  66.807  1.00  0.00    -0.206 C  
HETATM   31  O   UNL     1      -9.621   6.077  67.883  1.00  0.00    -0.115 OA 
ENDBRANCH  24  27
ENDBRANCH  22  23
ENDBRANCH  21  22
ENDBRANCH  20  21
ENDBRANCH  18  20
ENDBRANCH  14  18
ENDBRANCH   2   3
TORSDOF 8
ENDMDL
MODEL      262
REMARK 921   NORMALIZED FREE ENERGY PREDICTED BY IDOCK:   -3.25 KCAL/MOL
REMARK 922        TOTAL FREE ENERGY PREDICTED BY IDOCK:   -6.30 KCAL/MOL
REMARK 923 INTER-LIGAND FREE ENERGY PREDICTED BY IDOCK:   -5.90 KCAL/MOL
REMARK 924 INTRA-LIGAND FREE ENERGY PREDICTED BY IDOCK:   -0.40 KCAL/MOL
REMARK 927      BINDING AFFINITY PREDICTED BY RF-SCORE:    0.00 PKD
ROOT
HETATM    1  C   UNL     1     -13.754   9.061  72.417  1.00  0.00    -0.479 C  
HETATM    2  O   UNL     1     -12.531   8.960  73.146  1.00  0.00    -0.007 OA 
ENDROOT
BRANCH   2   3
HETATM    3  C   UNL     1     -11.428   8.640  72.396  1.00  0.00    -0.299 A  
HETATM    4  C   UNL     1     -11.186   9.261  71.157  1.00  0.00    -0.413 A  
HETATM    5  C   UNL     1     -10.150   8.882  70.319  1.00  0.00    -0.189 A  
HETATM    6  C   UNL     1      -9.282   7.890  70.752  1.00  0.00    -0.159 A  
HETATM    7  C   UNL     1      -9.438   7.337  72.046  1.00  0.00    -0.151 A  
HETATM    8  C   UNL     1      -8.313   7.521  69.820  1.00  0.00    -0.134 A  
HETATM    9  N   UNL     1      -7.323   6.580  70.121  1.00  0.00    -0.087 NA 
HETATM   10  N   UNL     1      -8.242   8.048  68.591  1.00  0.00    -0.125 NA 
HETATM   11  C   UNL     1     -10.512   7.694  72.869  1.00  0.00    -0.336 A  
HETATM   12  N   UNL     1     -10.045   9.463  69.122  1.00  0.00    -0.188 NA 
HETATM   13  H2  UNL     1      -7.788   5.730  70.442  1.00  0.00     0.000 HD 
HETATM   14  C   UNL     1      -9.113   9.013  68.271  1.00  0.00    -0.133 A  
HETATM   15  H1  UNL     1      -6.615   6.311  69.439  1.00  0.00     0.000 HD 
BRANCH  11  16
HETATM   16  O   UNL     1     -10.501   7.012  74.054  1.00  0.00    -0.366 OA 
HETATM   17  C   UNL     1     -10.467   5.594  74.042  1.00  0.00    -0.273 C  
ENDBRANCH  11  16
BRANCH  14  18
HETATM   18  N   UNL     1      -9.024   9.588  67.026  1.00  0.00    -0.133 NA 
HETATM   19  C   UNL     1     -10.068   9.344  66.056  1.00  0.00    -0.231 C  
BRANCH  18  20
HETATM   20  C   UNL     1      -7.989  10.568  66.743  1.00  0.00    -0.121 C  
BRANCH  20  21
HETATM   21  C   UNL     1      -7.845  11.586  67.884  1.00  0.00    -0.123 C  
BRANCH  21  22
HETATM   22  C   UNL     1      -9.136  12.365  68.137  1.00  0.00    -0.200 C  
BRANCH  22  23
HETATM   23  N   UNL     1      -9.145  13.641  67.453  1.00  0.00    -0.211 N  
HETATM   24  C   UNL     1      -9.855  13.854  66.294  1.00  0.00    -0.306 C  
HETATM   25  H   UNL     1      -8.606  14.412  67.846  1.00  0.00     0.000 HD 
HETATM   26  O   UNL     1     -10.510  12.980  65.735  1.00  0.00    -0.271 OA 
BRANCH  24  27
HETATM   27  C   UNL     1      -9.758  15.284  65.747  1.00  0.00    -0.350 C  
HETATM   28  C   UNL     1     -10.861  15.532  64.736  1.00  0.00    -0.385 C  
HETATM   29  C   UNL     1     -10.949  17.034  64.721  1.00  0.00     0.208 C  
HETATM   30  C   UNL     1     -10.649  17.398  66.160  1.00  0.00    -0.208 C  
HETATM   31  O   UNL     1      -9.888  16.322  66.732  1.00  0.00    -0.230 OA 
ENDBRANCH  24  27
ENDBRANCH  22  23
ENDBRANCH  21  22
ENDBRANCH  20  21
ENDBRANCH  18  20
ENDBRANCH  14  18
ENDBRANCH   2   3
TORSDOF 8
ENDMDL
MODEL      263
REMARK 921   NORMALIZED FREE ENERGY PREDICTED BY IDOCK:   -3.23 KCAL/MOL
REMARK 922        TOTAL FREE ENERGY PREDICTED BY IDOCK:   -6.28 KCAL/MOL
REMARK 923 INTER-LIGAND FREE ENERGY PREDICTED BY IDOCK:   -5.45 KCAL/MOL
REMARK 924 INTRA-LIGAND FREE ENERGY PREDICTED BY IDOCK:   -0.82 KCAL/MOL
REMARK 927      BINDING AFFINITY PREDICTED BY RF-SCORE:    0.00 PKD
ROOT
HETATM    1  C   UNL     1      -8.749   8.709  62.403  1.00  0.00    -0.108 C  
HETATM    2  O   UNL     1      -8.513   9.962  63.044  1.00  0.00    -0.146 OA 
ENDROOT
BRANCH   2   3
HETATM    3  C   UNL     1      -8.263   9.893  64.390  1.00  0.00    -0.164 A  
HETATM    4  C   UNL     1      -9.216   9.367  65.281  1.00  0.00    -0.299 A  
HETATM    5  C   UNL     1      -9.047   9.389  66.657  1.00  0.00    -0.149 A  
HETATM    6  C   UNL     1      -7.861   9.896  67.167  1.00  0.00    -0.099 A  
HETATM    7  C   UNL     1      -6.841  10.320  66.281  1.00  0.00    -0.110 A  
HETATM    8  C   UNL     1      -7.804   9.945  68.559  1.00  0.00    -0.081 A  
HETATM    9  N   UNL     1      -6.655  10.372  69.233  1.00  0.00    -0.050 NA 
HETATM   10  N   UNL     1      -8.820   9.572  69.347  1.00  0.00    -0.158 NA 
HETATM   11  C   UNL     1      -7.035  10.335  64.895  1.00  0.00    -0.101 A  
HETATM   12  N   UNL     1     -10.040   8.949  67.433  1.00  0.00    -0.208 NA 
HETATM   13  H2  UNL     1      -6.409  11.296  68.878  1.00  0.00     0.000 HD 
HETATM   14  C   UNL     1      -9.919   9.078  68.761  1.00  0.00    -0.182 A  
HETATM   15  H1  UNL     1      -6.614  10.408  70.251  1.00  0.00     0.000 HD 
BRANCH  11  16
HETATM   16  O   UNL     1      -5.945  10.821  64.229  1.00  0.00    -0.024 OA 
HETATM   17  C   UNL     1      -5.209   9.962  63.373  1.00  0.00    -0.087 C  
ENDBRANCH  11  16
BRANCH  14  18
HETATM   18  N   UNL     1     -10.952   8.656  69.562  1.00  0.00    -0.125 NA 
HETATM   19  C   UNL     1     -11.011   7.269  69.971  1.00  0.00    -0.253 C  
BRANCH  18  20
HETATM   20  C   UNL     1     -11.876   9.619  70.137  1.00  0.00    -0.031 C  
BRANCH  20  21
HETATM   21  C   UNL     1     -12.051  10.846  69.232  1.00  0.00    -0.332 C  
BRANCH  21  22
HETATM   22  C   UNL     1     -11.944  12.161  70.004  1.00  0.00    -0.315 C  
BRANCH  22  23
HETATM   23  N   UNL     1     -11.656  13.282  69.133  1.00  0.00    -0.299 N  
HETATM   24  C   UNL     1     -12.048  14.566  69.426  1.00  0.00    -0.290 C  
HETATM   25  H   UNL     1     -11.142  13.111  68.269  1.00  0.00     0.000 HD 
HETATM   26  O   UNL     1     -12.692  14.863  70.428  1.00  0.00    -0.350 OA 
BRANCH  24  27
HETATM   27  C   UNL     1     -11.616  15.612  68.390  1.00  0.00    -0.350 C  
HETATM   28  C   UNL     1     -10.332  16.288  68.835  1.00  0.00    -0.263 C  
HETATM   29  C   UNL     1      -9.796  16.839  67.542  1.00  0.00    -0.255 C  
HETATM   30  C   UNL     1     -10.215  15.787  66.536  1.00  0.00    -0.286 C  
HETATM   31  O   UNL     1     -11.350  15.093  67.077  1.00  0.00    -0.336 OA 
ENDBRANCH  24  27
ENDBRANCH  22  23
ENDBRANCH  21  22
ENDBRANCH  20  21
ENDBRANCH  18  20
ENDBRANCH  14  18
ENDBRANCH   2   3
TORSDOF 8
ENDMDL
MODEL      264
REMARK 921   NORMALIZED FREE ENERGY PREDICTED BY IDOCK:   -3.23 KCAL/MOL
REMARK 922        TOTAL FREE ENERGY PREDICTED BY IDOCK:   -6.27 KCAL/MOL
REMARK 923 INTER-LIGAND FREE ENERGY PREDICTED BY IDOCK:   -5.69 KCAL/MOL
REMARK 924 INTRA-LIGAND FREE ENERGY PREDICTED BY IDOCK:   -0.58 KCAL/MOL
REMARK 927      BINDING AFFINITY PREDICTED BY RF-SCORE:    0.00 PKD
ROOT
HETATM    1  C   UNL     1      -8.744   8.719  62.331  1.00  0.00    -0.147 C  
HETATM    2  O   UNL     1      -8.134   9.980  62.608  1.00  0.00    -0.125 OA 
ENDROOT
BRANCH   2   3
HETATM    3  C   UNL     1      -7.978  10.275  63.938  1.00  0.00    -0.126 A  
HETATM    4  C   UNL     1      -9.089  10.527  64.762  1.00  0.00    -0.242 A  
HETATM    5  C   UNL     1      -8.966  10.942  66.078  1.00  0.00    -0.186 A  
HETATM    6  C   UNL     1      -7.692  11.054  66.617  1.00  0.00    -0.153 A  
HETATM    7  C   UNL     1      -6.567  10.690  65.839  1.00  0.00    -0.118 A  
HETATM    8  C   UNL     1      -7.657  11.544  67.922  1.00  0.00    -0.113 A  
HETATM    9  N   UNL     1      -6.458  11.660  68.632  1.00  0.00    -0.055 NA 
HETATM   10  N   UNL     1      -8.754  11.917  68.594  1.00  0.00    -0.090 NA 
HETATM   11  C   UNL     1      -6.696  10.312  64.498  1.00  0.00    -0.076 A  
HETATM   12  N   UNL     1     -10.071  11.244  66.763  1.00  0.00    -0.213 NA 
HETATM   13  H2  UNL     1      -5.814  12.218  68.071  1.00  0.00     0.000 HD 
HETATM   14  C   UNL     1      -9.941  11.754  67.995  1.00  0.00    -0.188 A  
HETATM   15  H1  UNL     1      -6.433  12.018  69.586  1.00  0.00     0.000 HD 
BRANCH  11  16
HETATM   16  O   UNL     1      -5.486  10.047  63.920  1.00  0.00    -0.088 OA 
HETATM   17  C   UNL     1      -5.149  10.668  62.689  1.00  0.00    -0.149 C  
ENDBRANCH  11  16
BRANCH  14  18
HETATM   18  N   UNL     1     -11.076  12.096  68.691  1.00  0.00    -0.235 NA 
HETATM   19  C   UNL     1     -12.120  11.112  68.871  1.00  0.00    -0.207 C  
BRANCH  18  20
HETATM   20  C   UNL     1     -11.153  13.369  69.389  1.00  0.00    -0.103 C  
BRANCH  20  21
HETATM   21  C   UNL     1     -11.689  14.482  68.478  1.00  0.00    -0.353 C  
BRANCH  21  22
HETATM   22  C   UNL     1     -11.856  15.810  69.215  1.00  0.00    -0.346 C  
BRANCH  22  23
HETATM   23  N   UNL     1     -11.169  16.895  68.547  1.00  0.00    -0.218 N  
HETATM   24  C   UNL     1      -9.828  17.143  68.727  1.00  0.00    -0.293 C  
HETATM   25  H   UNL     1     -11.699  17.498  67.918  1.00  0.00     0.000 HD 
HETATM   26  O   UNL     1      -9.117  16.488  69.483  1.00  0.00    -0.073 OA 
BRANCH  24  27
HETATM   27  C   UNL     1      -9.287  18.319  67.902  1.00  0.00    -0.276 C  
HETATM   28  C   UNL     1      -9.769  18.215  66.467  1.00  0.00    -0.344 C  
HETATM   29  C   UNL     1      -9.619  19.630  65.977  1.00  0.00    -0.389 C  
HETATM   30  C   UNL     1      -9.946  20.444  67.211  1.00  0.00    -0.424 C  
HETATM   31  O   UNL     1      -9.691  19.619  68.359  1.00  0.00    -0.361 OA 
ENDBRANCH  24  27
ENDBRANCH  22  23
ENDBRANCH  21  22
ENDBRANCH  20  21
ENDBRANCH  18  20
ENDBRANCH  14  18
ENDBRANCH   2   3
TORSDOF 8
ENDMDL
MODEL      265
REMARK 921   NORMALIZED FREE ENERGY PREDICTED BY IDOCK:   -3.21 KCAL/MOL
REMARK 922        TOTAL FREE ENERGY PREDICTED BY IDOCK:   -6.25 KCAL/MOL
REMARK 923 INTER-LIGAND FREE ENERGY PREDICTED BY IDOCK:   -5.38 KCAL/MOL
REMARK 924 INTRA-LIGAND FREE ENERGY PREDICTED BY IDOCK:   -0.87 KCAL/MOL
REMARK 927      BINDING AFFINITY PREDICTED BY RF-SCORE:    0.00 PKD
ROOT
HETATM    1  C   UNL     1     -11.226  13.555  68.682  1.00  0.00    -0.278 C  
HETATM    2  O   UNL     1     -11.965  12.474  68.113  1.00  0.00    -0.333 OA 
ENDROOT
BRANCH   2   3
HETATM    3  C   UNL     1     -11.431  11.937  66.970  1.00  0.00    -0.316 A  
HETATM    4  C   UNL     1     -10.677  10.752  67.007  1.00  0.00    -0.320 A  
HETATM    5  C   UNL     1     -10.025  10.243  65.895  1.00  0.00    -0.256 A  
HETATM    6  C   UNL     1     -10.176  10.904  64.684  1.00  0.00    -0.411 A  
HETATM    7  C   UNL     1     -11.029  12.031  64.602  1.00  0.00    -0.367 A  
HETATM    8  C   UNL     1      -9.432  10.367  63.635  1.00  0.00    -0.306 A  
HETATM    9  N   UNL     1      -9.519  10.876  62.335  1.00  0.00    -0.550 NA 
HETATM   10  N   UNL     1      -8.605   9.324  63.783  1.00  0.00    -0.203 NA 
HETATM   11  C   UNL     1     -11.650  12.563  65.738  1.00  0.00    -0.392 A  
HETATM   12  N   UNL     1      -9.257   9.160  66.038  1.00  0.00    -0.197 NA 
HETATM   13  H2  UNL     1      -9.323  11.877  62.378  1.00  0.00     0.000 HD 
HETATM   14  C   UNL     1      -8.539   8.742  64.987  1.00  0.00    -0.169 A  
HETATM   15  H1  UNL     1      -8.974  10.483  61.568  1.00  0.00     0.000 HD 
BRANCH  11  16
HETATM   16  O   UNL     1     -12.390  13.675  65.446  1.00  0.00    -0.417 OA 
HETATM   17  C   UNL     1     -11.826  14.698  64.641  1.00  0.00    -0.452 C  
ENDBRANCH  11  16
BRANCH  14  18
HETATM   18  N   UNL     1      -7.724   7.647  65.140  1.00  0.00    -0.102 NA 
HETATM   19  C   UNL     1      -6.799   7.298  64.083  1.00  0.00    -0.048 C  
BRANCH  18  20
HETATM   20  C   UNL     1      -7.662   6.949  66.414  1.00  0.00    -0.098 C  
BRANCH  20  21
HETATM   21  C   UNL     1      -6.357   6.155  66.561  1.00  0.00    -0.045 C  
BRANCH  21  22
HETATM   22  C   UNL     1      -6.028   5.838  68.020  1.00  0.00    -0.017 C  
BRANCH  22  23
HETATM   23  N   UNL     1      -6.267   6.969  68.892  1.00  0.00    -0.027 N  
HETATM   24  C   UNL     1      -6.764   6.830  70.166  1.00  0.00    -0.052 C  
HETATM   25  H   UNL     1      -6.058   7.906  68.547  1.00  0.00     0.000 HD 
HETATM   26  O   UNL     1      -7.068   5.746  70.656  1.00  0.00    -0.068 OA 
BRANCH  24  27
HETATM   27  C   UNL     1      -6.913   8.149  70.935  1.00  0.00    -0.043 C  
HETATM   28  C   UNL     1      -5.672   8.411  71.768  1.00  0.00    -0.041 C  
HETATM   29  C   UNL     1      -5.749   9.896  71.999  1.00  0.00     0.181 C  
HETATM   30  C   UNL     1      -6.355  10.400  70.705  1.00  0.00     0.001 C  
HETATM   31  O   UNL     1      -7.086   9.315  70.113  1.00  0.00    -0.053 OA 
ENDBRANCH  24  27
ENDBRANCH  22  23
ENDBRANCH  21  22
ENDBRANCH  20  21
ENDBRANCH  18  20
ENDBRANCH  14  18
ENDBRANCH   2   3
TORSDOF 8
ENDMDL
MODEL      266
REMARK 921   NORMALIZED FREE ENERGY PREDICTED BY IDOCK:   -3.20 KCAL/MOL
REMARK 922        TOTAL FREE ENERGY PREDICTED BY IDOCK:   -6.23 KCAL/MOL
REMARK 923 INTER-LIGAND FREE ENERGY PREDICTED BY IDOCK:   -5.78 KCAL/MOL
REMARK 924 INTRA-LIGAND FREE ENERGY PREDICTED BY IDOCK:   -0.45 KCAL/MOL
REMARK 927      BINDING AFFINITY PREDICTED BY RF-SCORE:    0.00 PKD
ROOT
HETATM    1  C   UNL     1      -6.176   8.350  63.794  1.00  0.00    -0.072 C  
HETATM    2  O   UNL     1      -5.749   7.076  64.276  1.00  0.00    -0.031 OA 
ENDROOT
BRANCH   2   3
HETATM    3  C   UNL     1      -6.642   6.429  65.091  1.00  0.00    -0.039 A  
HETATM    4  C   UNL     1      -7.174   7.058  66.231  1.00  0.00    -0.075 A  
HETATM    5  C   UNL     1      -7.985   6.398  67.141  1.00  0.00    -0.112 A  
HETATM    6  C   UNL     1      -8.333   5.081  66.878  1.00  0.00    -0.107 A  
HETATM    7  C   UNL     1      -7.906   4.469  65.675  1.00  0.00    -0.094 A  
HETATM    8  C   UNL     1      -9.092   4.473  67.877  1.00  0.00    -0.123 A  
HETATM    9  N   UNL     1      -9.577   3.168  67.740  1.00  0.00    -0.262 NA 
HETATM   10  N   UNL     1      -9.429   5.089  69.017  1.00  0.00    -0.127 NA 
HETATM   11  C   UNL     1      -7.052   5.127  64.783  1.00  0.00    -0.058 A  
HETATM   12  N   UNL     1      -8.374   7.044  68.242  1.00  0.00    -0.123 NA 
HETATM   13  H2  UNL     1      -8.784   2.560  67.536  1.00  0.00     0.000 HD 
HETATM   14  C   UNL     1      -9.062   6.367  69.171  1.00  0.00    -0.131 A  
HETATM   15  H1  UNL     1     -10.132   2.724  68.471  1.00  0.00     0.000 HD 
BRANCH  11  16
HETATM   16  O   UNL     1      -6.725   4.344  63.711  1.00  0.00    -0.041 OA 
HETATM   17  C   UNL     1      -7.001   2.953  63.753  1.00  0.00    -0.040 C  
ENDBRANCH  11  16
BRANCH  14  18
HETATM   18  N   UNL     1      -9.437   7.020  70.321  1.00  0.00    -0.165 NA 
HETATM   19  C   UNL     1      -8.417   7.529  71.212  1.00  0.00    -0.116 C  
BRANCH  18  20
HETATM   20  C   UNL     1     -10.832   7.353  70.554  1.00  0.00    -0.243 C  
BRANCH  20  21
HETATM   21  C   UNL     1     -10.988   8.764  71.139  1.00  0.00    -0.334 C  
BRANCH  21  22
HETATM   22  C   UNL     1     -11.182   9.826  70.057  1.00  0.00    -0.251 C  
BRANCH  22  23
HETATM   23  N   UNL     1     -11.445  11.134  70.619  1.00  0.00    -0.398 N  
HETATM   24  C   UNL     1     -12.612  11.434  71.281  1.00  0.00    -0.374 C  
HETATM   25  H   UNL     1     -10.737  11.862  70.520  1.00  0.00     0.000 HD 
HETATM   26  O   UNL     1     -13.530  10.632  71.426  1.00  0.00    -0.248 OA 
BRANCH  24  27
HETATM   27  C   UNL     1     -12.679  12.866  71.828  1.00  0.00    -0.144 C  
HETATM   28  C   UNL     1     -12.380  13.861  70.722  1.00  0.00    -0.449 C  
HETATM   29  C   UNL     1     -12.990  15.128  71.259  1.00  0.00    -0.478 C  
HETATM   30  C   UNL     1     -14.205  14.619  72.007  1.00  0.00    -0.537 C  
HETATM   31  O   UNL     1     -13.953  13.251  72.368  1.00  0.00    -0.608 OA 
ENDBRANCH  24  27
ENDBRANCH  22  23
ENDBRANCH  21  22
ENDBRANCH  20  21
ENDBRANCH  18  20
ENDBRANCH  14  18
ENDBRANCH   2   3
TORSDOF 8
ENDMDL
MODEL      267
REMARK 921   NORMALIZED FREE ENERGY PREDICTED BY IDOCK:   -3.15 KCAL/MOL
REMARK 922        TOTAL FREE ENERGY PREDICTED BY IDOCK:   -6.17 KCAL/MOL
REMARK 923 INTER-LIGAND FREE ENERGY PREDICTED BY IDOCK:   -5.45 KCAL/MOL
REMARK 924 INTRA-LIGAND FREE ENERGY PREDICTED BY IDOCK:   -0.72 KCAL/MOL
REMARK 927      BINDING AFFINITY PREDICTED BY RF-SCORE:    0.00 PKD
ROOT
HETATM    1  C   UNL     1     -10.434  17.452  69.068  1.00  0.00    -0.285 C  
HETATM    2  O   UNL     1      -9.234  17.423  68.294  1.00  0.00    -0.255 OA 
ENDROOT
BRANCH   2   3
HETATM    3  C   UNL     1      -8.717  16.175  68.063  1.00  0.00    -0.176 A  
HETATM    4  C   UNL     1      -9.526  15.027  68.136  1.00  0.00    -0.196 A  
HETATM    5  C   UNL     1      -9.017  13.743  68.025  1.00  0.00    -0.187 A  
HETATM    6  C   UNL     1      -7.662  13.592  67.770  1.00  0.00    -0.163 A  
HETATM    7  C   UNL     1      -6.853  14.737  67.575  1.00  0.00    -0.181 A  
HETATM    8  C   UNL     1      -7.222  12.269  67.744  1.00  0.00    -0.114 A  
HETATM    9  N   UNL     1      -5.897  11.941  67.440  1.00  0.00    -0.099 NA 
HETATM   10  N   UNL     1      -8.026  11.225  67.982  1.00  0.00    -0.113 NA 
HETATM   11  C   UNL     1      -7.365  16.030  67.731  1.00  0.00    -0.139 A  
HETATM   12  N   UNL     1      -9.842  12.707  68.195  1.00  0.00    -0.222 NA 
HETATM   13  H2  UNL     1      -5.292  12.459  68.078  1.00  0.00     0.000 HD 
HETATM   14  C   UNL     1      -9.325  11.472  68.200  1.00  0.00    -0.185 A  
HETATM   15  H1  UNL     1      -5.576  10.973  67.420  1.00  0.00     0.000 HD 
BRANCH  11  16
HETATM   16  O   UNL     1      -6.409  16.989  67.543  1.00  0.00    -0.132 OA 
HETATM   17  C   UNL     1      -5.518  17.302  68.601  1.00  0.00    -0.143 C  
ENDBRANCH  11  16
BRANCH  14  18
HETATM   18  N   UNL     1     -10.166  10.405  68.406  1.00  0.00    -0.159 NA 
HETATM   19  C   UNL     1     -11.590  10.635  68.512  1.00  0.00    -0.207 C  
BRANCH  18  20
HETATM   20  C   UNL     1      -9.656   9.045  68.343  1.00  0.00    -0.152 C  
BRANCH  20  21
HETATM   21  C   UNL     1     -10.421   8.201  67.314  1.00  0.00    -0.379 C  
BRANCH  21  22
HETATM   22  C   UNL     1     -10.825   6.833  67.864  1.00  0.00    -0.247 C  
BRANCH  22  23
HETATM   23  N   UNL     1     -10.546   6.711  69.280  1.00  0.00    -0.219 N  
HETATM   24  C   UNL     1     -10.092   5.544  69.847  1.00  0.00    -0.235 C  
HETATM   25  H   UNL     1     -10.692   7.523  69.880  1.00  0.00     0.000 HD 
HETATM   26  O   UNL     1      -9.913   4.510  69.210  1.00  0.00    -0.194 OA 
BRANCH  24  27
HETATM   27  C   UNL     1      -9.828   5.634  71.356  1.00  0.00    -0.173 C  
HETATM   28  C   UNL     1     -11.076   6.111  72.076  1.00  0.00    -0.322 C  
HETATM   29  C   UNL     1     -10.829   5.643  73.485  1.00  0.00    -0.295 C  
HETATM   30  C   UNL     1     -10.088   4.339  73.275  1.00  0.00    -0.145 C  
HETATM   31  O   UNL     1      -9.462   4.395  71.984  1.00  0.00    -0.130 OA 
ENDBRANCH  24  27
ENDBRANCH  22  23
ENDBRANCH  21  22
ENDBRANCH  20  21
ENDBRANCH  18  20
ENDBRANCH  14  18
ENDBRANCH   2   3
TORSDOF 8
ENDMDL
MODEL      268
REMARK 921   NORMALIZED FREE ENERGY PREDICTED BY IDOCK:   -3.14 KCAL/MOL
REMARK 922        TOTAL FREE ENERGY PREDICTED BY IDOCK:   -6.14 KCAL/MOL
REMARK 923 INTER-LIGAND FREE ENERGY PREDICTED BY IDOCK:   -5.42 KCAL/MOL
REMARK 924 INTRA-LIGAND FREE ENERGY PREDICTED BY IDOCK:   -0.73 KCAL/MOL
REMARK 927      BINDING AFFINITY PREDICTED BY RF-SCORE:    0.00 PKD
ROOT
HETATM    1  C   UNL     1     -12.934  11.921  63.212  1.00  0.00    -0.018 C  
HETATM    2  O   UNL     1     -12.519  12.893  64.172  1.00  0.00    -0.557 OA 
ENDROOT
BRANCH   2   3
HETATM    3  C   UNL     1     -11.366  12.590  64.850  1.00  0.00    -0.310 A  
HETATM    4  C   UNL     1     -10.727  11.349  64.680  1.00  0.00    -0.378 A  
HETATM    5  C   UNL     1      -9.630  10.962  65.433  1.00  0.00    -0.225 A  
HETATM    6  C   UNL     1      -9.108  11.865  66.348  1.00  0.00    -0.208 A  
HETATM    7  C   UNL     1      -9.664  13.163  66.448  1.00  0.00    -0.269 A  
HETATM    8  C   UNL     1      -8.051  11.370  67.110  1.00  0.00    -0.155 A  
HETATM    9  N   UNL     1      -7.373  12.172  68.035  1.00  0.00    -0.096 NA 
HETATM   10  N   UNL     1      -7.596  10.115  67.004  1.00  0.00    -0.092 NA 
HETATM   11  C   UNL     1     -10.798  13.532  65.715  1.00  0.00    -0.275 A  
HETATM   12  N   UNL     1      -9.139   9.731  65.269  1.00  0.00    -0.194 NA 
HETATM   13  H2  UNL     1      -8.064  12.564  68.675  1.00  0.00     0.000 HD 
HETATM   14  C   UNL     1      -8.153   9.323  66.079  1.00  0.00    -0.110 A  
HETATM   15  H1  UNL     1      -6.600  11.809  68.592  1.00  0.00     0.000 HD 
BRANCH  11  16
HETATM   16  O   UNL     1     -11.197  14.809  65.993  1.00  0.00    -0.337 OA 
HETATM   17  C   UNL     1     -10.591  15.894  65.309  1.00  0.00    -0.419 C  
ENDBRANCH  11  16
BRANCH  14  18
HETATM   18  N   UNL     1      -7.667   8.046  65.934  1.00  0.00    -0.089 NA 
HETATM   19  C   UNL     1      -6.397   7.842  65.273  1.00  0.00    -0.038 C  
BRANCH  18  20
HETATM   20  C   UNL     1      -8.328   6.930  66.589  1.00  0.00    -0.118 C  
BRANCH  20  21
HETATM   21  C   UNL     1      -7.547   6.452  67.820  1.00  0.00    -0.102 C  
BRANCH  21  22
HETATM   22  C   UNL     1      -8.311   5.402  68.627  1.00  0.00    -0.093 C  
BRANCH  22  23
HETATM   23  N   UNL     1      -8.386   5.743  70.032  1.00  0.00    -0.121 N  
HETATM   24  C   UNL     1      -9.477   6.372  70.584  1.00  0.00    -0.165 C  
HETATM   25  H   UNL     1      -7.599   5.507  70.636  1.00  0.00     0.000 HD 
HETATM   26  O   UNL     1     -10.458   6.717  69.932  1.00  0.00    -0.196 OA 
BRANCH  24  27
HETATM   27  C   UNL     1      -9.370   6.614  72.096  1.00  0.00    -0.141 C  
HETATM   28  C   UNL     1     -10.564   7.416  72.581  1.00  0.00    -0.322 C  
HETATM   29  C   UNL     1     -10.579   7.105  74.053  1.00  0.00    -0.001 C  
HETATM   30  C   UNL     1     -10.107   5.666  74.093  1.00  0.00    -0.249 C  
HETATM   31  O   UNL     1      -9.342   5.425  72.901  1.00  0.00    -0.138 OA 
ENDBRANCH  24  27
ENDBRANCH  22  23
ENDBRANCH  21  22
ENDBRANCH  20  21
ENDBRANCH  18  20
ENDBRANCH  14  18
ENDBRANCH   2   3
TORSDOF 8
ENDMDL
MODEL      269
REMARK 921   NORMALIZED FREE ENERGY PREDICTED BY IDOCK:   -3.13 KCAL/MOL
REMARK 922        TOTAL FREE ENERGY PREDICTED BY IDOCK:   -6.13 KCAL/MOL
REMARK 923 INTER-LIGAND FREE ENERGY PREDICTED BY IDOCK:   -5.04 KCAL/MOL
REMARK 924 INTRA-LIGAND FREE ENERGY PREDICTED BY IDOCK:   -1.09 KCAL/MOL
REMARK 927      BINDING AFFINITY PREDICTED BY RF-SCORE:    0.00 PKD
ROOT
HETATM    1  C   UNL     1      -7.772  10.862  66.039  1.00  0.00    -0.107 C  
HETATM    2  O   UNL     1      -8.812   9.937  65.718  1.00  0.00    -0.138 OA 
ENDROOT
BRANCH   2   3
HETATM    3  C   UNL     1      -8.765   8.746  66.395  1.00  0.00    -0.139 A  
HETATM    4  C   UNL     1      -8.898   8.698  67.794  1.00  0.00    -0.137 A  
HETATM    5  C   UNL     1      -8.739   7.531  68.523  1.00  0.00    -0.128 A  
HETATM    6  C   UNL     1      -8.498   6.351  67.833  1.00  0.00    -0.118 A  
HETATM    7  C   UNL     1      -8.479   6.359  66.417  1.00  0.00    -0.123 A  
HETATM    8  C   UNL     1      -8.282   5.240  68.645  1.00  0.00    -0.093 A  
HETATM    9  N   UNL     1      -8.086   3.963  68.108  1.00  0.00    -0.083 NA 
HETATM   10  N   UNL     1      -8.266   5.302  69.983  1.00  0.00    -0.083 NA 
HETATM   11  C   UNL     1      -8.599   7.549  65.690  1.00  0.00    -0.114 A  
HETATM   12  N   UNL     1      -8.795   7.591  69.856  1.00  0.00    -0.140 NA 
HETATM   13  H2  UNL     1      -7.315   4.019  67.442  1.00  0.00     0.000 HD 
HETATM   14  C   UNL     1      -8.527   6.483  70.558  1.00  0.00    -0.138 A  
HETATM   15  H1  UNL     1      -7.927   3.150  68.702  1.00  0.00     0.000 HD 
BRANCH  11  16
HETATM   16  O   UNL     1      -8.509   7.339  64.342  1.00  0.00     0.037 OA 
HETATM   17  C   UNL     1      -7.961   6.123  63.860  1.00  0.00    -0.103 C  
ENDBRANCH  11  16
BRANCH  14  18
HETATM   18  N   UNL     1      -8.552   6.549  71.930  1.00  0.00    -0.129 NA 
HETATM   19  C   UNL     1      -7.403   7.073  72.636  1.00  0.00    -0.080 C  
BRANCH  18  20
HETATM   20  C   UNL     1      -9.778   6.263  72.657  1.00  0.00    -0.158 C  
BRANCH  20  21
HETATM   21  C   UNL     1     -10.912   7.213  72.248  1.00  0.00    -0.277 C  
BRANCH  21  22
HETATM   22  C   UNL     1     -10.545   8.683  72.449  1.00  0.00    -0.239 C  
BRANCH  22  23
HETATM   23  N   UNL     1     -10.934   9.502  71.320  1.00  0.00    -0.363 N  
HETATM   24  C   UNL     1     -12.105  10.222  71.297  1.00  0.00    -0.382 C  
HETATM   25  H   UNL     1     -10.316   9.545  70.510  1.00  0.00     0.000 HD 
HETATM   26  O   UNL     1     -12.922  10.210  72.213  1.00  0.00    -0.381 OA 
BRANCH  24  27
HETATM   27  C   UNL     1     -12.314  11.049  70.021  1.00  0.00    -0.305 C  
HETATM   28  C   UNL     1     -11.681  12.420  70.179  1.00  0.00    -0.266 C  
HETATM   29  C   UNL     1     -11.507  12.857  68.750  1.00  0.00    -0.345 C  
HETATM   30  C   UNL     1     -11.194  11.555  68.041  1.00  0.00    -0.269 C  
HETATM   31  O   UNL     1     -11.739  10.487  68.831  1.00  0.00    -0.240 OA 
ENDBRANCH  24  27
ENDBRANCH  22  23
ENDBRANCH  21  22
ENDBRANCH  20  21
ENDBRANCH  18  20
ENDBRANCH  14  18
ENDBRANCH   2   3
TORSDOF 8
ENDMDL
MODEL      270
REMARK 921   NORMALIZED FREE ENERGY PREDICTED BY IDOCK:   -3.07 KCAL/MOL
REMARK 922        TOTAL FREE ENERGY PREDICTED BY IDOCK:   -6.05 KCAL/MOL
REMARK 923 INTER-LIGAND FREE ENERGY PREDICTED BY IDOCK:   -5.48 KCAL/MOL
REMARK 924 INTRA-LIGAND FREE ENERGY PREDICTED BY IDOCK:   -0.57 KCAL/MOL
REMARK 927      BINDING AFFINITY PREDICTED BY RF-SCORE:    0.00 PKD
ROOT
HETATM    1  C   UNL     1      -6.709  14.951  69.857  1.00  0.00    -0.178 C  
HETATM    2  O   UNL     1      -6.355  14.018  68.835  1.00  0.00    -0.083 OA 
ENDROOT
BRANCH   2   3
HETATM    3  C   UNL     1      -7.406  13.524  68.105  1.00  0.00    -0.121 A  
HETATM    4  C   UNL     1      -7.680  12.145  68.067  1.00  0.00    -0.134 A  
HETATM    5  C   UNL     1      -8.656  11.598  67.251  1.00  0.00    -0.154 A  
HETATM    6  C   UNL     1      -9.433  12.457  66.486  1.00  0.00    -0.242 A  
HETATM    7  C   UNL     1      -9.252  13.856  66.601  1.00  0.00    -0.253 A  
HETATM    8  C   UNL     1     -10.341  11.819  65.643  1.00  0.00    -0.252 A  
HETATM    9  N   UNL     1     -11.241  12.540  64.851  1.00  0.00    -0.296 NA 
HETATM   10  N   UNL     1     -10.437  10.487  65.542  1.00  0.00    -0.201 NA 
HETATM   11  C   UNL     1      -8.235  14.399  67.396  1.00  0.00    -0.199 A  
HETATM   12  N   UNL     1      -8.791  10.270  67.210  1.00  0.00    -0.132 NA 
HETATM   13  H2  UNL     1     -10.704  13.201  64.290  1.00  0.00     0.000 HD 
HETATM   14  C   UNL     1      -9.656   9.741  66.335  1.00  0.00    -0.200 A  
HETATM   15  H1  UNL     1     -11.906  12.073  64.235  1.00  0.00     0.000 HD 
BRANCH  11  16
HETATM   16  O   UNL     1      -8.206  15.764  67.330  1.00  0.00    -0.152 OA 
HETATM   17  C   UNL     1      -7.397  16.399  66.353  1.00  0.00    -0.031 C  
ENDBRANCH  11  16
BRANCH  14  18
HETATM   18  N   UNL     1      -9.774   8.374  66.268  1.00  0.00    -0.233 NA 
HETATM   19  C   UNL     1      -8.833   7.619  65.471  1.00  0.00     0.008 C  
BRANCH  18  20
HETATM   20  C   UNL     1     -10.719   7.676  67.124  1.00  0.00    -0.290 C  
BRANCH  20  21
HETATM   21  C   UNL     1     -10.481   6.160  67.113  1.00  0.00    -0.327 C  
BRANCH  21  22
HETATM   22  C   UNL     1     -10.327   5.582  68.519  1.00  0.00    -0.178 C  
BRANCH  22  23
HETATM   23  N   UNL     1     -11.118   6.303  69.495  1.00  0.00    -0.377 N  
HETATM   24  C   UNL     1     -10.554   7.119  70.446  1.00  0.00    -0.224 C  
HETATM   25  H   UNL     1     -12.132   6.202  69.475  1.00  0.00     0.000 HD 
HETATM   26  O   UNL     1      -9.343   7.281  70.564  1.00  0.00    -0.158 OA 
BRANCH  24  27
HETATM   27  C   UNL     1     -11.568   7.817  71.363  1.00  0.00    -0.276 C  
HETATM   28  C   UNL     1     -11.069   9.201  71.735  1.00  0.00    -0.437 C  
HETATM   29  C   UNL     1     -12.337   9.898  72.144  1.00  0.00    -0.149 C  
HETATM   30  C   UNL     1     -13.364   9.293  71.210  1.00  0.00    -0.258 C  
HETATM   31  O   UNL     1     -12.871   8.010  70.791  1.00  0.00     0.046 OA 
ENDBRANCH  24  27
ENDBRANCH  22  23
ENDBRANCH  21  22
ENDBRANCH  20  21
ENDBRANCH  18  20
ENDBRANCH  14  18
ENDBRANCH   2   3
TORSDOF 8
ENDMDL
MODEL      271
REMARK 921   NORMALIZED FREE ENERGY PREDICTED BY IDOCK:   -3.07 KCAL/MOL
REMARK 922        TOTAL FREE ENERGY PREDICTED BY IDOCK:   -6.05 KCAL/MOL
REMARK 923 INTER-LIGAND FREE ENERGY PREDICTED BY IDOCK:   -4.98 KCAL/MOL
REMARK 924 INTRA-LIGAND FREE ENERGY PREDICTED BY IDOCK:   -1.07 KCAL/MOL
REMARK 927      BINDING AFFINITY PREDICTED BY RF-SCORE:    0.00 PKD
ROOT
HETATM    1  C   UNL     1     -11.212   9.219  70.221  1.00  0.00    -0.231 C  
HETATM    2  O   UNL     1     -11.530   7.977  70.848  1.00  0.00    -0.276 OA 
ENDROOT
BRANCH   2   3
HETATM    3  C   UNL     1     -10.916   6.876  70.309  1.00  0.00    -0.281 A  
HETATM    4  C   UNL     1     -10.595   6.819  68.941  1.00  0.00    -0.257 A  
HETATM    5  C   UNL     1     -10.083   5.680  68.339  1.00  0.00    -0.173 A  
HETATM    6  C   UNL     1      -9.823   4.574  69.135  1.00  0.00    -0.222 A  
HETATM    7  C   UNL     1     -10.028   4.653  70.533  1.00  0.00    -0.295 A  
HETATM    8  C   UNL     1      -9.377   3.452  68.439  1.00  0.00    -0.177 A  
HETATM    9  N   UNL     1      -9.011   2.274  69.098  1.00  0.00    -0.097 NA 
HETATM   10  N   UNL     1      -9.245   3.422  67.106  1.00  0.00    -0.179 NA 
HETATM   11  C   UNL     1     -10.584   5.791  71.128  1.00  0.00    -0.251 A  
HETATM   12  N   UNL     1      -9.889   5.683  67.018  1.00  0.00    -0.141 NA 
HETATM   13  H2  UNL     1      -9.796   1.987  69.684  1.00  0.00     0.000 HD 
HETATM   14  C   UNL     1      -9.503   4.546  66.425  1.00  0.00    -0.172 A  
HETATM   15  H1  UNL     1      -8.685   1.454  68.589  1.00  0.00     0.000 HD 
BRANCH  11  16
HETATM   16  O   UNL     1     -10.739   5.642  72.478  1.00  0.00    -0.214 OA 
HETATM   17  C   UNL     1      -9.898   6.367  73.362  1.00  0.00    -0.178 C  
ENDBRANCH  11  16
BRANCH  14  18
HETATM   18  N   UNL     1      -9.333   4.537  65.062  1.00  0.00    -0.156 NA 
HETATM   19  C   UNL     1     -10.001   3.527  64.270  1.00  0.00    -0.191 C  
BRANCH  18  20
HETATM   20  C   UNL     1      -8.637   5.629  64.402  1.00  0.00     0.016 C  
BRANCH  20  21
HETATM   21  C   UNL     1      -7.114   5.450  64.468  1.00  0.00    -0.050 C  
BRANCH  21  22
HETATM   22  C   UNL     1      -6.389   6.747  64.829  1.00  0.00    -0.039 C  
BRANCH  22  23
HETATM   23  N   UNL     1      -7.266   7.897  64.769  1.00  0.00    -0.071 N  
HETATM   24  C   UNL     1      -6.963   9.092  65.378  1.00  0.00    -0.081 C  
HETATM   25  H   UNL     1      -8.144   7.818  64.255  1.00  0.00     0.000 HD 
HETATM   26  O   UNL     1      -5.944   9.273  66.038  1.00  0.00    -0.053 OA 
BRANCH  24  27
HETATM   27  C   UNL     1      -8.010  10.194  65.166  1.00  0.00    -0.146 C  
HETATM   28  C   UNL     1      -8.906   9.843  63.993  1.00  0.00    -0.253 C  
HETATM   29  C   UNL     1     -10.124  10.687  64.258  1.00  0.00    -0.411 C  
HETATM   30  C   UNL     1     -10.208  10.681  65.770  1.00  0.00    -0.252 C  
HETATM   31  O   UNL     1      -8.891  10.417  66.279  1.00  0.00    -0.146 OA 
ENDBRANCH  24  27
ENDBRANCH  22  23
ENDBRANCH  21  22
ENDBRANCH  20  21
ENDBRANCH  18  20
ENDBRANCH  14  18
ENDBRANCH   2   3
TORSDOF 8
ENDMDL
MODEL      272
REMARK 921   NORMALIZED FREE ENERGY PREDICTED BY IDOCK:   -3.04 KCAL/MOL
REMARK 922        TOTAL FREE ENERGY PREDICTED BY IDOCK:   -5.99 KCAL/MOL
REMARK 923 INTER-LIGAND FREE ENERGY PREDICTED BY IDOCK:   -4.80 KCAL/MOL
REMARK 924 INTRA-LIGAND FREE ENERGY PREDICTED BY IDOCK:   -1.19 KCAL/MOL
REMARK 927      BINDING AFFINITY PREDICTED BY RF-SCORE:    0.00 PKD
ROOT
HETATM    1  C   UNL     1      -9.768  12.117  67.746  1.00  0.00    -0.197 C  
HETATM    2  O   UNL     1     -10.930  11.292  67.668  1.00  0.00    -0.223 OA 
ENDROOT
BRANCH   2   3
HETATM    3  C   UNL     1     -10.800  10.043  68.219  1.00  0.00    -0.241 A  
HETATM    4  C   UNL     1     -10.363   8.951  67.449  1.00  0.00    -0.337 A  
HETATM    5  C   UNL     1     -10.331   7.654  67.938  1.00  0.00    -0.212 A  
HETATM    6  C   UNL     1     -10.688   7.441  69.262  1.00  0.00    -0.197 A  
HETATM    7  C   UNL     1     -11.015   8.544  70.086  1.00  0.00    -0.221 A  
HETATM    8  C   UNL     1     -10.695   6.103  69.650  1.00  0.00    -0.319 A  
HETATM    9  N   UNL     1     -10.973   5.720  70.967  1.00  0.00    -0.259 NA 
HETATM   10  N   UNL     1     -10.421   5.095  68.812  1.00  0.00    -0.105 NA 
HETATM   11  C   UNL     1     -11.087   9.845  69.574  1.00  0.00    -0.217 A  
HETATM   12  N   UNL     1      -9.987   6.663  67.112  1.00  0.00    -0.147 NA 
HETATM   13  H2  UNL     1     -11.872   6.127  71.228  1.00  0.00     0.000 HD 
HETATM   14  C   UNL     1     -10.069   5.403  67.557  1.00  0.00    -0.180 A  
HETATM   15  H1  UNL     1     -10.978   4.741  71.251  1.00  0.00     0.000 HD 
BRANCH  11  16
HETATM   16  O   UNL     1     -11.463  10.752  70.525  1.00  0.00    -0.313 OA 
HETATM   17  C   UNL     1     -11.962  10.292  71.771  1.00  0.00     0.005 C  
ENDBRANCH  11  16
BRANCH  14  18
HETATM   18  N   UNL     1      -9.746   4.378  66.699  1.00  0.00    -0.201 NA 
HETATM   19  C   UNL     1      -9.677   4.639  65.278  1.00  0.00    -0.136 C  
BRANCH  18  20
HETATM   20  C   UNL     1      -9.309   3.094  67.221  1.00  0.00    -0.179 C  
BRANCH  20  21
HETATM   21  C   UNL     1      -7.955   3.206  67.937  1.00  0.00    -0.075 C  
BRANCH  21  22
HETATM   22  C   UNL     1      -7.813   2.199  69.079  1.00  0.00    -0.045 C  
BRANCH  22  23
HETATM   23  N   UNL     1      -8.881   2.322  70.049  1.00  0.00    -0.067 N  
HETATM   24  C   UNL     1      -8.651   2.643  71.366  1.00  0.00    -0.064 C  
HETATM   25  H   UNL     1      -9.841   2.164  69.744  1.00  0.00     0.000 HD 
HETATM   26  O   UNL     1      -7.529   2.824  71.829  1.00  0.00    -0.039 OA 
BRANCH  24  27
HETATM   27  C   UNL     1      -9.920   2.755  72.221  1.00  0.00    -0.169 C  
HETATM   28  C   UNL     1     -10.048   1.542  73.124  1.00  0.00    -0.158 C  
HETATM   29  C   UNL     1     -10.971   2.044  74.203  1.00  0.00    -0.213 C  
HETATM   30  C   UNL     1     -10.568   3.498  74.333  1.00  0.00    -0.171 C  
HETATM   31  O   UNL     1      -9.969   3.898  73.089  1.00  0.00    -0.122 OA 
ENDBRANCH  24  27
ENDBRANCH  22  23
ENDBRANCH  21  22
ENDBRANCH  20  21
ENDBRANCH  18  20
ENDBRANCH  14  18
ENDBRANCH   2   3
TORSDOF 8
ENDMDL
MODEL      273
REMARK 921   NORMALIZED FREE ENERGY PREDICTED BY IDOCK:   -3.00 KCAL/MOL
REMARK 922        TOTAL FREE ENERGY PREDICTED BY IDOCK:   -5.94 KCAL/MOL
REMARK 923 INTER-LIGAND FREE ENERGY PREDICTED BY IDOCK:   -4.93 KCAL/MOL
REMARK 924 INTRA-LIGAND FREE ENERGY PREDICTED BY IDOCK:   -1.01 KCAL/MOL
REMARK 927      BINDING AFFINITY PREDICTED BY RF-SCORE:    0.00 PKD
ROOT
HETATM    1  C   UNL     1      -7.828  12.829  68.290  1.00  0.00    -0.141 C  
HETATM    2  O   UNL     1      -9.087  12.575  67.667  1.00  0.00    -0.172 OA 
ENDROOT
BRANCH   2   3
HETATM    3  C   UNL     1      -9.588  11.312  67.851  1.00  0.00    -0.178 A  
HETATM    4  C   UNL     1      -9.601  10.714  69.124  1.00  0.00    -0.193 A  
HETATM    5  C   UNL     1      -9.989   9.399  69.330  1.00  0.00    -0.181 A  
HETATM    6  C   UNL     1     -10.439   8.668  68.240  1.00  0.00    -0.234 A  
HETATM    7  C   UNL     1     -10.545   9.289  66.973  1.00  0.00    -0.263 A  
HETATM    8  C   UNL     1     -10.742   7.337  68.523  1.00  0.00    -0.126 A  
HETATM    9  N   UNL     1     -11.266   6.479  67.550  1.00  0.00    -0.679 NA 
HETATM   10  N   UNL     1     -10.577   6.789  69.734  1.00  0.00    -0.215 NA 
HETATM   11  C   UNL     1     -10.112  10.604  66.764  1.00  0.00    -0.224 A  
HETATM   12  N   UNL     1      -9.887   8.883  70.557  1.00  0.00    -0.187 NA 
HETATM   13  H2  UNL     1     -10.635   6.493  66.748  1.00  0.00     0.000 HD 
HETATM   14  C   UNL     1     -10.154   7.582  70.727  1.00  0.00    -0.192 A  
HETATM   15  H1  UNL     1     -11.487   5.505  67.757  1.00  0.00     0.000 HD 
BRANCH  11  16
HETATM   16  O   UNL     1     -10.261  10.994  65.463  1.00  0.00    -0.248 OA 
HETATM   17  C   UNL     1      -9.769  10.163  64.424  1.00  0.00    -0.277 C  
ENDBRANCH  11  16
BRANCH  14  18
HETATM   18  N   UNL     1     -10.020   7.040  71.983  1.00  0.00    -0.160 NA 
HETATM   19  C   UNL     1     -11.070   6.193  72.505  1.00  0.00    -0.274 C  
BRANCH  18  20
HETATM   20  C   UNL     1      -8.767   7.168  72.708  1.00  0.00    -0.118 C  
BRANCH  20  21
HETATM   21  C   UNL     1      -7.614   6.469  71.974  1.00  0.00    -0.093 C  
BRANCH  21  22
HETATM   22  C   UNL     1      -7.386   5.041  72.469  1.00  0.00    -0.093 C  
BRANCH  22  23
HETATM   23  N   UNL     1      -7.784   4.053  71.488  1.00  0.00    -0.063 N  
HETATM   24  C   UNL     1      -6.891   3.474  70.618  1.00  0.00    -0.033 C  
HETATM   25  H   UNL     1      -8.764   3.777  71.440  1.00  0.00     0.000 HD 
HETATM   26  O   UNL     1      -5.699   3.763  70.584  1.00  0.00    -0.012 OA 
BRANCH  24  27
HETATM   27  C   UNL     1      -7.510   2.428  69.680  1.00  0.00    -0.043 C  
HETATM   28  C   UNL     1      -9.023   2.537  69.704  1.00  0.00    -0.166 C  
HETATM   29  C   UNL     1      -9.411   1.871  68.411  1.00  0.00    -0.248 C  
HETATM   30  C   UNL     1      -8.276   2.257  67.486  1.00  0.00    -0.067 C  
HETATM   31  O   UNL     1      -7.129   2.549  68.300  1.00  0.00    -0.047 OA 
ENDBRANCH  24  27
ENDBRANCH  22  23
ENDBRANCH  21  22
ENDBRANCH  20  21
ENDBRANCH  18  20
ENDBRANCH  14  18
ENDBRANCH   2   3
TORSDOF 8
ENDMDL
MODEL      274
REMARK 921   NORMALIZED FREE ENERGY PREDICTED BY IDOCK:   -2.99 KCAL/MOL
REMARK 922        TOTAL FREE ENERGY PREDICTED BY IDOCK:   -5.93 KCAL/MOL
REMARK 923 INTER-LIGAND FREE ENERGY PREDICTED BY IDOCK:   -4.93 KCAL/MOL
REMARK 924 INTRA-LIGAND FREE ENERGY PREDICTED BY IDOCK:   -1.00 KCAL/MOL
REMARK 927      BINDING AFFINITY PREDICTED BY RF-SCORE:    0.00 PKD
ROOT
HETATM    1  C   UNL     1      -7.294  11.451  66.902  1.00  0.00    -0.147 C  
HETATM    2  O   UNL     1      -8.478  10.859  66.369  1.00  0.00    -0.151 OA 
ENDROOT
BRANCH   2   3
HETATM    3  C   UNL     1      -8.429   9.498  66.203  1.00  0.00    -0.120 A  
HETATM    4  C   UNL     1      -8.356   8.633  67.309  1.00  0.00    -0.108 A  
HETATM    5  C   UNL     1      -8.186   7.264  67.179  1.00  0.00    -0.118 A  
HETATM    6  C   UNL     1      -8.148   6.724  65.902  1.00  0.00    -0.123 A  
HETATM    7  C   UNL     1      -8.339   7.564  64.779  1.00  0.00    -0.014 A  
HETATM    8  C   UNL     1      -7.904   5.352  65.861  1.00  0.00    -0.103 A  
HETATM    9  N   UNL     1      -7.895   4.642  64.655  1.00  0.00    -0.085 NA 
HETATM   10  N   UNL     1      -7.684   4.614  66.957  1.00  0.00    -0.090 NA 
HETATM   11  C   UNL     1      -8.467   8.951  64.916  1.00  0.00    -0.178 A  
HETATM   12  N   UNL     1      -8.038   6.526  68.282  1.00  0.00    -0.110 NA 
HETATM   13  H2  UNL     1      -7.230   5.096  64.030  1.00  0.00     0.000 HD 
HETATM   14  C   UNL     1      -7.760   5.223  68.147  1.00  0.00    -0.084 A  
HETATM   15  H1  UNL     1      -7.717   3.638  64.626  1.00  0.00     0.000 HD 
BRANCH  11  16
HETATM   16  O   UNL     1      -8.597   9.578  63.708  1.00  0.00    -0.185 OA 
HETATM   17  C   UNL     1      -8.177   8.912  62.528  1.00  0.00    -0.178 C  
ENDBRANCH  11  16
BRANCH  14  18
HETATM   18  N   UNL     1      -7.575   4.467  69.280  1.00  0.00    -0.055 NA 
HETATM   19  C   UNL     1      -6.341   4.593  70.023  1.00  0.00    -0.030 C  
BRANCH  18  20
HETATM   20  C   UNL     1      -8.671   3.684  69.826  1.00  0.00    -0.075 C  
BRANCH  20  21
HETATM   21  C   UNL     1      -9.848   4.573  70.248  1.00  0.00    -0.299 C  
BRANCH  21  22
HETATM   22  C   UNL     1      -9.625   5.230  71.610  1.00  0.00    -0.152 C  
BRANCH  22  23
HETATM   23  N   UNL     1      -9.882   6.655  71.577  1.00  0.00    -0.172 N  
HETATM   24  C   UNL     1     -11.137   7.185  71.764  1.00  0.00    -0.236 C  
HETATM   25  H   UNL     1      -9.102   7.290  71.408  1.00  0.00     0.000 HD 
HETATM   26  O   UNL     1     -12.138   6.499  71.947  1.00  0.00    -0.334 OA 
BRANCH  24  27
HETATM   27  C   UNL     1     -11.189   8.718  71.723  1.00  0.00    -0.340 C  
HETATM   28  C   UNL     1     -11.224   9.200  70.285  1.00  0.00    -0.249 C  
HETATM   29  C   UNL     1     -11.793  10.586  70.426  1.00  0.00    -0.431 C  
HETATM   30  C   UNL     1     -12.764  10.429  71.578  1.00  0.00    -0.459 C  
HETATM   31  O   UNL     1     -12.334   9.305  72.362  1.00  0.00    -0.307 OA 
ENDBRANCH  24  27
ENDBRANCH  22  23
ENDBRANCH  21  22
ENDBRANCH  20  21
ENDBRANCH  18  20
ENDBRANCH  14  18
ENDBRANCH   2   3
TORSDOF 8
ENDMDL
MODEL      275
REMARK 921   NORMALIZED FREE ENERGY PREDICTED BY IDOCK:   -2.99 KCAL/MOL
REMARK 922        TOTAL FREE ENERGY PREDICTED BY IDOCK:   -5.92 KCAL/MOL
REMARK 923 INTER-LIGAND FREE ENERGY PREDICTED BY IDOCK:   -4.90 KCAL/MOL
REMARK 924 INTRA-LIGAND FREE ENERGY PREDICTED BY IDOCK:   -1.02 KCAL/MOL
REMARK 927      BINDING AFFINITY PREDICTED BY RF-SCORE:    0.00 PKD
ROOT
HETATM    1  C   UNL     1     -12.792  12.843  64.576  1.00  0.00    -0.196 C  
HETATM    2  O   UNL     1     -12.622  13.396  65.881  1.00  0.00    -0.426 OA 
ENDROOT
BRANCH   2   3
HETATM    3  C   UNL     1     -11.584  12.874  66.608  1.00  0.00    -0.372 A  
HETATM    4  C   UNL     1     -11.699  11.627  67.249  1.00  0.00    -0.255 A  
HETATM    5  C   UNL     1     -10.718  11.122  68.087  1.00  0.00    -0.204 A  
HETATM    6  C   UNL     1      -9.550  11.853  68.248  1.00  0.00    -0.201 A  
HETATM    7  C   UNL     1      -9.366  13.051  67.518  1.00  0.00    -0.200 A  
HETATM    8  C   UNL     1      -8.648  11.308  69.160  1.00  0.00     0.120 A  
HETATM    9  N   UNL     1      -7.396  11.887  69.393  1.00  0.00    -0.340 NA 
HETATM   10  N   UNL     1      -8.896  10.192  69.858  1.00  0.00    -0.133 NA 
HETATM   11  C   UNL     1     -10.378  13.577  66.707  1.00  0.00    -0.264 A  
HETATM   12  N   UNL     1     -10.947   9.972  68.725  1.00  0.00    -0.220 NA 
HETATM   13  H2  UNL     1      -7.547  12.864  69.648  1.00  0.00     0.000 HD 
HETATM   14  C   UNL     1     -10.045   9.547  69.620  1.00  0.00    -0.212 A  
HETATM   15  H1  UNL     1      -6.737  11.488  70.060  1.00  0.00     0.000 HD 
BRANCH  11  16
HETATM   16  O   UNL     1     -10.013  14.761  66.130  1.00  0.00    -0.272 OA 
HETATM   17  C   UNL     1      -9.870  14.836  64.720  1.00  0.00     0.337 C  
ENDBRANCH  11  16
BRANCH  14  18
HETATM   18  N   UNL     1     -10.292   8.379  70.301  1.00  0.00    -0.201 NA 
HETATM   19  C   UNL     1     -11.211   8.391  71.419  1.00  0.00    -0.261 C  
BRANCH  18  20
HETATM   20  C   UNL     1      -9.778   7.115  69.802  1.00  0.00    -0.165 C  
BRANCH  20  21
HETATM   21  C   UNL     1      -8.266   6.989  70.029  1.00  0.00    -0.133 C  
BRANCH  21  22
HETATM   22  C   UNL     1      -7.477   6.971  68.720  1.00  0.00    -0.099 C  
BRANCH  22  23
HETATM   23  N   UNL     1      -7.757   8.131  67.899  1.00  0.00    -0.111 N  
HETATM   24  C   UNL     1      -8.532   8.065  66.766  1.00  0.00    -0.128 C  
HETATM   25  H   UNL     1      -7.364   9.031  68.172  1.00  0.00     0.000 HD 
HETATM   26  O   UNL     1      -9.025   7.023  66.345  1.00  0.00    -0.145 OA 
BRANCH  24  27
HETATM   27  C   UNL     1      -8.733   9.412  66.058  1.00  0.00    -0.150 C  
HETATM   28  C   UNL     1      -7.689   9.590  64.971  1.00  0.00    -0.114 C  
HETATM   29  C   UNL     1      -8.327  10.623  64.082  1.00  0.00    -0.024 C  
HETATM   30  C   UNL     1      -9.798  10.276  64.174  1.00  0.00    -0.250 C  
HETATM   31  O   UNL     1     -10.005   9.575  65.410  1.00  0.00    -0.284 OA 
ENDBRANCH  24  27
ENDBRANCH  22  23
ENDBRANCH  21  22
ENDBRANCH  20  21
ENDBRANCH  18  20
ENDBRANCH  14  18
ENDBRANCH   2   3
TORSDOF 8
ENDMDL
MODEL      276
REMARK 921   NORMALIZED FREE ENERGY PREDICTED BY IDOCK:   -2.97 KCAL/MOL
REMARK 922        TOTAL FREE ENERGY PREDICTED BY IDOCK:   -5.90 KCAL/MOL
REMARK 923 INTER-LIGAND FREE ENERGY PREDICTED BY IDOCK:   -5.55 KCAL/MOL
REMARK 924 INTRA-LIGAND FREE ENERGY PREDICTED BY IDOCK:   -0.35 KCAL/MOL
REMARK 927      BINDING AFFINITY PREDICTED BY RF-SCORE:    0.00 PKD
ROOT
HETATM    1  C   UNL     1     -12.830  13.692  64.971  1.00  0.00    -0.272 C  
HETATM    2  O   UNL     1     -12.516  14.126  66.295  1.00  0.00    -0.466 OA 
ENDROOT
BRANCH   2   3
HETATM    3  C   UNL     1     -11.231  13.878  66.702  1.00  0.00    -0.320 A  
HETATM    4  C   UNL     1     -10.799  12.573  66.997  1.00  0.00    -0.287 A  
HETATM    5  C   UNL     1      -9.547  12.298  67.523  1.00  0.00    -0.184 A  
HETATM    6  C   UNL     1      -8.664  13.353  67.707  1.00  0.00    -0.197 A  
HETATM    7  C   UNL     1      -9.037  14.658  67.304  1.00  0.00    -0.215 A  
HETATM    8  C   UNL     1      -7.456  12.999  68.304  1.00  0.00    -0.128 A  
HETATM    9  N   UNL     1      -6.433  13.932  68.504  1.00  0.00    -0.085 NA 
HETATM   10  N   UNL     1      -7.176  11.753  68.707  1.00  0.00    -0.109 NA 
HETATM   11  C   UNL     1     -10.319  14.934  66.814  1.00  0.00    -0.269 A  
HETATM   12  N   UNL     1      -9.251  11.040  67.857  1.00  0.00    -0.151 NA 
HETATM   13  H2  UNL     1      -6.823  14.715  69.028  1.00  0.00     0.000 HD 
HETATM   14  C   UNL     1      -8.085  10.798  68.470  1.00  0.00    -0.133 A  
HETATM   15  H1  UNL     1      -5.549  13.672  68.941  1.00  0.00     0.000 HD 
BRANCH  11  16
HETATM   16  O   UNL     1     -10.485  16.260  66.528  1.00  0.00    -0.301 OA 
HETATM   17  C   UNL     1      -9.375  17.139  66.617  1.00  0.00    -0.260 C  
ENDBRANCH  11  16
BRANCH  14  18
HETATM   18  N   UNL     1      -7.791   9.509  68.843  1.00  0.00    -0.079 NA 
HETATM   19  C   UNL     1      -6.590   9.248  69.607  1.00  0.00    -0.043 C  
BRANCH  18  20
HETATM   20  C   UNL     1      -8.757   8.444  68.629  1.00  0.00    -0.133 C  
BRANCH  20  21
HETATM   21  C   UNL     1      -9.972   8.588  69.555  1.00  0.00    -0.193 C  
BRANCH  21  22
HETATM   22  C   UNL     1      -9.633   8.289  71.016  1.00  0.00    -0.160 C  
BRANCH  22  23
HETATM   23  N   UNL     1     -10.293   7.092  71.494  1.00  0.00    -0.202 N  
HETATM   24  C   UNL     1      -9.642   5.888  71.618  1.00  0.00    -0.152 C  
HETATM   25  H   UNL     1     -11.279   7.145  71.750  1.00  0.00     0.000 HD 
HETATM   26  O   UNL     1      -8.465   5.723  71.311  1.00  0.00    -0.125 OA 
BRANCH  24  27
HETATM   27  C   UNL     1     -10.512   4.752  72.174  1.00  0.00    -0.175 C  
HETATM   28  C   UNL     1      -9.819   3.418  71.972  1.00  0.00    -0.239 C  
HETATM   29  C   UNL     1     -10.500   2.547  72.993  1.00  0.00    -0.245 C  
HETATM   30  C   UNL     1     -10.759   3.512  74.131  1.00  0.00    -0.187 C  
HETATM   31  O   UNL     1     -10.798   4.838  73.579  1.00  0.00    -0.241 OA 
ENDBRANCH  24  27
ENDBRANCH  22  23
ENDBRANCH  21  22
ENDBRANCH  20  21
ENDBRANCH  18  20
ENDBRANCH  14  18
ENDBRANCH   2   3
TORSDOF 8
ENDMDL
MODEL      277
REMARK 921   NORMALIZED FREE ENERGY PREDICTED BY IDOCK:   -2.94 KCAL/MOL
REMARK 922        TOTAL FREE ENERGY PREDICTED BY IDOCK:   -5.85 KCAL/MOL
REMARK 923 INTER-LIGAND FREE ENERGY PREDICTED BY IDOCK:   -5.22 KCAL/MOL
REMARK 924 INTRA-LIGAND FREE ENERGY PREDICTED BY IDOCK:   -0.63 KCAL/MOL
REMARK 927      BINDING AFFINITY PREDICTED BY RF-SCORE:    0.00 PKD
ROOT
HETATM    1  C   UNL     1     -12.234   6.515  70.960  1.00  0.00    -0.177 C  
HETATM    2  O   UNL     1     -10.830   6.363  70.751  1.00  0.00    -0.239 OA 
ENDROOT
BRANCH   2   3
HETATM    3  C   UNL     1     -10.310   7.093  69.714  1.00  0.00    -0.214 A  
HETATM    4  C   UNL     1     -10.041   8.466  69.854  1.00  0.00    -0.195 A  
HETATM    5  C   UNL     1      -9.627   9.261  68.797  1.00  0.00    -0.154 A  
HETATM    6  C   UNL     1      -9.413   8.659  67.566  1.00  0.00    -0.181 A  
HETATM    7  C   UNL     1      -9.564   7.257  67.434  1.00  0.00    -0.176 A  
HETATM    8  C   UNL     1      -9.067   9.540  66.543  1.00  0.00    -0.151 A  
HETATM    9  N   UNL     1      -8.758   9.089  65.255  1.00  0.00    -0.184 NA 
HETATM   10  N   UNL     1      -8.984  10.866  66.715  1.00  0.00    -0.148 NA 
HETATM   11  C   UNL     1     -10.023   6.468  68.495  1.00  0.00    -0.142 A  
HETATM   12  N   UNL     1      -9.479  10.572  68.997  1.00  0.00    -0.196 NA 
HETATM   13  H2  UNL     1      -9.539   8.520  64.927  1.00  0.00     0.000 HD 
HETATM   14  C   UNL     1      -9.191  11.351  67.946  1.00  0.00    -0.164 A  
HETATM   15  H1  UNL     1      -8.505   9.734  64.508  1.00  0.00     0.000 HD 
BRANCH  11  16
HETATM   16  O   UNL     1     -10.140   5.152  68.145  1.00  0.00    -0.160 OA 
HETATM   17  C   UNL     1      -9.562   4.699  66.931  1.00  0.00    -0.181 C  
ENDBRANCH  11  16
BRANCH  14  18
HETATM   18  N   UNL     1      -9.070  12.706  68.143  1.00  0.00    -0.202 NA 
HETATM   19  C   UNL     1      -9.984  13.377  69.041  1.00  0.00     0.169 C  
BRANCH  18  20
HETATM   20  C   UNL     1      -7.932  13.428  67.597  1.00  0.00    -0.174 C  
BRANCH  20  21
HETATM   21  C   UNL     1      -8.377  14.634  66.759  1.00  0.00    -0.078 C  
BRANCH  21  22
HETATM   22  C   UNL     1      -7.439  15.831  66.915  1.00  0.00    -0.169 C  
BRANCH  22  23
HETATM   23  N   UNL     1      -8.162  17.084  66.986  1.00  0.00    -0.193 N  
HETATM   24  C   UNL     1      -7.581  18.292  66.679  1.00  0.00    -0.233 C  
HETATM   25  H   UNL     1      -9.140  17.070  67.274  1.00  0.00     0.000 HD 
HETATM   26  O   UNL     1      -6.404  18.409  66.348  1.00  0.00    -0.169 OA 
BRANCH  24  27
HETATM   27  C   UNL     1      -8.527  19.495  66.786  1.00  0.00    -0.309 C  
HETATM   28  C   UNL     1      -9.866  19.162  66.154  1.00  0.00    -0.397 C  
HETATM   29  C   UNL     1     -10.780  20.172  66.793  1.00  0.00    -0.230 C  
HETATM   30  C   UNL     1     -10.204  20.304  68.188  1.00  0.00    -0.258 C  
HETATM   31  O   UNL     1      -8.821  19.919  68.126  1.00  0.00    -0.315 OA 
ENDBRANCH  24  27
ENDBRANCH  22  23
ENDBRANCH  21  22
ENDBRANCH  20  21
ENDBRANCH  18  20
ENDBRANCH  14  18
ENDBRANCH   2   3
TORSDOF 8
ENDMDL
MODEL      278
REMARK 921   NORMALIZED FREE ENERGY PREDICTED BY IDOCK:   -2.92 KCAL/MOL
REMARK 922        TOTAL FREE ENERGY PREDICTED BY IDOCK:   -5.83 KCAL/MOL
REMARK 923 INTER-LIGAND FREE ENERGY PREDICTED BY IDOCK:   -5.30 KCAL/MOL
REMARK 924 INTRA-LIGAND FREE ENERGY PREDICTED BY IDOCK:   -0.53 KCAL/MOL
REMARK 927      BINDING AFFINITY PREDICTED BY RF-SCORE:    0.00 PKD
ROOT
HETATM    1  C   UNL     1     -12.698  14.141  65.732  1.00  0.00    -0.413 C  
HETATM    2  O   UNL     1     -11.276  14.067  65.831  1.00  0.00    -0.303 OA 
ENDROOT
BRANCH   2   3
HETATM    3  C   UNL     1     -10.765  12.805  65.991  1.00  0.00    -0.272 A  
HETATM    4  C   UNL     1     -10.394  12.326  67.260  1.00  0.00    -0.228 A  
HETATM    5  C   UNL     1      -9.767  11.104  67.446  1.00  0.00    -0.173 A  
HETATM    6  C   UNL     1      -9.554  10.298  66.337  1.00  0.00    -0.233 A  
HETATM    7  C   UNL     1     -10.027  10.711  65.069  1.00  0.00    -0.369 A  
HETATM    8  C   UNL     1      -8.856   9.121  66.603  1.00  0.00    -0.128 A  
HETATM    9  N   UNL     1      -8.612   8.170  65.607  1.00  0.00    -0.158 NA 
HETATM   10  N   UNL     1      -8.391   8.804  67.818  1.00  0.00    -0.117 NA 
HETATM   11  C   UNL     1     -10.622  11.965  64.882  1.00  0.00    -0.287 A  
HETATM   12  N   UNL     1      -9.370  10.765  68.675  1.00  0.00    -0.177 NA 
HETATM   13  H2  UNL     1      -8.146   8.642  64.831  1.00  0.00     0.000 HD 
HETATM   14  C   UNL     1      -8.663   9.638  68.830  1.00  0.00    -0.132 A  
HETATM   15  H1  UNL     1      -8.102   7.309  65.802  1.00  0.00     0.000 HD 
BRANCH  11  16
HETATM   16  O   UNL     1     -10.964  12.182  63.577  1.00  0.00    -0.411 OA 
HETATM   17  C   UNL     1     -12.258  11.815  63.124  1.00  0.00    -0.156 C  
ENDBRANCH  11  16
BRANCH  14  18
HETATM   18  N   UNL     1      -8.225   9.302  70.088  1.00  0.00    -0.147 NA 
HETATM   19  C   UNL     1      -6.957   9.816  70.558  1.00  0.00    -0.126 C  
BRANCH  18  20
HETATM   20  C   UNL     1      -9.099   8.586  71.003  1.00  0.00    -0.179 C  
BRANCH  20  21
HETATM   21  C   UNL     1      -8.483   8.477  72.405  1.00  0.00    -0.196 C  
BRANCH  21  22
HETATM   22  C   UNL     1      -7.881   7.098  72.674  1.00  0.00    -0.095 C  
BRANCH  22  23
HETATM   23  N   UNL     1      -8.686   6.033  72.111  1.00  0.00    -0.132 N  
HETATM   24  C   UNL     1      -8.433   4.705  72.360  1.00  0.00    -0.115 C  
HETATM   25  H   UNL     1      -9.470   6.279  71.507  1.00  0.00     0.000 HD 
HETATM   26  O   UNL     1      -7.498   4.315  73.052  1.00  0.00    -0.075 OA 
BRANCH  24  27
HETATM   27  C   UNL     1      -9.422   3.738  71.695  1.00  0.00    -0.143 C  
HETATM   28  C   UNL     1      -8.733   2.972  70.581  1.00  0.00    -0.131 C  
HETATM   29  C   UNL     1      -9.623   1.769  70.422  1.00  0.00    -0.111 C  
HETATM   30  C   UNL     1     -10.082   1.508  71.842  1.00  0.00    -0.149 C  
HETATM   31  O   UNL     1      -9.980   2.743  72.568  1.00  0.00    -0.139 OA 
ENDBRANCH  24  27
ENDBRANCH  22  23
ENDBRANCH  21  22
ENDBRANCH  20  21
ENDBRANCH  18  20
ENDBRANCH  14  18
ENDBRANCH   2   3
TORSDOF 8
ENDMDL
MODEL      279
REMARK 921   NORMALIZED FREE ENERGY PREDICTED BY IDOCK:   -2.90 KCAL/MOL
REMARK 922        TOTAL FREE ENERGY PREDICTED BY IDOCK:   -5.79 KCAL/MOL
REMARK 923 INTER-LIGAND FREE ENERGY PREDICTED BY IDOCK:   -5.22 KCAL/MOL
REMARK 924 INTRA-LIGAND FREE ENERGY PREDICTED BY IDOCK:   -0.57 KCAL/MOL
REMARK 927      BINDING AFFINITY PREDICTED BY RF-SCORE:    0.00 PKD
ROOT
HETATM    1  C   UNL     1     -12.670  13.971  65.232  1.00  0.00    -0.439 C  
HETATM    2  O   UNL     1     -12.209  14.546  66.454  1.00  0.00    -0.373 OA 
ENDROOT
BRANCH   2   3
HETATM    3  C   UNL     1     -10.893  14.303  66.756  1.00  0.00    -0.298 A  
HETATM    4  C   UNL     1     -10.490  13.080  67.320  1.00  0.00    -0.238 A  
HETATM    5  C   UNL     1      -9.193  12.843  67.746  1.00  0.00    -0.200 A  
HETATM    6  C   UNL     1      -8.244  13.835  67.549  1.00  0.00    -0.194 A  
HETATM    7  C   UNL     1      -8.604  15.026  66.875  1.00  0.00    -0.280 A  
HETATM    8  C   UNL     1      -6.984  13.542  68.069  1.00  0.00    -0.133 A  
HETATM    9  N   UNL     1      -5.899  14.409  67.902  1.00  0.00    -0.211 NA 
HETATM   10  N   UNL     1      -6.713  12.415  68.740  1.00  0.00    -0.087 NA 
HETATM   11  C   UNL     1      -9.925  15.276  66.486  1.00  0.00    -0.265 A  
HETATM   12  N   UNL     1      -8.916  11.686  68.352  1.00  0.00    -0.181 NA 
HETATM   13  H2  UNL     1      -6.176  15.327  68.252  1.00  0.00     0.000 HD 
HETATM   14  C   UNL     1      -7.691  11.509  68.863  1.00  0.00    -0.088 A  
HETATM   15  H1  UNL     1      -4.978  14.194  68.283  1.00  0.00     0.000 HD 
BRANCH  11  16
HETATM   16  O   UNL     1     -10.064  16.500  65.893  1.00  0.00    -0.332 OA 
HETATM   17  C   UNL     1     -10.054  17.670  66.696  1.00  0.00    -0.335 C  
ENDBRANCH  11  16
BRANCH  14  18
HETATM   18  N   UNL     1      -7.412  10.332  69.516  1.00  0.00    -0.126 NA 
HETATM   19  C   UNL     1      -6.049   9.850  69.558  1.00  0.00    -0.044 C  
BRANCH  18  20
HETATM   20  C   UNL     1      -8.438   9.668  70.303  1.00  0.00    -0.188 C  
BRANCH  20  21
HETATM   21  C   UNL     1      -8.511   8.168  69.988  1.00  0.00    -0.128 C  
BRANCH  21  22
HETATM   22  C   UNL     1      -9.609   7.836  68.977  1.00  0.00    -0.155 C  
BRANCH  22  23
HETATM   23  N   UNL     1      -9.097   7.104  67.837  1.00  0.00    -0.129 N  
HETATM   24  C   UNL     1      -8.620   5.818  67.937  1.00  0.00    -0.101 C  
HETATM   25  H   UNL     1      -9.090   7.559  66.925  1.00  0.00     0.000 HD 
HETATM   26  O   UNL     1      -8.565   5.200  68.996  1.00  0.00    -0.090 OA 
BRANCH  24  27
HETATM   27  C   UNL     1      -8.154   5.211  66.607  1.00  0.00    -0.108 C  
HETATM   28  C   UNL     1      -8.279   3.699  66.651  1.00  0.00    -0.099 C  
HETATM   29  C   UNL     1      -8.307   3.339  65.191  1.00  0.00    -0.095 C  
HETATM   30  C   UNL     1      -9.052   4.506  64.576  1.00  0.00    -0.148 C  
HETATM   31  O   UNL     1      -8.897   5.633  65.453  1.00  0.00    -0.154 OA 
ENDBRANCH  24  27
ENDBRANCH  22  23
ENDBRANCH  21  22
ENDBRANCH  20  21
ENDBRANCH  18  20
ENDBRANCH  14  18
ENDBRANCH   2   3
TORSDOF 8
ENDMDL
MODEL      280
REMARK 921   NORMALIZED FREE ENERGY PREDICTED BY IDOCK:   -2.90 KCAL/MOL
REMARK 922        TOTAL FREE ENERGY PREDICTED BY IDOCK:   -5.79 KCAL/MOL
REMARK 923 INTER-LIGAND FREE ENERGY PREDICTED BY IDOCK:   -5.04 KCAL/MOL
REMARK 924 INTRA-LIGAND FREE ENERGY PREDICTED BY IDOCK:   -0.75 KCAL/MOL
REMARK 927      BINDING AFFINITY PREDICTED BY RF-SCORE:    0.00 PKD
ROOT
HETATM    1  C   UNL     1     -12.029  15.592  69.820  1.00  0.00    -0.354 C  
HETATM    2  O   UNL     1     -11.426  15.486  68.531  1.00  0.00    -0.328 OA 
ENDROOT
BRANCH   2   3
HETATM    3  C   UNL     1     -10.383  14.600  68.444  1.00  0.00    -0.237 A  
HETATM    4  C   UNL     1     -10.593  13.265  68.055  1.00  0.00    -0.249 A  
HETATM    5  C   UNL     1      -9.587  12.313  68.069  1.00  0.00    -0.206 A  
HETATM    6  C   UNL     1      -8.307  12.714  68.424  1.00  0.00    -0.125 A  
HETATM    7  C   UNL     1      -8.051  14.077  68.703  1.00  0.00    -0.113 A  
HETATM    8  C   UNL     1      -7.372  11.681  68.479  1.00  0.00    -0.102 A  
HETATM    9  N   UNL     1      -6.023  11.924  68.762  1.00  0.00    -0.050 NA 
HETATM   10  N   UNL     1      -7.683  10.399  68.249  1.00  0.00    -0.094 NA 
HETATM   11  C   UNL     1      -9.081  15.025  68.729  1.00  0.00    -0.197 A  
HETATM   12  N   UNL     1      -9.893  11.049  67.769  1.00  0.00    -0.171 NA 
HETATM   13  H2  UNL     1      -5.976  12.436  69.643  1.00  0.00     0.000 HD 
HETATM   14  C   UNL     1      -8.942  10.113  67.895  1.00  0.00    -0.128 A  
HETATM   15  H1  UNL     1      -5.340  11.168  68.802  1.00  0.00     0.000 HD 
BRANCH  11  16
HETATM   16  O   UNL     1      -8.626  16.270  69.063  1.00  0.00    -0.242 OA 
HETATM   17  C   UNL     1      -7.741  16.949  68.187  1.00  0.00    -0.187 C  
ENDBRANCH  11  16
BRANCH  14  18
HETATM   18  N   UNL     1      -9.262   8.806  67.618  1.00  0.00    -0.133 NA 
HETATM   19  C   UNL     1      -9.307   8.364  66.242  1.00  0.00    -0.219 C  
BRANCH  18  20
HETATM   20  C   UNL     1      -9.382   7.836  68.693  1.00  0.00    -0.148 C  
BRANCH  20  21
HETATM   21  C   UNL     1     -10.740   7.939  69.400  1.00  0.00    -0.174 C  
BRANCH  21  22
HETATM   22  C   UNL     1     -11.246   6.584  69.895  1.00  0.00    -0.395 C  
BRANCH  22  23
HETATM   23  N   UNL     1     -10.457   5.485  69.377  1.00  0.00    -0.284 N  
HETATM   24  C   UNL     1      -9.813   4.587  70.195  1.00  0.00    -0.226 C  
HETATM   25  H   UNL     1     -10.376   5.373  68.367  1.00  0.00     0.000 HD 
HETATM   26  O   UNL     1      -9.831   4.658  71.420  1.00  0.00    -0.175 OA 
BRANCH  24  27
HETATM   27  C   UNL     1      -9.057   3.480  69.448  1.00  0.00    -0.134 C  
HETATM   28  C   UNL     1      -9.583   3.356  68.030  1.00  0.00    -0.160 C  
HETATM   29  C   UNL     1      -8.445   2.666  67.327  1.00  0.00    -0.107 C  
HETATM   30  C   UNL     1      -7.229   3.241  68.023  1.00  0.00    -0.050 C  
HETATM   31  O   UNL     1      -7.641   3.687  69.325  1.00  0.00    -0.052 OA 
ENDBRANCH  24  27
ENDBRANCH  22  23
ENDBRANCH  21  22
ENDBRANCH  20  21
ENDBRANCH  18  20
ENDBRANCH  14  18
ENDBRANCH   2   3
TORSDOF 8
ENDMDL
MODEL      281
REMARK 921   NORMALIZED FREE ENERGY PREDICTED BY IDOCK:   -2.85 KCAL/MOL
REMARK 922        TOTAL FREE ENERGY PREDICTED BY IDOCK:   -5.72 KCAL/MOL
REMARK 923 INTER-LIGAND FREE ENERGY PREDICTED BY IDOCK:   -4.23 KCAL/MOL
REMARK 924 INTRA-LIGAND FREE ENERGY PREDICTED BY IDOCK:   -1.49 KCAL/MOL
REMARK 927      BINDING AFFINITY PREDICTED BY RF-SCORE:    0.00 PKD
ROOT
HETATM    1  C   UNL     1      -9.797  12.041  67.773  1.00  0.00    -0.190 C  
HETATM    2  O   UNL     1     -10.903  11.164  67.561  1.00  0.00    -0.219 OA 
ENDROOT
BRANCH   2   3
HETATM    3  C   UNL     1     -10.728   9.881  68.012  1.00  0.00    -0.248 A  
HETATM    4  C   UNL     1     -10.230   8.875  67.166  1.00  0.00    -0.339 A  
HETATM    5  C   UNL     1     -10.150   7.545  67.549  1.00  0.00    -0.200 A  
HETATM    6  C   UNL     1     -10.521   7.210  68.844  1.00  0.00    -0.218 A  
HETATM    7  C   UNL     1     -10.911   8.227  69.747  1.00  0.00    -0.186 A  
HETATM    8  C   UNL     1     -10.476   5.845  69.123  1.00  0.00    -0.270 A  
HETATM    9  N   UNL     1     -10.760   5.346  70.399  1.00  0.00    -0.251 NA 
HETATM   10  N   UNL     1     -10.142   4.922  68.212  1.00  0.00    -0.114 NA 
HETATM   11  C   UNL     1     -11.030   9.561  69.340  1.00  0.00    -0.170 A  
HETATM   12  N   UNL     1      -9.748   6.640  66.654  1.00  0.00    -0.171 NA 
HETATM   13  H2  UNL     1     -11.680   5.691  70.672  1.00  0.00     0.000 HD 
HETATM   14  C   UNL     1      -9.782   5.345  66.994  1.00  0.00    -0.149 A  
HETATM   15  H1  UNL     1     -10.727   4.347  70.603  1.00  0.00     0.000 HD 
BRANCH  11  16
HETATM   16  O   UNL     1     -11.463  10.371  70.353  1.00  0.00    -0.291 OA 
HETATM   17  C   UNL     1     -11.826   9.798  71.599  1.00  0.00    -0.354 C  
ENDBRANCH  11  16
BRANCH  14  18
HETATM   18  N   UNL     1      -9.399   4.409  66.064  1.00  0.00    -0.147 NA 
HETATM   19  C   UNL     1     -10.035   4.399  64.765  1.00  0.00    -0.091 C  
BRANCH  18  20
HETATM   20  C   UNL     1      -8.252   3.553  66.313  1.00  0.00    -0.100 C  
BRANCH  20  21
HETATM   21  C   UNL     1      -6.930   4.292  66.067  1.00  0.00    -0.066 C  
BRANCH  21  22
HETATM   22  C   UNL     1      -5.967   4.178  67.249  1.00  0.00    -0.024 C  
BRANCH  22  23
HETATM   23  N   UNL     1      -6.605   4.507  68.506  1.00  0.00    -0.044 N  
HETATM   24  C   UNL     1      -6.331   5.666  69.194  1.00  0.00    -0.033 C  
HETATM   25  H   UNL     1      -7.284   3.854  68.896  1.00  0.00     0.000 HD 
HETATM   26  O   UNL     1      -5.510   6.496  68.815  1.00  0.00    -0.014 OA 
BRANCH  24  27
HETATM   27  C   UNL     1      -7.138   5.839  70.487  1.00  0.00    -0.067 C  
HETATM   28  C   UNL     1      -6.321   5.372  71.678  1.00  0.00    -0.039 C  
HETATM   29  C   UNL     1      -6.995   6.077  72.824  1.00  0.00    -0.076 C  
HETATM   30  C   UNL     1      -7.415   7.393  72.201  1.00  0.00    -0.080 C  
HETATM   31  O   UNL     1      -7.528   7.189  70.784  1.00  0.00    -0.078 OA 
ENDBRANCH  24  27
ENDBRANCH  22  23
ENDBRANCH  21  22
ENDBRANCH  20  21
ENDBRANCH  18  20
ENDBRANCH  14  18
ENDBRANCH   2   3
TORSDOF 8
ENDMDL
MODEL      282
REMARK 921   NORMALIZED FREE ENERGY PREDICTED BY IDOCK:   -2.84 KCAL/MOL
REMARK 922        TOTAL FREE ENERGY PREDICTED BY IDOCK:   -5.71 KCAL/MOL
REMARK 923 INTER-LIGAND FREE ENERGY PREDICTED BY IDOCK:   -5.48 KCAL/MOL
REMARK 924 INTRA-LIGAND FREE ENERGY PREDICTED BY IDOCK:   -0.23 KCAL/MOL
REMARK 927      BINDING AFFINITY PREDICTED BY RF-SCORE:    0.00 PKD
ROOT
HETATM    1  C   UNL     1      -5.627  15.608  67.927  1.00  0.00    -0.138 C  
HETATM    2  O   UNL     1      -6.802  16.214  68.466  1.00  0.00    -0.127 OA 
ENDROOT
BRANCH   2   3
HETATM    3  C   UNL     1      -7.972  15.540  68.224  1.00  0.00    -0.132 A  
HETATM    4  C   UNL     1      -7.998  14.137  68.134  1.00  0.00    -0.143 A  
HETATM    5  C   UNL     1      -9.134  13.430  67.775  1.00  0.00    -0.202 A  
HETATM    6  C   UNL     1     -10.308  14.138  67.556  1.00  0.00    -0.248 A  
HETATM    7  C   UNL     1     -10.330  15.539  67.758  1.00  0.00    -0.263 A  
HETATM    8  C   UNL     1     -11.383  13.358  67.132  1.00  0.00    -0.315 A  
HETATM    9  N   UNL     1     -12.653  13.907  66.926  1.00  0.00    -0.438 NA 
HETATM   10  N   UNL     1     -11.290  12.040  66.913  1.00  0.00    -0.326 NA 
HETATM   11  C   UNL     1      -9.169  16.250  68.079  1.00  0.00    -0.196 A  
HETATM   12  N   UNL     1      -9.049  12.106  67.627  1.00  0.00    -0.175 NA 
HETATM   13  H2  UNL     1     -12.555  14.686  66.274  1.00  0.00     0.000 HD 
HETATM   14  C   UNL     1     -10.119  11.443  67.170  1.00  0.00    -0.198 A  
HETATM   15  H1  UNL     1     -13.439  13.336  66.616  1.00  0.00     0.000 HD 
BRANCH  11  16
HETATM   16  O   UNL     1      -9.401  17.593  68.185  1.00  0.00    -0.263 OA 
HETATM   17  C   UNL     1     -10.633  18.049  68.721  1.00  0.00    -0.028 C  
ENDBRANCH  11  16
BRANCH  14  18
HETATM   18  N   UNL     1     -10.025  10.085  66.986  1.00  0.00    -0.195 NA 
HETATM   19  C   UNL     1      -9.351   9.573  65.813  1.00  0.00    -0.233 C  
BRANCH  18  20
HETATM   20  C   UNL     1     -10.438   9.171  68.039  1.00  0.00    -0.224 C  
BRANCH  20  21
HETATM   21  C   UNL     1     -11.212   9.898  69.147  1.00  0.00    -0.151 C  
BRANCH  21  22
HETATM   22  C   UNL     1     -10.347  10.177  70.377  1.00  0.00    -0.114 C  
BRANCH  22  23
HETATM   23  N   UNL     1      -9.632   8.998  70.820  1.00  0.00    -0.227 N  
HETATM   24  C   UNL     1     -10.266   7.920  71.393  1.00  0.00    -0.190 C  
HETATM   25  H   UNL     1      -8.620   8.965  70.702  1.00  0.00     0.000 HD 
HETATM   26  O   UNL     1     -11.475   7.881  71.598  1.00  0.00    -0.250 OA 
BRANCH  24  27
HETATM   27  C   UNL     1      -9.331   6.760  71.762  1.00  0.00    -0.147 C  
HETATM   28  C   UNL     1      -8.762   6.972  73.152  1.00  0.00    -0.148 C  
HETATM   29  C   UNL     1      -8.345   5.579  73.541  1.00  0.00    -0.113 C  
HETATM   30  C   UNL     1      -9.407   4.720  72.886  1.00  0.00    -0.127 C  
HETATM   31  O   UNL     1      -9.951   5.465  71.784  1.00  0.00    -0.172 OA 
ENDBRANCH  24  27
ENDBRANCH  22  23
ENDBRANCH  21  22
ENDBRANCH  20  21
ENDBRANCH  18  20
ENDBRANCH  14  18
ENDBRANCH   2   3
TORSDOF 8
ENDMDL
MODEL      283
REMARK 921   NORMALIZED FREE ENERGY PREDICTED BY IDOCK:   -2.84 KCAL/MOL
REMARK 922        TOTAL FREE ENERGY PREDICTED BY IDOCK:   -5.70 KCAL/MOL
REMARK 923 INTER-LIGAND FREE ENERGY PREDICTED BY IDOCK:   -4.76 KCAL/MOL
REMARK 924 INTRA-LIGAND FREE ENERGY PREDICTED BY IDOCK:   -0.95 KCAL/MOL
REMARK 927      BINDING AFFINITY PREDICTED BY RF-SCORE:    0.00 PKD
ROOT
HETATM    1  C   UNL     1     -11.095  13.824  67.870  1.00  0.00    -0.264 C  
HETATM    2  O   UNL     1      -9.762  13.604  68.330  1.00  0.00    -0.224 OA 
ENDROOT
BRANCH   2   3
HETATM    3  C   UNL     1      -9.134  12.506  67.801  1.00  0.00    -0.191 A  
HETATM    4  C   UNL     1      -9.818  11.291  67.625  1.00  0.00    -0.190 A  
HETATM    5  C   UNL     1      -9.188  10.130  67.205  1.00  0.00    -0.138 A  
HETATM    6  C   UNL     1      -7.839  10.191  66.887  1.00  0.00    -0.107 A  
HETATM    7  C   UNL     1      -7.161  11.433  66.943  1.00  0.00    -0.142 A  
HETATM    8  C   UNL     1      -7.270   8.967  66.541  1.00  0.00    -0.085 A  
HETATM    9  N   UNL     1      -5.935   8.864  66.135  1.00  0.00    -0.054 NA 
HETATM   10  N   UNL     1      -7.952   7.814  66.550  1.00  0.00    -0.104 NA 
HETATM   11  C   UNL     1      -7.793  12.591  67.409  1.00  0.00    -0.175 A  
HETATM   12  N   UNL     1      -9.895   8.998  67.150  1.00  0.00    -0.186 NA 
HETATM   13  H2  UNL     1      -5.355   9.285  66.860  1.00  0.00     0.000 HD 
HETATM   14  C   UNL     1      -9.255   7.859  66.854  1.00  0.00    -0.155 A  
HETATM   15  H1  UNL     1      -5.520   7.968  65.882  1.00  0.00     0.000 HD 
BRANCH  11  16
HETATM   16  O   UNL     1      -6.949  13.666  67.426  1.00  0.00    -0.168 OA 
HETATM   17  C   UNL     1      -6.419  14.119  68.661  1.00  0.00    -0.090 C  
ENDBRANCH  11  16
BRANCH  14  18
HETATM   18  N   UNL     1      -9.973   6.688  66.827  1.00  0.00    -0.181 NA 
HETATM   19  C   UNL     1      -9.470   5.565  66.067  1.00  0.00    -0.130 C  
BRANCH  18  20
HETATM   20  C   UNL     1     -11.130   6.516  67.690  1.00  0.00    -0.287 C  
BRANCH  20  21
HETATM   21  C   UNL     1     -10.719   6.138  69.120  1.00  0.00    -0.381 C  
BRANCH  21  22
HETATM   22  C   UNL     1     -11.145   7.187  70.147  1.00  0.00    -0.272 C  
BRANCH  22  23
HETATM   23  N   UNL     1     -10.378   7.095  71.371  1.00  0.00    -0.197 N  
HETATM   24  C   UNL     1      -9.061   7.485  71.450  1.00  0.00    -0.137 C  
HETATM   25  H   UNL     1     -10.831   6.727  72.207  1.00  0.00     0.000 HD 
HETATM   26  O   UNL     1      -8.427   7.914  70.491  1.00  0.00    -0.122 OA 
BRANCH  24  27
HETATM   27  C   UNL     1      -8.440   7.336  72.846  1.00  0.00    -0.111 C  
HETATM   28  C   UNL     1      -7.008   6.849  72.729  1.00  0.00    -0.070 C  
HETATM   29  C   UNL     1      -6.422   7.262  74.053  1.00  0.00    -0.077 C  
HETATM   30  C   UNL     1      -7.142   8.563  74.341  1.00  0.00    -0.147 C  
HETATM   31  O   UNL     1      -8.382   8.546  73.617  1.00  0.00    -0.373 OA 
ENDBRANCH  24  27
ENDBRANCH  22  23
ENDBRANCH  21  22
ENDBRANCH  20  21
ENDBRANCH  18  20
ENDBRANCH  14  18
ENDBRANCH   2   3
TORSDOF 8
ENDMDL
MODEL      284
REMARK 921   NORMALIZED FREE ENERGY PREDICTED BY IDOCK:   -2.83 KCAL/MOL
REMARK 922        TOTAL FREE ENERGY PREDICTED BY IDOCK:   -5.69 KCAL/MOL
REMARK 923 INTER-LIGAND FREE ENERGY PREDICTED BY IDOCK:   -5.52 KCAL/MOL
REMARK 924 INTRA-LIGAND FREE ENERGY PREDICTED BY IDOCK:   -0.16 KCAL/MOL
REMARK 927      BINDING AFFINITY PREDICTED BY RF-SCORE:    0.00 PKD
ROOT
HETATM    1  C   UNL     1      -9.497   2.184  68.114  1.00  0.00    -0.166 C  
HETATM    2  O   UNL     1      -9.180   2.302  69.500  1.00  0.00    -0.106 OA 
ENDROOT
BRANCH   2   3
HETATM    3  C   UNL     1      -8.959   3.581  69.943  1.00  0.00    -0.107 A  
HETATM    4  C   UNL     1     -10.030   4.440  70.247  1.00  0.00    -0.248 A  
HETATM    5  C   UNL     1      -9.850   5.772  70.583  1.00  0.00    -0.187 A  
HETATM    6  C   UNL     1      -8.553   6.257  70.681  1.00  0.00    -0.139 A  
HETATM    7  C   UNL     1      -7.460   5.377  70.496  1.00  0.00    -0.072 A  
HETATM    8  C   UNL     1      -8.465   7.621  70.954  1.00  0.00    -0.124 A  
HETATM    9  N   UNL     1      -7.232   8.254  71.145  1.00  0.00    -0.059 NA 
HETATM   10  N   UNL     1      -9.536   8.415  71.075  1.00  0.00    -0.160 NA 
HETATM   11  C   UNL     1      -7.650   4.044  70.115  1.00  0.00    -0.045 A  
HETATM   12  N   UNL     1     -10.926   6.540  70.770  1.00  0.00    -0.259 NA 
HETATM   13  H2  UNL     1      -6.651   8.060  70.329  1.00  0.00     0.000 HD 
HETATM   14  C   UNL     1     -10.747   7.851  70.981  1.00  0.00    -0.220 A  
HETATM   15  H1  UNL     1      -7.168   9.252  71.345  1.00  0.00     0.000 HD 
BRANCH  11  16
HETATM   16  O   UNL     1      -6.465   3.383  69.945  1.00  0.00    -0.031 OA 
HETATM   17  C   UNL     1      -5.815   3.428  68.685  1.00  0.00    -0.023 C  
ENDBRANCH  11  16
BRANCH  14  18
HETATM   18  N   UNL     1     -11.854   8.650  71.143  1.00  0.00    -0.287 NA 
HETATM   19  C   UNL     1     -12.511   8.699  72.430  1.00  0.00    -0.362 C  
BRANCH  18  20
HETATM   20  C   UNL     1     -12.256   9.568  70.090  1.00  0.00     0.259 C  
BRANCH  20  21
HETATM   21  C   UNL     1     -11.045  10.118  69.326  1.00  0.00    -0.270 C  
BRANCH  21  22
HETATM   22  C   UNL     1     -11.443  10.818  68.026  1.00  0.00    -0.256 C  
BRANCH  22  23
HETATM   23  N   UNL     1     -11.574  12.250  68.197  1.00  0.00    -0.320 N  
HETATM   24  C   UNL     1     -11.577  13.125  67.136  1.00  0.00    -0.361 C  
HETATM   25  H   UNL     1     -11.669  12.625  69.141  1.00  0.00     0.000 HD 
HETATM   26  O   UNL     1     -11.443  12.769  65.969  1.00  0.00    -0.315 OA 
BRANCH  24  27
HETATM   27  C   UNL     1     -11.759  14.597  67.530  1.00  0.00    -0.379 C  
HETATM   28  C   UNL     1     -11.720  14.741  69.040  1.00  0.00    -0.343 C  
HETATM   29  C   UNL     1     -11.380  16.197  69.213  1.00  0.00    -0.328 C  
HETATM   30  C   UNL     1     -10.460  16.463  68.039  1.00  0.00    -0.303 C  
HETATM   31  O   UNL     1     -10.755  15.490  67.024  1.00  0.00    -0.314 OA 
ENDBRANCH  24  27
ENDBRANCH  22  23
ENDBRANCH  21  22
ENDBRANCH  20  21
ENDBRANCH  18  20
ENDBRANCH  14  18
ENDBRANCH   2   3
TORSDOF 8
ENDMDL
MODEL      285
REMARK 921   NORMALIZED FREE ENERGY PREDICTED BY IDOCK:   -2.80 KCAL/MOL
REMARK 922        TOTAL FREE ENERGY PREDICTED BY IDOCK:   -5.65 KCAL/MOL
REMARK 923 INTER-LIGAND FREE ENERGY PREDICTED BY IDOCK:   -4.69 KCAL/MOL
REMARK 924 INTRA-LIGAND FREE ENERGY PREDICTED BY IDOCK:   -0.96 KCAL/MOL
REMARK 927      BINDING AFFINITY PREDICTED BY RF-SCORE:    0.00 PKD
ROOT
HETATM    1  C   UNL     1     -11.028  15.400  69.945  1.00  0.00    -0.294 C  
HETATM    2  O   UNL     1     -10.812  15.470  68.536  1.00  0.00    -0.251 OA 
ENDROOT
BRANCH   2   3
HETATM    3  C   UNL     1      -9.770  14.714  68.064  1.00  0.00    -0.216 A  
HETATM    4  C   UNL     1      -9.986  13.437  67.519  1.00  0.00    -0.230 A  
HETATM    5  C   UNL     1      -8.950  12.598  67.141  1.00  0.00    -0.205 A  
HETATM    6  C   UNL     1      -7.649  13.067  67.253  1.00  0.00    -0.097 A  
HETATM    7  C   UNL     1      -7.417  14.394  67.688  1.00  0.00    -0.191 A  
HETATM    8  C   UNL     1      -6.668  12.136  66.919  1.00  0.00     0.006 A  
HETATM    9  N   UNL     1      -5.308  12.467  66.918  1.00  0.00    -0.381 NA 
HETATM   10  N   UNL     1      -6.945  10.876  66.557  1.00  0.00    -0.132 NA 
HETATM   11  C   UNL     1      -8.466  15.220  68.107  1.00  0.00    -0.151 A  
HETATM   12  N   UNL     1      -9.242  11.366  66.715  1.00  0.00    -0.172 NA 
HETATM   13  H2  UNL     1      -5.079  12.847  67.837  1.00  0.00     0.000 HD 
HETATM   14  C   UNL     1      -8.233  10.522  66.461  1.00  0.00    -0.133 A  
HETATM   15  H1  UNL     1      -4.591  11.785  66.674  1.00  0.00     0.000 HD 
BRANCH  11  16
HETATM   16  O   UNL     1      -8.021  16.442  68.530  1.00  0.00    -0.182 OA 
HETATM   17  C   UNL     1      -6.732  16.552  69.112  1.00  0.00    -0.213 C  
ENDBRANCH  11  16
BRANCH  14  18
HETATM   18  N   UNL     1      -8.530   9.244  66.052  1.00  0.00    -0.132 NA 
HETATM   19  C   UNL     1      -8.454   8.914  64.646  1.00  0.00    -0.168 C  
BRANCH  18  20
HETATM   20  C   UNL     1      -8.746   8.192  67.031  1.00  0.00    -0.131 C  
BRANCH  20  21
HETATM   21  C   UNL     1     -10.240   7.902  67.230  1.00  0.00    -0.343 C  
BRANCH  21  22
HETATM   22  C   UNL     1     -10.623   7.790  68.706  1.00  0.00    -0.135 C  
BRANCH  22  23
HETATM   23  N   UNL     1      -9.460   7.707  69.565  1.00  0.00    -0.153 N  
HETATM   24  C   UNL     1      -9.172   8.659  70.515  1.00  0.00    -0.175 C  
HETATM   25  H   UNL     1      -8.831   6.911  69.462  1.00  0.00     0.000 HD 
HETATM   26  O   UNL     1      -9.856   9.662  70.693  1.00  0.00    -0.265 OA 
BRANCH  24  27
HETATM   27  C   UNL     1      -7.913   8.366  71.342  1.00  0.00    -0.126 C  
HETATM   28  C   UNL     1      -7.950   6.941  71.862  1.00  0.00    -0.099 C  
HETATM   29  C   UNL     1      -6.499   6.671  72.155  1.00  0.00    -0.054 C  
HETATM   30  C   UNL     1      -5.791   7.445  71.062  1.00  0.00    -0.035 C  
HETATM   31  O   UNL     1      -6.674   8.490  70.626  1.00  0.00    -0.036 OA 
ENDBRANCH  24  27
ENDBRANCH  22  23
ENDBRANCH  21  22
ENDBRANCH  20  21
ENDBRANCH  18  20
ENDBRANCH  14  18
ENDBRANCH   2   3
TORSDOF 8
ENDMDL
MODEL      286
REMARK 921   NORMALIZED FREE ENERGY PREDICTED BY IDOCK:   -2.80 KCAL/MOL
REMARK 922        TOTAL FREE ENERGY PREDICTED BY IDOCK:   -5.65 KCAL/MOL
REMARK 923 INTER-LIGAND FREE ENERGY PREDICTED BY IDOCK:   -5.06 KCAL/MOL
REMARK 924 INTRA-LIGAND FREE ENERGY PREDICTED BY IDOCK:   -0.59 KCAL/MOL
REMARK 927      BINDING AFFINITY PREDICTED BY RF-SCORE:    0.00 PKD
ROOT
HETATM    1  C   UNL     1     -11.213  16.126  69.301  1.00  0.00    -0.337 C  
HETATM    2  O   UNL     1     -11.085  15.864  67.904  1.00  0.00    -0.331 OA 
ENDROOT
BRANCH   2   3
HETATM    3  C   UNL     1     -10.164  14.904  67.571  1.00  0.00    -0.233 A  
HETATM    4  C   UNL     1     -10.500  13.539  67.584  1.00  0.00    -0.239 A  
HETATM    5  C   UNL     1      -9.568  12.536  67.369  1.00  0.00    -0.192 A  
HETATM    6  C   UNL     1      -8.265  12.902  67.068  1.00  0.00    -0.086 A  
HETATM    7  C   UNL     1      -7.934  14.272  66.932  1.00  0.00     0.131 A  
HETATM    8  C   UNL     1      -7.379  11.833  66.935  1.00  0.00    -0.104 A  
HETATM    9  N   UNL     1      -6.042  12.027  66.573  1.00  0.00    -0.492 NA 
HETATM   10  N   UNL     1      -7.739  10.557  67.121  1.00  0.00    -0.099 NA 
HETATM   11  C   UNL     1      -8.870  15.279  67.193  1.00  0.00    -0.212 A  
HETATM   12  N   UNL     1      -9.954  11.263  67.487  1.00  0.00    -0.180 NA 
HETATM   13  H2  UNL     1      -5.633  12.692  67.229  1.00  0.00     0.000 HD 
HETATM   14  C   UNL     1      -9.026  10.302  67.391  1.00  0.00    -0.135 A  
HETATM   15  H1  UNL     1      -5.395  11.245  66.476  1.00  0.00     0.000 HD 
BRANCH  11  16
HETATM   16  O   UNL     1      -8.335  16.529  67.047  1.00  0.00    -0.165 OA 
HETATM   17  C   UNL     1      -7.932  17.254  68.198  1.00  0.00    -0.223 C  
ENDBRANCH  11  16
BRANCH  14  18
HETATM   18  N   UNL     1      -9.414   8.993  67.544  1.00  0.00    -0.135 NA 
HETATM   19  C   UNL     1      -9.541   8.150  66.376  1.00  0.00    -0.216 C  
BRANCH  18  20
HETATM   20  C   UNL     1      -9.524   8.410  68.871  1.00  0.00    -0.147 C  
BRANCH  20  21
HETATM   21  C   UNL     1     -10.974   8.421  69.375  1.00  0.00    -0.016 C  
BRANCH  21  22
HETATM   22  C   UNL     1     -11.109   9.071  70.753  1.00  0.00    -0.272 C  
BRANCH  22  23
HETATM   23  N   UNL     1      -9.976   8.780  71.606  1.00  0.00    -0.283 N  
HETATM   24  C   UNL     1      -9.719   7.518  72.089  1.00  0.00    -0.164 C  
HETATM   25  H   UNL     1      -9.344   9.540  71.859  1.00  0.00     0.000 HD 
HETATM   26  O   UNL     1     -10.436   6.549  71.860  1.00  0.00    -0.203 OA 
BRANCH  24  27
HETATM   27  C   UNL     1      -8.451   7.417  72.949  1.00  0.00    -0.114 C  
HETATM   28  C   UNL     1      -7.295   8.114  72.257  1.00  0.00    -0.122 C  
HETATM   29  C   UNL     1      -6.353   8.381  73.400  1.00  0.00    -0.124 C  
HETATM   30  C   UNL     1      -7.299   8.657  74.551  1.00  0.00    -0.120 C  
HETATM   31  O   UNL     1      -8.550   8.017  74.250  1.00  0.00    -0.247 OA 
ENDBRANCH  24  27
ENDBRANCH  22  23
ENDBRANCH  21  22
ENDBRANCH  20  21
ENDBRANCH  18  20
ENDBRANCH  14  18
ENDBRANCH   2   3
TORSDOF 8
ENDMDL
MODEL      287
REMARK 921   NORMALIZED FREE ENERGY PREDICTED BY IDOCK:   -2.78 KCAL/MOL
REMARK 922        TOTAL FREE ENERGY PREDICTED BY IDOCK:   -5.61 KCAL/MOL
REMARK 923 INTER-LIGAND FREE ENERGY PREDICTED BY IDOCK:   -5.20 KCAL/MOL
REMARK 924 INTRA-LIGAND FREE ENERGY PREDICTED BY IDOCK:   -0.41 KCAL/MOL
REMARK 927      BINDING AFFINITY PREDICTED BY RF-SCORE:    0.00 PKD
ROOT
HETATM    1  C   UNL     1      -6.910  15.869  69.698  1.00  0.00    -0.160 C  
HETATM    2  O   UNL     1      -6.743  15.509  68.327  1.00  0.00    -0.107 OA 
ENDROOT
BRANCH   2   3
HETATM    3  C   UNL     1      -7.755  14.755  67.792  1.00  0.00    -0.157 A  
HETATM    4  C   UNL     1      -7.514  13.462  67.294  1.00  0.00    -0.062 A  
HETATM    5  C   UNL     1      -8.484  12.718  66.641  1.00  0.00     0.056 A  
HETATM    6  C   UNL     1      -9.761  13.251  66.532  1.00  0.00    -0.273 A  
HETATM    7  C   UNL     1     -10.053  14.499  67.132  1.00  0.00    -0.252 A  
HETATM    8  C   UNL     1     -10.654  12.469  65.802  1.00  0.00    -0.270 A  
HETATM    9  N   UNL     1     -11.996  12.832  65.650  1.00  0.00    -0.431 NA 
HETATM   10  N   UNL     1     -10.307  11.315  65.216  1.00  0.00    -0.268 NA 
HETATM   11  C   UNL     1      -9.058  15.264  67.753  1.00  0.00    -0.182 A  
HETATM   12  N   UNL     1      -8.146  11.536  66.120  1.00  0.00    -0.022 NA 
HETATM   13  H2  UNL     1     -12.022  13.778  65.266  1.00  0.00     0.000 HD 
HETATM   14  C   UNL     1      -9.055  10.874  65.393  1.00  0.00    -0.198 A  
HETATM   15  H1  UNL     1     -12.649  12.260  65.115  1.00  0.00     0.000 HD 
BRANCH  11  16
HETATM   16  O   UNL     1      -9.542  16.452  68.225  1.00  0.00    -0.213 OA 
HETATM   17  C   UNL     1     -10.723  16.999  67.659  1.00  0.00    -0.295 C  
ENDBRANCH  11  16
BRANCH  14  18
HETATM   18  N   UNL     1      -8.701   9.672  64.829  1.00  0.00    -0.179 NA 
HETATM   19  C   UNL     1      -8.790   9.508  63.395  1.00  0.00    -0.214 C  
BRANCH  18  20
HETATM   20  C   UNL     1      -8.078   8.637  65.638  1.00  0.00    -0.110 C  
BRANCH  20  21
HETATM   21  C   UNL     1      -9.124   7.787  66.372  1.00  0.00    -0.216 C  
BRANCH  21  22
HETATM   22  C   UNL     1      -8.513   6.551  67.033  1.00  0.00    -0.113 C  
BRANCH  22  23
HETATM   23  N   UNL     1      -9.102   6.277  68.327  1.00  0.00    -0.115 N  
HETATM   24  C   UNL     1      -9.879   5.168  68.566  1.00  0.00    -0.155 C  
HETATM   25  H   UNL     1      -8.933   6.931  69.090  1.00  0.00     0.000 HD 
HETATM   26  O   UNL     1     -10.158   4.341  67.703  1.00  0.00    -0.076 OA 
BRANCH  24  27
HETATM   27  C   UNL     1     -10.380   5.047  70.012  1.00  0.00    -0.233 C  
HETATM   28  C   UNL     1      -9.203   4.963  70.966  1.00  0.00    -0.192 C  
HETATM   29  C   UNL     1      -9.822   5.379  72.273  1.00  0.00    -0.199 C  
HETATM   30  C   UNL     1     -10.841   6.414  71.842  1.00  0.00    -0.240 C  
HETATM   31  O   UNL     1     -11.181   6.147  70.472  1.00  0.00    -0.320 OA 
ENDBRANCH  24  27
ENDBRANCH  22  23
ENDBRANCH  21  22
ENDBRANCH  20  21
ENDBRANCH  18  20
ENDBRANCH  14  18
ENDBRANCH   2   3
TORSDOF 8
ENDMDL
MODEL      288
REMARK 921   NORMALIZED FREE ENERGY PREDICTED BY IDOCK:   -2.74 KCAL/MOL
REMARK 922        TOTAL FREE ENERGY PREDICTED BY IDOCK:   -5.56 KCAL/MOL
REMARK 923 INTER-LIGAND FREE ENERGY PREDICTED BY IDOCK:   -4.55 KCAL/MOL
REMARK 924 INTRA-LIGAND FREE ENERGY PREDICTED BY IDOCK:   -1.01 KCAL/MOL
REMARK 927      BINDING AFFINITY PREDICTED BY RF-SCORE:    0.00 PKD
ROOT
HETATM    1  C   UNL     1      -8.656   9.092  63.093  1.00  0.00    -0.181 C  
HETATM    2  O   UNL     1      -9.084  10.165  63.932  1.00  0.00    -0.217 OA 
ENDROOT
BRANCH   2   3
HETATM    3  C   UNL     1      -8.783  10.024  65.262  1.00  0.00    -0.163 A  
HETATM    4  C   UNL     1      -9.773   9.682  66.201  1.00  0.00    -0.317 A  
HETATM    5  C   UNL     1      -9.532   9.646  67.565  1.00  0.00    -0.134 A  
HETATM    6  C   UNL     1      -8.244   9.899  68.013  1.00  0.00    -0.113 A  
HETATM    7  C   UNL     1      -7.207  10.126  67.076  1.00  0.00    -0.091 A  
HETATM    8  C   UNL     1      -8.105   9.911  69.400  1.00  0.00    -0.139 A  
HETATM    9  N   UNL     1      -6.861  10.089  70.013  1.00  0.00    -0.108 NA 
HETATM   10  N   UNL     1      -9.133   9.734  70.240  1.00  0.00    -0.217 NA 
HETATM   11  C   UNL     1      -7.467  10.203  65.702  1.00  0.00    -0.144 A  
HETATM   12  N   UNL     1     -10.551   9.399  68.392  1.00  0.00    -0.219 NA 
HETATM   13  H2  UNL     1      -6.454  10.952  69.651  1.00  0.00     0.000 HD 
HETATM   14  C   UNL     1     -10.337   9.479  69.712  1.00  0.00    -0.230 A  
HETATM   15  H1  UNL     1      -6.760  10.098  71.028  1.00  0.00     0.000 HD 
BRANCH  11  16
HETATM   16  O   UNL     1      -6.338  10.475  64.980  1.00  0.00    -0.118 OA 
HETATM   17  C   UNL     1      -5.271   9.540  64.974  1.00  0.00    -0.045 C  
ENDBRANCH  11  16
BRANCH  14  18
HETATM   18  N   UNL     1     -11.391   9.256  70.565  1.00  0.00    -0.257 NA 
HETATM   19  C   UNL     1     -12.099  10.386  71.126  1.00  0.00    -0.386 C  
BRANCH  18  20
HETATM   20  C   UNL     1     -11.902   7.911  70.766  1.00  0.00    -0.176 C  
BRANCH  20  21
HETATM   21  C   UNL     1     -11.604   7.397  72.181  1.00  0.00    -0.331 C  
BRANCH  21  22
HETATM   22  C   UNL     1     -11.044   5.975  72.181  1.00  0.00    -0.279 C  
BRANCH  22  23
HETATM   23  N   UNL     1      -9.610   5.953  71.982  1.00  0.00    -0.150 N  
HETATM   24  C   UNL     1      -8.723   5.756  73.014  1.00  0.00    -0.123 C  
HETATM   25  H   UNL     1      -9.244   6.089  71.040  1.00  0.00     0.000 HD 
HETATM   26  O   UNL     1      -9.069   5.610  74.182  1.00  0.00    -0.122 OA 
BRANCH  24  27
HETATM   27  C   UNL     1      -7.249   5.736  72.585  1.00  0.00    -0.090 C  
HETATM   28  C   UNL     1      -7.120   6.188  71.143  1.00  0.00    -0.074 C  
HETATM   29  C   UNL     1      -5.677   6.611  71.069  1.00  0.00    -0.027 C  
HETATM   30  C   UNL     1      -5.430   7.186  72.448  1.00  0.00    -0.037 C  
HETATM   31  O   UNL     1      -6.384   6.595  73.345  1.00  0.00    -0.063 OA 
ENDBRANCH  24  27
ENDBRANCH  22  23
ENDBRANCH  21  22
ENDBRANCH  20  21
ENDBRANCH  18  20
ENDBRANCH  14  18
ENDBRANCH   2   3
TORSDOF 8
ENDMDL
MODEL      289
REMARK 921   NORMALIZED FREE ENERGY PREDICTED BY IDOCK:   -2.73 KCAL/MOL
REMARK 922        TOTAL FREE ENERGY PREDICTED BY IDOCK:   -5.55 KCAL/MOL
REMARK 923 INTER-LIGAND FREE ENERGY PREDICTED BY IDOCK:   -4.65 KCAL/MOL
REMARK 924 INTRA-LIGAND FREE ENERGY PREDICTED BY IDOCK:   -0.89 KCAL/MOL
REMARK 927      BINDING AFFINITY PREDICTED BY RF-SCORE:    0.00 PKD
ROOT
HETATM    1  C   UNL     1      -9.400  14.396  68.786  1.00  0.00    -0.150 C  
HETATM    2  O   UNL     1      -9.482  13.818  67.484  1.00  0.00    -0.208 OA 
ENDROOT
BRANCH   2   3
HETATM    3  C   UNL     1      -8.767  12.660  67.311  1.00  0.00    -0.198 A  
HETATM    4  C   UNL     1      -9.413  11.415  67.216  1.00  0.00    -0.176 A  
HETATM    5  C   UNL     1      -8.721  10.215  67.160  1.00  0.00    -0.129 A  
HETATM    6  C   UNL     1      -7.335  10.255  67.136  1.00  0.00    -0.091 A  
HETATM    7  C   UNL     1      -6.669  11.504  67.111  1.00  0.00    -0.129 A  
HETATM    8  C   UNL     1      -6.720   9.004  67.150  1.00  0.00    -0.066 A  
HETATM    9  N   UNL     1      -5.330   8.866  67.068  1.00  0.00    -0.039 NA 
HETATM   10  N   UNL     1      -7.401   7.853  67.221  1.00  0.00    -0.090 NA 
HETATM   11  C   UNL     1      -7.373  12.710  67.211  1.00  0.00    -0.104 A  
HETATM   12  N   UNL     1      -9.413   9.073  67.160  1.00  0.00    -0.146 NA 
HETATM   13  H2  UNL     1      -4.916   9.427  67.813  1.00  0.00     0.000 HD 
HETATM   14  C   UNL     1      -8.739   7.917  67.221  1.00  0.00    -0.131 A  
HETATM   15  H1  UNL     1      -4.881   7.951  67.078  1.00  0.00     0.000 HD 
BRANCH  11  16
HETATM   16  O   UNL     1      -6.539  13.793  67.213  1.00  0.00    -0.259 OA 
HETATM   17  C   UNL     1      -5.699  14.025  68.333  1.00  0.00    -0.104 C  
ENDBRANCH  11  16
BRANCH  14  18
HETATM   18  N   UNL     1      -9.449   6.741  67.253  1.00  0.00    -0.131 NA 
HETATM   19  C   UNL     1     -10.875   6.766  67.014  1.00  0.00    -0.383 C  
BRANCH  18  20
HETATM   20  C   UNL     1      -8.755   5.467  67.350  1.00  0.00    -0.107 C  
BRANCH  20  21
HETATM   21  C   UNL     1      -9.699   4.340  67.789  1.00  0.00    -0.179 C  
BRANCH  21  22
HETATM   22  C   UNL     1      -9.201   3.612  69.037  1.00  0.00    -0.159 C  
BRANCH  22  23
HETATM   23  N   UNL     1      -9.756   4.171  70.252  1.00  0.00    -0.203 N  
HETATM   24  C   UNL     1      -9.053   5.034  71.059  1.00  0.00    -0.141 C  
HETATM   25  H   UNL     1     -10.706   3.914  70.520  1.00  0.00     0.000 HD 
HETATM   26  O   UNL     1      -7.898   5.378  70.832  1.00  0.00    -0.094 OA 
BRANCH  24  27
HETATM   27  C   UNL     1      -9.835   5.535  72.281  1.00  0.00    -0.161 C  
HETATM   28  C   UNL     1      -8.939   6.392  73.157  1.00  0.00    -0.133 C  
HETATM   29  C   UNL     1      -9.938   7.193  73.948  1.00  0.00    -0.360 C  
HETATM   30  C   UNL     1     -11.059   7.401  72.951  1.00  0.00    -0.349 C  
HETATM   31  O   UNL     1     -10.981   6.347  71.979  1.00  0.00    -0.230 OA 
ENDBRANCH  24  27
ENDBRANCH  22  23
ENDBRANCH  21  22
ENDBRANCH  20  21
ENDBRANCH  18  20
ENDBRANCH  14  18
ENDBRANCH   2   3
TORSDOF 8
ENDMDL
MODEL      290
REMARK 921   NORMALIZED FREE ENERGY PREDICTED BY IDOCK:   -2.59 KCAL/MOL
REMARK 922        TOTAL FREE ENERGY PREDICTED BY IDOCK:   -5.35 KCAL/MOL
REMARK 923 INTER-LIGAND FREE ENERGY PREDICTED BY IDOCK:   -4.77 KCAL/MOL
REMARK 924 INTRA-LIGAND FREE ENERGY PREDICTED BY IDOCK:   -0.58 KCAL/MOL
REMARK 927      BINDING AFFINITY PREDICTED BY RF-SCORE:    0.00 PKD
ROOT
HETATM    1  C   UNL     1     -10.515  13.681  66.433  1.00  0.00    -0.288 C  
HETATM    2  O   UNL     1      -9.419  12.779  66.287  1.00  0.00    -0.243 OA 
ENDROOT
BRANCH   2   3
HETATM    3  C   UNL     1      -9.681  11.478  66.629  1.00  0.00    -0.199 A  
HETATM    4  C   UNL     1     -10.442  11.166  67.770  1.00  0.00    -0.225 A  
HETATM    5  C   UNL     1     -10.629   9.866  68.213  1.00  0.00    -0.229 A  
HETATM    6  C   UNL     1     -10.092   8.831  67.462  1.00  0.00    -0.281 A  
HETATM    7  C   UNL     1      -9.425   9.118  66.247  1.00  0.00    -0.299 A  
HETATM    8  C   UNL     1     -10.267   7.563  68.016  1.00  0.00    -0.195 A  
HETATM    9  N   UNL     1      -9.839   6.407  67.355  1.00  0.00    -0.125 NA 
HETATM   10  N   UNL     1     -10.867   7.355  69.195  1.00  0.00    -0.162 NA 
HETATM   11  C   UNL     1      -9.204  10.435  65.828  1.00  0.00    -0.174 A  
HETATM   12  N   UNL     1     -11.291   9.665  69.355  1.00  0.00    -0.074 NA 
HETATM   13  H2  UNL     1      -8.849   6.519  67.137  1.00  0.00     0.000 HD 
HETATM   14  C   UNL     1     -11.370   8.418  69.838  1.00  0.00     0.067 A  
HETATM   15  H1  UNL     1      -9.967   5.480  67.760  1.00  0.00     0.000 HD 
BRANCH  11  16
HETATM   16  O   UNL     1      -8.504  10.491  64.655  1.00  0.00    -0.174 OA 
HETATM   17  C   UNL     1      -7.876   9.319  64.160  1.00  0.00    -0.125 C  
ENDBRANCH  11  16
BRANCH  14  18
HETATM   18  N   UNL     1     -12.023   8.211  71.029  1.00  0.00    -0.276 NA 
HETATM   19  C   UNL     1     -12.202   6.860  71.514  1.00  0.00    -0.371 C  
BRANCH  18  20
HETATM   20  C   UNL     1     -12.374   9.337  71.878  1.00  0.00    -0.382 C  
BRANCH  20  21
HETATM   21  C   UNL     1     -13.694   9.986  71.441  1.00  0.00    -0.159 C  
BRANCH  21  22
HETATM   22  C   UNL     1     -14.050  11.211  72.283  1.00  0.00     0.859 C  
BRANCH  22  23
HETATM   23  N   UNL     1     -13.055  12.256  72.173  1.00  0.00    -0.391 N  
HETATM   24  C   UNL     1     -13.310  13.561  72.522  1.00  0.00    -0.513 C  
HETATM   25  H   UNL     1     -12.128  12.016  71.822  1.00  0.00     0.000 HD 
HETATM   26  O   UNL     1     -14.402  13.949  72.927  1.00  0.00    -0.389 OA 
BRANCH  24  27
HETATM   27  C   UNL     1     -12.112  14.506  72.360  1.00  0.00    -0.094 C  
HETATM   28  C   UNL     1     -12.367  15.483  71.227  1.00  0.00    -0.468 C  
HETATM   29  C   UNL     1     -11.412  16.601  71.548  1.00  0.00     0.066 C  
HETATM   30  C   UNL     1     -11.418  16.617  73.063  1.00  0.00     0.512 C  
HETATM   31  O   UNL     1     -11.811  15.310  73.511  1.00  0.00    -0.435 OA 
ENDBRANCH  24  27
ENDBRANCH  22  23
ENDBRANCH  21  22
ENDBRANCH  20  21
ENDBRANCH  18  20
ENDBRANCH  14  18
ENDBRANCH   2   3
TORSDOF 8
ENDMDL
MODEL      291
REMARK 921   NORMALIZED FREE ENERGY PREDICTED BY IDOCK:   -2.59 KCAL/MOL
REMARK 922        TOTAL FREE ENERGY PREDICTED BY IDOCK:   -5.34 KCAL/MOL
REMARK 923 INTER-LIGAND FREE ENERGY PREDICTED BY IDOCK:   -4.39 KCAL/MOL
REMARK 924 INTRA-LIGAND FREE ENERGY PREDICTED BY IDOCK:   -0.96 KCAL/MOL
REMARK 927      BINDING AFFINITY PREDICTED BY RF-SCORE:    0.00 PKD
ROOT
HETATM    1  C   UNL     1      -9.854  18.056  66.462  1.00  0.00    -0.353 C  
HETATM    2  O   UNL     1      -8.427  18.056  66.470  1.00  0.00    -0.255 OA 
ENDROOT
BRANCH   2   3
HETATM    3  C   UNL     1      -7.846  17.139  67.307  1.00  0.00    -0.178 A  
HETATM    4  C   UNL     1      -7.736  15.786  66.939  1.00  0.00    -0.254 A  
HETATM    5  C   UNL     1      -7.263  14.811  67.802  1.00  0.00    -0.176 A  
HETATM    6  C   UNL     1      -6.825  15.201  69.060  1.00  0.00    -0.122 A  
HETATM    7  C   UNL     1      -6.816  16.574  69.404  1.00  0.00    -0.220 A  
HETATM    8  C   UNL     1      -6.433  14.151  69.887  1.00  0.00    -0.119 A  
HETATM    9  N   UNL     1      -5.907  14.377  71.164  1.00  0.00    -0.189 NA 
HETATM   10  N   UNL     1      -6.506  12.864  69.523  1.00  0.00    -0.104 NA 
HETATM   11  C   UNL     1      -7.335  17.548  68.543  1.00  0.00    -0.243 A  
HETATM   12  N   UNL     1      -7.275  13.537  67.403  1.00  0.00    -0.146 NA 
HETATM   13  H2  UNL     1      -6.576  14.949  71.681  1.00  0.00     0.000 HD 
HETATM   14  C   UNL     1      -6.926  12.588  68.281  1.00  0.00    -0.089 A  
HETATM   15  H1  UNL     1      -5.620  13.608  71.769  1.00  0.00     0.000 HD 
BRANCH  11  16
HETATM   16  O   UNL     1      -7.271  18.801  69.086  1.00  0.00    -0.291 OA 
HETATM   17  C   UNL     1      -6.100  19.582  68.907  1.00  0.00    -0.247 C  
ENDBRANCH  11  16
BRANCH  14  18
HETATM   18  N   UNL     1      -6.967  11.274  67.883  1.00  0.00    -0.071 NA 
HETATM   19  C   UNL     1      -6.460  10.912  66.578  1.00  0.00    -0.128 C  
BRANCH  18  20
HETATM   20  C   UNL     1      -7.351  10.234  68.824  1.00  0.00    -0.086 C  
BRANCH  20  21
HETATM   21  C   UNL     1      -8.685  10.556  69.511  1.00  0.00    -0.040 C  
BRANCH  21  22
HETATM   22  C   UNL     1      -9.891  10.179  68.652  1.00  0.00    -0.162 C  
BRANCH  22  23
HETATM   23  N   UNL     1      -9.774  10.678  67.298  1.00  0.00    -0.166 N  
HETATM   24  C   UNL     1      -9.856   9.858  66.198  1.00  0.00    -0.260 C  
HETATM   25  H   UNL     1      -9.624  11.677  67.155  1.00  0.00     0.000 HD 
HETATM   26  O   UNL     1     -10.008   8.642  66.273  1.00  0.00    -0.277 OA 
BRANCH  24  27
HETATM   27  C   UNL     1      -9.738  10.589  64.853  1.00  0.00    -0.300 C  
HETATM   28  C   UNL     1      -9.144   9.664  63.807  1.00  0.00    -0.220 C  
HETATM   29  C   UNL     1      -9.584  10.312  62.522  1.00  0.00    -0.217 C  
HETATM   30  C   UNL     1     -10.947  10.866  62.881  1.00  0.00     0.835 C  
HETATM   31  O   UNL     1     -10.980  11.056  64.305  1.00  0.00    -0.309 OA 
ENDBRANCH  24  27
ENDBRANCH  22  23
ENDBRANCH  21  22
ENDBRANCH  20  21
ENDBRANCH  18  20
ENDBRANCH  14  18
ENDBRANCH   2   3
TORSDOF 8
ENDMDL
MODEL      292
REMARK 921   NORMALIZED FREE ENERGY PREDICTED BY IDOCK:   -2.53 KCAL/MOL
REMARK 922        TOTAL FREE ENERGY PREDICTED BY IDOCK:   -5.25 KCAL/MOL
REMARK 923 INTER-LIGAND FREE ENERGY PREDICTED BY IDOCK:   -5.64 KCAL/MOL
REMARK 924 INTRA-LIGAND FREE ENERGY PREDICTED BY IDOCK:    0.39 KCAL/MOL
REMARK 927      BINDING AFFINITY PREDICTED BY RF-SCORE:    0.00 PKD
ROOT
HETATM    1  C   UNL     1      -5.399  17.861  68.191  1.00  0.00    -0.151 C  
HETATM    2  O   UNL     1      -5.899  16.609  67.721  1.00  0.00    -0.117 OA 
ENDROOT
BRANCH   2   3
HETATM    3  C   UNL     1      -7.190  16.321  68.082  1.00  0.00    -0.142 A  
HETATM    4  C   UNL     1      -7.646  14.993  68.153  1.00  0.00    -0.113 A  
HETATM    5  C   UNL     1      -8.971  14.668  68.399  1.00  0.00    -0.180 A  
HETATM    6  C   UNL     1      -9.867  15.699  68.645  1.00  0.00    -0.210 A  
HETATM    7  C   UNL     1      -9.402  17.035  68.696  1.00  0.00    -0.270 A  
HETATM    8  C   UNL     1     -11.188  15.288  68.813  1.00  0.00    -0.287 A  
HETATM    9  N   UNL     1     -12.205  16.195  69.129  1.00  0.00    -0.287 NA 
HETATM   10  N   UNL     1     -11.578  14.011  68.708  1.00  0.00    -0.307 NA 
HETATM   11  C   UNL     1      -8.072  17.358  68.405  1.00  0.00    -0.264 A  
HETATM   12  N   UNL     1      -9.336  13.384  68.361  1.00  0.00    -0.195 NA 
HETATM   13  H2  UNL     1     -12.194  16.935  68.426  1.00  0.00     0.000 HD 
HETATM   14  C   UNL     1     -10.636  13.086  68.486  1.00  0.00    -0.258 A  
HETATM   15  H1  UNL     1     -13.172  15.895  69.252  1.00  0.00     0.000 HD 
BRANCH  11  16
HETATM   16  O   UNL     1      -7.844  18.705  68.467  1.00  0.00    -0.310 OA 
HETATM   17  C   UNL     1      -8.503  19.567  67.553  1.00  0.00    -0.302 C  
ENDBRANCH  11  16
BRANCH  14  18
HETATM   18  N   UNL     1     -11.019  11.768  68.416  1.00  0.00    -0.216 NA 
HETATM   19  C   UNL     1     -11.554  11.121  69.594  1.00  0.00    -0.326 C  
BRANCH  18  20
HETATM   20  C   UNL     1     -11.054  11.081  67.136  1.00  0.00    -0.267 C  
BRANCH  20  21
HETATM   21  C   UNL     1      -9.670  10.550  66.740  1.00  0.00    -0.220 C  
BRANCH  21  22
HETATM   22  C   UNL     1      -9.596  10.149  65.267  1.00  0.00    -0.277 C  
BRANCH  22  23
HETATM   23  N   UNL     1      -8.807   8.953  65.066  1.00  0.00    -0.324 N  
HETATM   24  C   UNL     1      -8.505   8.467  63.815  1.00  0.00     0.027 C  
HETATM   25  H   UNL     1      -8.460   8.451  65.883  1.00  0.00     0.000 HD 
HETATM   26  O   UNL     1      -8.899   8.988  62.776  1.00  0.00    -0.200 OA 
BRANCH  24  27
HETATM   27  C   UNL     1      -7.630   7.206  63.821  1.00  0.00    -0.109 C  
HETATM   28  C   UNL     1      -7.682   6.541  65.184  1.00  0.00    -0.097 C  
HETATM   29  C   UNL     1      -7.252   5.134  64.869  1.00  0.00    -0.063 C  
HETATM   30  C   UNL     1      -7.840   4.908  63.492  1.00  0.00    -0.081 C  
HETATM   31  O   UNL     1      -8.016   6.195  62.876  1.00  0.00    -0.098 OA 
ENDBRANCH  24  27
ENDBRANCH  22  23
ENDBRANCH  21  22
ENDBRANCH  20  21
ENDBRANCH  18  20
ENDBRANCH  14  18
ENDBRANCH   2   3
TORSDOF 8
ENDMDL
MODEL      293
REMARK 921   NORMALIZED FREE ENERGY PREDICTED BY IDOCK:   -2.45 KCAL/MOL
REMARK 922        TOTAL FREE ENERGY PREDICTED BY IDOCK:   -5.13 KCAL/MOL
REMARK 923 INTER-LIGAND FREE ENERGY PREDICTED BY IDOCK:   -3.40 KCAL/MOL
REMARK 924 INTRA-LIGAND FREE ENERGY PREDICTED BY IDOCK:   -1.73 KCAL/MOL
REMARK 927      BINDING AFFINITY PREDICTED BY RF-SCORE:    0.00 PKD
ROOT
HETATM    1  C   UNL     1     -12.754  10.989  69.616  1.00  0.00     0.124 C  
HETATM    2  O   UNL     1     -11.700  11.331  68.716  1.00  0.00    -0.295 OA 
ENDROOT
BRANCH   2   3
HETATM    3  C   UNL     1     -10.457  10.875  69.070  1.00  0.00    -0.219 A  
HETATM    4  C   UNL     1     -10.291   9.960  70.125  1.00  0.00    -0.336 A  
HETATM    5  C   UNL     1      -9.045   9.567  70.587  1.00  0.00    -0.174 A  
HETATM    6  C   UNL     1      -7.919  10.053  69.938  1.00  0.00    -0.184 A  
HETATM    7  C   UNL     1      -8.068  10.880  68.800  1.00  0.00    -0.145 A  
HETATM    8  C   UNL     1      -6.709   9.664  70.511  1.00  0.00    -0.119 A  
HETATM    9  N   UNL     1      -5.480  10.017  69.943  1.00  0.00    -0.037 NA 
HETATM   10  N   UNL     1      -6.629   8.916  71.619  1.00  0.00    -0.121 NA 
HETATM   11  C   UNL     1      -9.328  11.307  68.365  1.00  0.00    -0.181 A  
HETATM   12  N   UNL     1      -8.978   8.763  71.651  1.00  0.00    -0.254 NA 
HETATM   13  H2  UNL     1      -5.464  11.032  69.838  1.00  0.00     0.000 HD 
HETATM   14  C   UNL     1      -7.773   8.479  72.163  1.00  0.00    -0.078 A  
HETATM   15  H1  UNL     1      -4.595   9.732  70.362  1.00  0.00     0.000 HD 
BRANCH  11  16
HETATM   16  O   UNL     1      -9.245  12.133  67.279  1.00  0.00    -0.175 OA 
HETATM   17  C   UNL     1      -8.427  11.763  66.181  1.00  0.00     0.048 C  
ENDBRANCH  11  16
BRANCH  14  18
HETATM   18  N   UNL     1      -7.702   7.678  73.277  1.00  0.00    -0.105 NA 
HETATM   19  C   UNL     1      -8.373   8.090  74.490  1.00  0.00    -0.134 C  
BRANCH  18  20
HETATM   20  C   UNL     1      -7.111   6.353  73.192  1.00  0.00    -0.082 C  
BRANCH  20  21
HETATM   21  C   UNL     1      -7.907   5.438  72.251  1.00  0.00    -0.103 C  
BRANCH  21  22
HETATM   22  C   UNL     1      -7.174   5.172  70.936  1.00  0.00    -0.064 C  
BRANCH  22  23
HETATM   23  N   UNL     1      -7.390   6.228  69.968  1.00  0.00    -0.080 N  
HETATM   24  C   UNL     1      -7.757   5.975  68.668  1.00  0.00    -0.095 C  
HETATM   25  H   UNL     1      -7.264   7.196  70.263  1.00  0.00     0.000 HD 
HETATM   26  O   UNL     1      -7.906   4.843  68.217  1.00  0.00    -0.081 OA 
BRANCH  24  27
HETATM   27  C   UNL     1      -7.967   7.233  67.814  1.00  0.00    -0.115 C  
HETATM   28  C   UNL     1      -6.652   7.665  67.191  1.00  0.00    -0.063 C  
HETATM   29  C   UNL     1      -7.110   8.512  66.035  1.00  0.00    -0.076 C  
HETATM   30  C   UNL     1      -8.381   7.813  65.596  1.00  0.00    -0.139 C  
HETATM   31  O   UNL     1      -8.887   7.080  66.722  1.00  0.00    -0.117 OA 
ENDBRANCH  24  27
ENDBRANCH  22  23
ENDBRANCH  21  22
ENDBRANCH  20  21
ENDBRANCH  18  20
ENDBRANCH  14  18
ENDBRANCH   2   3
TORSDOF 8
ENDMDL
MODEL      294
REMARK 921   NORMALIZED FREE ENERGY PREDICTED BY IDOCK:   -2.37 KCAL/MOL
REMARK 922        TOTAL FREE ENERGY PREDICTED BY IDOCK:   -5.01 KCAL/MOL
REMARK 923 INTER-LIGAND FREE ENERGY PREDICTED BY IDOCK:   -4.39 KCAL/MOL
REMARK 924 INTRA-LIGAND FREE ENERGY PREDICTED BY IDOCK:   -0.62 KCAL/MOL
REMARK 927      BINDING AFFINITY PREDICTED BY RF-SCORE:    0.00 PKD
ROOT
HETATM    1  C   UNL     1      -5.292  19.109  69.098  1.00  0.00    -0.197 C  
HETATM    2  O   UNL     1      -6.144  18.297  69.906  1.00  0.00    -0.233 OA 
ENDROOT
BRANCH   2   3
HETATM    3  C   UNL     1      -6.957  17.435  69.217  1.00  0.00    -0.175 A  
HETATM    4  C   UNL     1      -6.853  16.043  69.389  1.00  0.00    -0.215 A  
HETATM    5  C   UNL     1      -7.573  15.138  68.626  1.00  0.00    -0.127 A  
HETATM    6  C   UNL     1      -8.479  15.633  67.698  1.00  0.00    -0.169 A  
HETATM    7  C   UNL     1      -8.684  17.029  67.595  1.00  0.00    -0.216 A  
HETATM    8  C   UNL     1      -9.108  14.657  66.927  1.00  0.00    -0.252 A  
HETATM    9  N   UNL     1     -10.093  14.983  65.988  1.00  0.00    -0.282 NA 
HETATM   10  N   UNL     1      -8.839  13.350  67.037  1.00  0.00    -0.223 NA 
HETATM   11  C   UNL     1      -7.923  17.938  68.338  1.00  0.00    -0.298 A  
HETATM   12  N   UNL     1      -7.348  13.833  68.793  1.00  0.00    -0.109 NA 
HETATM   13  H2  UNL     1      -9.701  15.679  65.353  1.00  0.00     0.000 HD 
HETATM   14  C   UNL     1      -7.962  12.968  67.975  1.00  0.00    -0.155 A  
HETATM   15  H1  UNL     1     -10.553  14.269  65.424  1.00  0.00     0.000 HD 
BRANCH  11  16
HETATM   16  O   UNL     1      -8.249  19.235  68.055  1.00  0.00    -0.291 OA 
HETATM   17  C   UNL     1      -9.473  19.520  67.397  1.00  0.00    -0.321 C  
ENDBRANCH  11  16
BRANCH  14  18
HETATM   18  N   UNL     1      -7.709  11.626  68.124  1.00  0.00    -0.114 NA 
HETATM   19  C   UNL     1      -8.768  10.749  68.572  1.00  0.00    -0.149 C  
BRANCH  18  20
HETATM   20  C   UNL     1      -6.448  11.062  67.670  1.00  0.00    -0.060 C  
BRANCH  20  21
HETATM   21  C   UNL     1      -6.284  11.192  66.150  1.00  0.00    -0.071 C  
BRANCH  21  22
HETATM   22  C   UNL     1      -7.097  10.149  65.383  1.00  0.00    -0.143 C  
BRANCH  22  23
HETATM   23  N   UNL     1      -7.121   8.870  66.062  1.00  0.00    -0.087 N  
HETATM   24  C   UNL     1      -7.755   7.767  65.540  1.00  0.00    -0.100 C  
HETATM   25  H   UNL     1      -6.650   8.784  66.962  1.00  0.00     0.000 HD 
HETATM   26  O   UNL     1      -8.369   7.783  64.478  1.00  0.00    -0.104 OA 
BRANCH  24  27
HETATM   27  C   UNL     1      -7.635   6.503  66.401  1.00  0.00    -0.090 C  
HETATM   28  C   UNL     1      -7.215   5.325  65.542  1.00  0.00    -0.068 C  
HETATM   29  C   UNL     1      -6.649   4.373  66.560  1.00  0.00    -0.049 C  
HETATM   30  C   UNL     1      -6.010   5.307  67.567  1.00  0.00    -0.026 C  
HETATM   31  O   UNL     1      -6.670   6.579  67.462  1.00  0.00    -0.061 OA 
ENDBRANCH  24  27
ENDBRANCH  22  23
ENDBRANCH  21  22
ENDBRANCH  20  21
ENDBRANCH  18  20
ENDBRANCH  14  18
ENDBRANCH   2   3
TORSDOF 8
ENDMDL
MODEL      295
REMARK 921   NORMALIZED FREE ENERGY PREDICTED BY IDOCK:   -2.27 KCAL/MOL
REMARK 922        TOTAL FREE ENERGY PREDICTED BY IDOCK:   -4.87 KCAL/MOL
REMARK 923 INTER-LIGAND FREE ENERGY PREDICTED BY IDOCK:   -4.32 KCAL/MOL
REMARK 924 INTRA-LIGAND FREE ENERGY PREDICTED BY IDOCK:   -0.55 KCAL/MOL
REMARK 927      BINDING AFFINITY PREDICTED BY RF-SCORE:    0.00 PKD
ROOT
HETATM    1  C   UNL     1      -9.633  12.507  67.945  1.00  0.00    -0.206 C  
HETATM    2  O   UNL     1     -10.903  11.962  68.303  1.00  0.00    -0.203 OA 
ENDROOT
BRANCH   2   3
HETATM    3  C   UNL     1     -10.857  10.778  68.994  1.00  0.00    -0.235 A  
HETATM    4  C   UNL     1     -10.290   9.625  68.424  1.00  0.00    -0.233 A  
HETATM    5  C   UNL     1     -10.331   8.385  69.043  1.00  0.00    -0.218 A  
HETATM    6  C   UNL     1     -10.903   8.298  70.304  1.00  0.00    -0.241 A  
HETATM    7  C   UNL     1     -11.373   9.470  70.944  1.00  0.00    -0.410 A  
HETATM    8  C   UNL     1     -10.966   7.005  70.822  1.00  0.00    -0.255 A  
HETATM    9  N   UNL     1     -11.458   6.751  72.107  1.00  0.00    -0.271 NA 
HETATM   10  N   UNL     1     -10.547   5.925  70.149  1.00  0.00    -0.266 NA 
HETATM   11  C   UNL     1     -11.366  10.710  70.295  1.00  0.00    -0.319 A  
HETATM   12  N   UNL     1      -9.846   7.325  68.392  1.00  0.00    -0.152 NA 
HETATM   13  H2  UNL     1     -12.391   7.159  72.171  1.00  0.00     0.000 HD 
HETATM   14  C   UNL     1      -9.992   6.114  68.945  1.00  0.00    -0.152 A  
HETATM   15  H1  UNL     1     -11.503   5.805  72.485  1.00  0.00     0.000 HD 
BRANCH  11  16
HETATM   16  O   UNL     1     -11.904  11.699  71.072  1.00  0.00    -0.094 OA 
HETATM   17  C   UNL     1     -13.076  11.435  71.825  1.00  0.00    -0.418 C  
ENDBRANCH  11  16
BRANCH  14  18
HETATM   18  N   UNL     1      -9.523   5.017  68.264  1.00  0.00    -0.127 NA 
HETATM   19  C   UNL     1     -10.147   3.729  68.477  1.00  0.00     0.488 C  
BRANCH  18  20
HETATM   20  C   UNL     1      -8.531   5.174  67.213  1.00  0.00    -0.106 C  
BRANCH  20  21
HETATM   21  C   UNL     1      -9.146   5.772  65.940  1.00  0.00    -0.148 C  
BRANCH  21  22
HETATM   22  C   UNL     1      -8.086   6.283  64.964  1.00  0.00    -0.136 C  
BRANCH  22  23
HETATM   23  N   UNL     1      -7.360   7.419  65.493  1.00  0.00    -0.072 N  
HETATM   24  C   UNL     1      -7.397   8.661  64.903  1.00  0.00    -0.090 C  
HETATM   25  H   UNL     1      -6.800   7.293  66.335  1.00  0.00     0.000 HD 
HETATM   26  O   UNL     1      -8.022   8.900  63.874  1.00  0.00    -0.137 OA 
BRANCH  24  27
HETATM   27  C   UNL     1      -6.584   9.735  65.639  1.00  0.00    -0.087 C  
HETATM   28  C   UNL     1      -7.397  10.311  66.783  1.00  0.00    -0.106 C  
HETATM   29  C   UNL     1      -6.331  10.899  67.668  1.00  0.00    -0.055 C  
HETATM   30  C   UNL     1      -5.182   9.929  67.490  1.00  0.00    -0.035 C  
HETATM   31  O   UNL     1      -5.356   9.273  66.224  1.00  0.00    -0.039 OA 
ENDBRANCH  24  27
ENDBRANCH  22  23
ENDBRANCH  21  22
ENDBRANCH  20  21
ENDBRANCH  18  20
ENDBRANCH  14  18
ENDBRANCH   2   3
TORSDOF 8
ENDMDL
MODEL      296
REMARK 921   NORMALIZED FREE ENERGY PREDICTED BY IDOCK:   -2.18 KCAL/MOL
REMARK 922        TOTAL FREE ENERGY PREDICTED BY IDOCK:   -4.74 KCAL/MOL
REMARK 923 INTER-LIGAND FREE ENERGY PREDICTED BY IDOCK:   -4.07 KCAL/MOL
REMARK 924 INTRA-LIGAND FREE ENERGY PREDICTED BY IDOCK:   -0.67 KCAL/MOL
REMARK 927      BINDING AFFINITY PREDICTED BY RF-SCORE:    0.00 PKD
ROOT
HETATM    1  C   UNL     1      -8.664   8.871  63.077  1.00  0.00    -0.064 C  
HETATM    2  O   UNL     1      -8.138  10.082  63.620  1.00  0.00    -0.144 OA 
ENDROOT
BRANCH   2   3
HETATM    3  C   UNL     1      -8.159  10.168  64.988  1.00  0.00    -0.149 A  
HETATM    4  C   UNL     1      -9.296  10.637  65.670  1.00  0.00    -0.239 A  
HETATM    5  C   UNL     1      -9.314  10.849  67.039  1.00  0.00    -0.163 A  
HETATM    6  C   UNL     1      -8.180  10.526  67.770  1.00  0.00    -0.107 A  
HETATM    7  C   UNL     1      -7.068   9.941  67.118  1.00  0.00    -0.085 A  
HETATM    8  C   UNL     1      -8.259  10.835  69.127  1.00  0.00    -0.120 A  
HETATM    9  N   UNL     1      -7.226  10.518  70.015  1.00  0.00    -0.272 NA 
HETATM   10  N   UNL     1      -9.323  11.432  69.682  1.00  0.00     0.734 NA 
HETATM   11  C   UNL     1      -7.041   9.770  65.729  1.00  0.00    -0.104 A  
HETATM   12  N   UNL     1     -10.407  11.379  67.593  1.00  0.00    -0.179 NA 
HETATM   13  H2  UNL     1      -6.365  10.926  69.651  1.00  0.00     0.000 HD 
HETATM   14  C   UNL     1     -10.377  11.688  68.897  1.00  0.00    -0.153 A  
HETATM   15  H1  UNL     1      -7.285  10.745  71.008  1.00  0.00     0.000 HD 
BRANCH  11  16
HETATM   16  O   UNL     1      -5.860   9.232  65.300  1.00  0.00    -0.059 OA 
HETATM   17  C   UNL     1      -5.290   9.682  64.081  1.00  0.00    -0.065 C  
ENDBRANCH  11  16
BRANCH  14  18
HETATM   18  N   UNL     1     -11.489  12.263  69.464  1.00  0.00    -0.269 NA 
HETATM   19  C   UNL     1     -11.535  13.699  69.634  1.00  0.00    -0.221 C  
BRANCH  18  20
HETATM   20  C   UNL     1     -12.674  11.466  69.728  1.00  0.00     0.148 C  
BRANCH  20  21
HETATM   21  C   UNL     1     -12.734  11.008  71.192  1.00  0.00    -0.521 C  
BRANCH  21  22
HETATM   22  C   UNL     1     -13.244   9.574  71.335  1.00  0.00    -0.372 C  
BRANCH  22  23
HETATM   23  N   UNL     1     -12.203   8.598  71.090  1.00  0.00    -0.392 N  
HETATM   24  C   UNL     1     -11.539   7.954  72.106  1.00  0.00    -0.328 C  
HETATM   25  H   UNL     1     -11.954   8.380  70.125  1.00  0.00     0.000 HD 
HETATM   26  O   UNL     1     -11.752   8.171  73.295  1.00  0.00    -0.136 OA 
BRANCH  24  27
HETATM   27  C   UNL     1     -10.494   6.934  71.632  1.00  0.00    -0.204 C  
HETATM   28  C   UNL     1     -10.264   7.079  70.140  1.00  0.00    -0.206 C  
HETATM   29  C   UNL     1      -8.915   6.436  69.961  1.00  0.00    -0.146 C  
HETATM   30  C   UNL     1      -8.200   6.805  71.245  1.00  0.00    -0.119 C  
HETATM   31  O   UNL     1      -9.201   7.060  72.243  1.00  0.00    -0.134 OA 
ENDBRANCH  24  27
ENDBRANCH  22  23
ENDBRANCH  21  22
ENDBRANCH  20  21
ENDBRANCH  18  20
ENDBRANCH  14  18
ENDBRANCH   2   3
TORSDOF 8
ENDMDL
MODEL      297
REMARK 921   NORMALIZED FREE ENERGY PREDICTED BY IDOCK:   -2.12 KCAL/MOL
REMARK 922        TOTAL FREE ENERGY PREDICTED BY IDOCK:   -4.65 KCAL/MOL
REMARK 923 INTER-LIGAND FREE ENERGY PREDICTED BY IDOCK:   -5.00 KCAL/MOL
REMARK 924 INTRA-LIGAND FREE ENERGY PREDICTED BY IDOCK:    0.35 KCAL/MOL
REMARK 927      BINDING AFFINITY PREDICTED BY RF-SCORE:    0.00 PKD
ROOT
HETATM    1  C   UNL     1     -12.887  13.141  64.934  1.00  0.00    -0.280 C  
HETATM    2  O   UNL     1     -12.548  13.649  66.224  1.00  0.00    -0.391 OA 
ENDROOT
BRANCH   2   3
HETATM    3  C   UNL     1     -11.206  13.689  66.504  1.00  0.00    -0.310 A  
HETATM    4  C   UNL     1     -10.517  12.540  66.930  1.00  0.00    -0.244 A  
HETATM    5  C   UNL     1      -9.192  12.567  67.334  1.00  0.00    -0.186 A  
HETATM    6  C   UNL     1      -8.505  13.770  67.255  1.00  0.00    -0.204 A  
HETATM    7  C   UNL     1      -9.147  14.911  66.716  1.00  0.00    -0.295 A  
HETATM    8  C   UNL     1      -7.201  13.724  67.745  1.00  0.00    -0.163 A  
HETATM    9  N   UNL     1      -6.352  14.835  67.683  1.00  0.00    -0.269 NA 
HETATM   10  N   UNL     1      -6.660  12.625  68.287  1.00  0.00    -0.071 NA 
HETATM   11  C   UNL     1     -10.498  14.886  66.350  1.00  0.00    -0.299 A  
HETATM   12  N   UNL     1      -8.640  11.448  67.807  1.00  0.00    -0.125 NA 
HETATM   13  H2  UNL     1      -6.828  15.618  68.132  1.00  0.00     0.000 HD 
HETATM   14  C   UNL     1      -7.397  11.507  68.302  1.00  0.00    -0.091 A  
HETATM   15  H1  UNL     1      -5.398  14.801  68.042  1.00  0.00     0.000 HD 
BRANCH  11  16
HETATM   16  O   UNL     1     -10.931  16.101  65.898  1.00  0.00    -0.212 OA 
HETATM   17  C   UNL     1     -11.208  16.274  64.518  1.00  0.00    -0.207 C  
ENDBRANCH  11  16
BRANCH  14  18
HETATM   18  N   UNL     1      -6.837  10.364  68.819  1.00  0.00    -0.057 NA 
HETATM   19  C   UNL     1      -6.314  10.378  70.168  1.00  0.00    -0.123 C  
BRANCH  18  20
HETATM   20  C   UNL     1      -6.927   9.109  68.092  1.00  0.00    -0.076 C  
BRANCH  20  21
HETATM   21  C   UNL     1      -8.310   8.462  68.247  1.00  0.00    -0.131 C  
BRANCH  21  22
HETATM   22  C   UNL     1      -8.530   7.880  69.643  1.00  0.00    -0.132 C  
BRANCH  22  23
HETATM   23  N   UNL     1      -8.364   6.442  69.667  1.00  0.00    -0.125 N  
HETATM   24  C   UNL     1      -8.933   5.616  68.727  1.00  0.00    -0.115 C  
HETATM   25  H   UNL     1      -7.803   6.026  70.410  1.00  0.00     0.000 HD 
HETATM   26  O   UNL     1      -9.644   6.023  67.814  1.00  0.00    -0.112 OA 
BRANCH  24  27
HETATM   27  C   UNL     1      -8.609   4.128  68.914  1.00  0.00    -0.084 C  
HETATM   28  C   UNL     1      -9.351   3.579  70.118  1.00  0.00    -0.244 C  
HETATM   29  C   UNL     1      -9.357   2.100  69.843  1.00  0.00    -0.168 C  
HETATM   30  C   UNL     1      -9.478   2.044  68.334  1.00  0.00    -0.168 C  
HETATM   31  O   UNL     1      -8.974   3.283  67.810  1.00  0.00    -0.119 OA 
ENDBRANCH  24  27
ENDBRANCH  22  23
ENDBRANCH  21  22
ENDBRANCH  20  21
ENDBRANCH  18  20
ENDBRANCH  14  18
ENDBRANCH   2   3
TORSDOF 8
ENDMDL
MODEL      298
REMARK 921   NORMALIZED FREE ENERGY PREDICTED BY IDOCK:   -1.94 KCAL/MOL
REMARK 922        TOTAL FREE ENERGY PREDICTED BY IDOCK:   -4.39 KCAL/MOL
REMARK 923 INTER-LIGAND FREE ENERGY PREDICTED BY IDOCK:   -3.88 KCAL/MOL
REMARK 924 INTRA-LIGAND FREE ENERGY PREDICTED BY IDOCK:   -0.50 KCAL/MOL
REMARK 927      BINDING AFFINITY PREDICTED BY RF-SCORE:    0.00 PKD
ROOT
HETATM    1  C   UNL     1      -9.481   8.192  73.208  1.00  0.00    -0.220 C  
HETATM    2  O   UNL     1      -9.458   9.052  72.069  1.00  0.00    -0.339 OA 
ENDROOT
BRANCH   2   3
HETATM    3  C   UNL     1      -8.745   8.583  70.996  1.00  0.00    -0.173 A  
HETATM    4  C   UNL     1      -9.143   7.422  70.310  1.00  0.00    -0.151 A  
HETATM    5  C   UNL     1      -8.385   6.853  69.298  1.00  0.00    -0.129 A  
HETATM    6  C   UNL     1      -7.218   7.494  68.909  1.00  0.00    -0.082 A  
HETATM    7  C   UNL     1      -6.864   8.728  69.506  1.00  0.00    -0.048 A  
HETATM    8  C   UNL     1      -6.483   6.819  67.937  1.00  0.00    -0.050 A  
HETATM    9  N   UNL     1      -5.314   7.359  67.391  1.00  0.00    -0.024 NA 
HETATM   10  N   UNL     1      -6.845   5.629  67.440  1.00  0.00    -0.059 NA 
HETATM   11  C   UNL     1      -7.611   9.274  70.556  1.00  0.00    -0.139 A  
HETATM   12  N   UNL     1      -8.792   5.700  68.761  1.00  0.00    -0.109 NA 
HETATM   13  H2  UNL     1      -4.683   7.581  68.161  1.00  0.00     0.000 HD 
HETATM   14  C   UNL     1      -7.999   5.097  67.866  1.00  0.00    -0.095 A  
HETATM   15  H1  UNL     1      -4.777   6.864  66.679  1.00  0.00     0.000 HD 
BRANCH  11  16
HETATM   16  O   UNL     1      -7.072  10.443  71.017  1.00  0.00    -0.113 OA 
HETATM   17  C   UNL     1      -5.977  11.027  70.329  1.00  0.00    -0.139 C  
ENDBRANCH  11  16
BRANCH  14  18
HETATM   18  N   UNL     1      -8.399   3.895  67.334  1.00  0.00    -0.097 NA 
HETATM   19  C   UNL     1      -7.717   2.683  67.728  1.00  0.00    -0.060 C  
BRANCH  18  20
HETATM   20  C   UNL     1      -9.603   3.816  66.523  1.00  0.00    -0.169 C  
BRANCH  20  21
HETATM   21  C   UNL     1      -9.918   5.156  65.845  1.00  0.00    -0.145 C  
BRANCH  21  22
HETATM   22  C   UNL     1      -8.734   5.700  65.045  1.00  0.00    -0.064 C  
BRANCH  22  23
HETATM   23  N   UNL     1      -8.590   7.133  65.191  1.00  0.00    -0.344 N  
HETATM   24  C   UNL     1      -7.944   7.910  64.259  1.00  0.00    -0.130 C  
HETATM   25  H   UNL     1      -8.982   7.584  66.017  1.00  0.00     0.000 HD 
HETATM   26  O   UNL     1      -7.418   7.453  63.248  1.00  0.00    -0.086 OA 
BRANCH  24  27
HETATM   27  C   UNL     1      -7.929   9.409  64.586  1.00  0.00    -0.124 C  
HETATM   28  C   UNL     1      -9.342   9.903  64.836  1.00  0.00    -0.329 C  
HETATM   29  C   UNL     1      -9.105  11.161  65.627  1.00  0.00    -0.221 C  
HETATM   30  C   UNL     1      -7.881  10.811  66.447  1.00  0.00    -0.148 C  
HETATM   31  O   UNL     1      -7.175   9.769  65.755  1.00  0.00    -0.096 OA 
ENDBRANCH  24  27
ENDBRANCH  22  23
ENDBRANCH  21  22
ENDBRANCH  20  21
ENDBRANCH  18  20
ENDBRANCH  14  18
ENDBRANCH   2   3
TORSDOF 8
ENDMDL
MODEL      299
REMARK 921   NORMALIZED FREE ENERGY PREDICTED BY IDOCK:   -1.88 KCAL/MOL
REMARK 922        TOTAL FREE ENERGY PREDICTED BY IDOCK:   -4.29 KCAL/MOL
REMARK 923 INTER-LIGAND FREE ENERGY PREDICTED BY IDOCK:   -4.25 KCAL/MOL
REMARK 924 INTRA-LIGAND FREE ENERGY PREDICTED BY IDOCK:   -0.05 KCAL/MOL
REMARK 927      BINDING AFFINITY PREDICTED BY RF-SCORE:    0.00 PKD
ROOT
HETATM    1  C   UNL     1      -8.548   4.760  68.866  1.00  0.00    -0.084 C  
HETATM    2  O   UNL     1      -7.633   5.838  69.067  1.00  0.00    -0.085 OA 
ENDROOT
BRANCH   2   3
HETATM    3  C   UNL     1      -7.668   6.821  68.111  1.00  0.00    -0.109 A  
HETATM    4  C   UNL     1      -7.476   8.171  68.451  1.00  0.00    -0.100 A  
HETATM    5  C   UNL     1      -7.620   9.202  67.535  1.00  0.00    -0.088 A  
HETATM    6  C   UNL     1      -7.907   8.876  66.217  1.00  0.00    -0.102 A  
HETATM    7  C   UNL     1      -7.986   7.516  65.832  1.00  0.00    -0.117 A  
HETATM    8  C   UNL     1      -8.104   9.973  65.380  1.00  0.00    -0.143 A  
HETATM    9  N   UNL     1      -8.341   9.819  64.010  1.00  0.00    -0.155 NA 
HETATM   10  N   UNL     1      -8.062  11.240  65.811  1.00  0.00     0.025 NA 
HETATM   11  C   UNL     1      -7.881   6.483  66.770  1.00  0.00    -0.104 A  
HETATM   12  N   UNL     1      -7.506  10.462  67.961  1.00  0.00    -0.089 NA 
HETATM   13  H2  UNL     1      -9.139   9.193  63.899  1.00  0.00     0.000 HD 
HETATM   14  C   UNL     1      -7.760  11.454  67.098  1.00  0.00    -0.152 A  
HETATM   15  H1  UNL     1      -8.485  10.622  63.398  1.00  0.00     0.000 HD 
BRANCH  11  16
HETATM   16  O   UNL     1      -8.031   5.251  66.198  1.00  0.00    -0.102 OA 
HETATM   17  C   UNL     1      -7.016   4.750  65.343  1.00  0.00    -0.062 C  
ENDBRANCH  11  16
BRANCH  14  18
HETATM   18  N   UNL     1      -7.674  12.752  67.542  1.00  0.00    -0.157 NA 
HETATM   19  C   UNL     1      -6.435  13.479  67.374  1.00  0.00     0.034 C  
BRANCH  18  20
HETATM   20  C   UNL     1      -8.861  13.446  68.013  1.00  0.00    -0.183 C  
BRANCH  20  21
HETATM   21  C   UNL     1      -8.643  14.964  68.074  1.00  0.00    -0.160 C  
BRANCH  21  22
HETATM   22  C   UNL     1      -9.910  15.751  67.737  1.00  0.00    -0.224 C  
BRANCH  22  23
HETATM   23  N   UNL     1      -9.622  17.129  67.401  1.00  0.00    -0.244 N  
HETATM   24  C   UNL     1      -9.753  17.623  66.125  1.00  0.00    -0.213 C  
HETATM   25  H   UNL     1      -9.310  17.759  68.140  1.00  0.00     0.000 HD 
HETATM   26  O   UNL     1     -10.097  16.935  65.168  1.00  0.00    -0.484 OA 
BRANCH  24  27
HETATM   27  C   UNL     1      -9.430  19.117  65.988  1.00  0.00    -0.138 C  
HETATM   28  C   UNL     1      -9.660  19.824  67.311  1.00  0.00    -0.480 C  
HETATM   29  C   UNL     1      -8.827  21.068  67.157  1.00  0.00     0.002 C  
HETATM   30  C   UNL     1      -7.649  20.579  66.340  1.00  0.00    -0.116 C  
HETATM   31  O   UNL     1      -8.075  19.414  65.615  1.00  0.00    -0.414 OA 
ENDBRANCH  24  27
ENDBRANCH  22  23
ENDBRANCH  21  22
ENDBRANCH  20  21
ENDBRANCH  18  20
ENDBRANCH  14  18
ENDBRANCH   2   3
TORSDOF 8
ENDMDL
MODEL      300
REMARK 921   NORMALIZED FREE ENERGY PREDICTED BY IDOCK:   -1.67 KCAL/MOL
REMARK 922        TOTAL FREE ENERGY PREDICTED BY IDOCK:   -3.99 KCAL/MOL
REMARK 923 INTER-LIGAND FREE ENERGY PREDICTED BY IDOCK:   -3.54 KCAL/MOL
REMARK 924 INTRA-LIGAND FREE ENERGY PREDICTED BY IDOCK:   -0.45 KCAL/MOL
REMARK 927      BINDING AFFINITY PREDICTED BY RF-SCORE:    0.00 PKD
ROOT
HETATM    1  C   UNL     1      -6.303   6.428  66.774  1.00  0.00    -0.041 C  
HETATM    2  O   UNL     1      -7.524   6.631  67.485  1.00  0.00    -0.092 OA 
ENDROOT
BRANCH   2   3
HETATM    3  C   UNL     1      -7.920   7.938  67.608  1.00  0.00    -0.124 A  
HETATM    4  C   UNL     1      -8.779   8.530  66.665  1.00  0.00    -0.139 A  
HETATM    5  C   UNL     1      -9.106   9.877  66.691  1.00  0.00    -0.147 A  
HETATM    6  C   UNL     1      -8.610  10.655  67.727  1.00  0.00    -0.123 A  
HETATM    7  C   UNL     1      -7.841  10.052  68.751  1.00  0.00    -0.094 A  
HETATM    8  C   UNL     1      -8.929  12.009  67.637  1.00  0.00    -0.172 A  
HETATM    9  N   UNL     1      -8.558  12.919  68.633  1.00  0.00    -0.365 NA 
HETATM   10  N   UNL     1      -9.622  12.532  66.618  1.00  0.00    -0.234 NA 
HETATM   11  C   UNL     1      -7.480   8.701  68.696  1.00  0.00    -0.096 A  
HETATM   12  N   UNL     1      -9.857  10.375  65.706  1.00  0.00    -0.224 NA 
HETATM   13  H2  UNL     1      -7.550  12.844  68.766  1.00  0.00     0.000 HD 
HETATM   14  C   UNL     1     -10.074  11.696  65.674  1.00  0.00    -0.240 A  
HETATM   15  H1  UNL     1      -8.792  13.910  68.567  1.00  0.00     0.000 HD 
BRANCH  11  16
HETATM   16  O   UNL     1      -6.701   8.332  69.757  1.00  0.00    -0.039 OA 
HETATM   17  C   UNL     1      -7.063   7.198  70.529  1.00  0.00    -0.063 C  
ENDBRANCH  11  16
BRANCH  14  18
HETATM   18  N   UNL     1     -10.821  12.217  64.644  1.00  0.00    -0.294 NA 
HETATM   19  C   UNL     1     -10.215  12.379  63.341  1.00  0.00    -0.213 C  
BRANCH  18  20
HETATM   20  C   UNL     1     -12.247  12.438  64.811  1.00  0.00    -0.423 C  
BRANCH  20  21
HETATM   21  C   UNL     1     -12.679  13.799  64.249  1.00  0.00    -0.032 C  
BRANCH  21  22
HETATM   22  C   UNL     1     -13.176  14.750  65.338  1.00  0.00     0.643 C  
BRANCH  22  23
HETATM   23  N   UNL     1     -12.204  15.777  65.650  1.00  0.00     0.969 N  
HETATM   24  C   UNL     1     -11.253  15.623  66.631  1.00  0.00    -0.067 C  
HETATM   25  H   UNL     1     -12.225  16.649  65.121  1.00  0.00     0.000 HD 
HETATM   26  O   UNL     1     -11.168  14.621  67.335  1.00  0.00    -0.317 OA 
BRANCH  24  27
HETATM   27  C   UNL     1     -10.299  16.815  66.781  1.00  0.00    -0.293 C  
HETATM   28  C   UNL     1     -10.490  17.784  65.628  1.00  0.00    -0.132 C  
HETATM   29  C   UNL     1      -9.921  19.060  66.187  1.00  0.00    -0.413 C  
HETATM   30  C   UNL     1     -10.296  18.976  67.652  1.00  0.00    -0.423 C  
HETATM   31  O   UNL     1     -10.477  17.589  67.978  1.00  0.00    -0.356 OA 
ENDBRANCH  24  27
ENDBRANCH  22  23
ENDBRANCH  21  22
ENDBRANCH  20  21
ENDBRANCH  18  20
ENDBRANCH  14  18
ENDBRANCH   2   3
TORSDOF 8
ENDMDL
MODEL      301
REMARK 921   NORMALIZED FREE ENERGY PREDICTED BY IDOCK:   -0.98 KCAL/MOL
REMARK 922        TOTAL FREE ENERGY PREDICTED BY IDOCK:   -2.97 KCAL/MOL
REMARK 923 INTER-LIGAND FREE ENERGY PREDICTED BY IDOCK:   -4.01 KCAL/MOL
REMARK 924 INTRA-LIGAND FREE ENERGY PREDICTED BY IDOCK:    1.04 KCAL/MOL
REMARK 927      BINDING AFFINITY PREDICTED BY RF-SCORE:    0.00 PKD
ROOT
HETATM    1  C   UNL     1      -5.143  10.863  72.034  1.00  0.00     0.096 C  
HETATM    2  O   UNL     1      -6.455  11.197  71.580  1.00  0.00     0.693 OA 
ENDROOT
BRANCH   2   3
HETATM    3  C   UNL     1      -6.838  10.601  70.406  1.00  0.00     0.077 A  
HETATM    4  C   UNL     1      -7.384  11.354  69.352  1.00  0.00     0.012 A  
HETATM    5  C   UNL     1      -7.890  10.774  68.200  1.00  0.00    -0.112 A  
HETATM    6  C   UNL     1      -7.796   9.396  68.061  1.00  0.00    -0.091 A  
HETATM    7  C   UNL     1      -7.142   8.634  69.058  1.00  0.00    -0.065 A  
HETATM    8  C   UNL     1      -8.391   8.890  66.907  1.00  0.00    -0.112 A  
HETATM    9  N   UNL     1      -8.331   7.529  66.585  1.00  0.00    -0.123 NA 
HETATM   10  N   UNL     1      -9.038   9.656  66.019  1.00  0.00    -0.160 NA 
HETATM   11  C   UNL     1      -6.671   9.222  70.238  1.00  0.00    -0.066 A  
HETATM   12  N   UNL     1      -8.471  11.556  67.287  1.00  0.00    -0.146 NA 
HETATM   13  H2  UNL     1      -8.694   7.004  67.380  1.00  0.00     0.000 HD 
HETATM   14  C   UNL     1      -9.060  10.978  66.232  1.00  0.00    -0.182 A  
HETATM   15  H1  UNL     1      -8.767   7.159  65.740  1.00  0.00     0.000 HD 
BRANCH  11  16
HETATM   16  O   UNL     1      -6.115   8.303  71.084  1.00  0.00    -0.033 OA 
HETATM   17  C   UNL     1      -6.820   7.108  71.378  1.00  0.00    -0.059 C  
ENDBRANCH  11  16
BRANCH  14  18
HETATM   18  N   UNL     1      -9.686  11.778  65.306  1.00  0.00    -0.233 NA 
HETATM   19  C   UNL     1     -10.365  11.167  64.185  1.00  0.00    -0.361 C  
BRANCH  18  20
HETATM   20  C   UNL     1      -9.819  13.206  65.541  1.00  0.00    -0.138 C  
BRANCH  20  21
HETATM   21  C   UNL     1     -11.172  13.551  66.179  1.00  0.00    -0.306 C  
BRANCH  21  22
HETATM   22  C   UNL     1     -11.810  12.353  66.881  1.00  0.00    -0.307 C  
BRANCH  22  23
HETATM   23  N   UNL     1     -12.008  12.591  68.295  1.00  0.00    -0.296 N  
HETATM   24  C   UNL     1     -11.941  13.847  68.850  1.00  0.00    -0.358 C  
HETATM   25  H   UNL     1     -12.205  11.796  68.903  1.00  0.00     0.000 HD 
HETATM   26  O   UNL     1     -11.684  14.858  68.203  1.00  0.00    -0.327 OA 
BRANCH  24  27
HETATM   27  C   UNL     1     -12.212  13.887  70.360  1.00  0.00    -0.368 C  
HETATM   28  C   UNL     1     -13.635  14.345  70.622  1.00  0.00     0.118 C  
HETATM   29  C   UNL     1     -13.885  13.830  72.014  1.00  0.00    -0.576 C  
HETATM   30  C   UNL     1     -13.108  12.530  72.030  1.00  0.00    -0.366 C  
HETATM   31  O   UNL     1     -12.076  12.626  71.035  1.00  0.00    -0.219 OA 
ENDBRANCH  24  27
ENDBRANCH  22  23
ENDBRANCH  21  22
ENDBRANCH  20  21
ENDBRANCH  18  20
ENDBRANCH  14  18
ENDBRANCH   2   3
TORSDOF 8
ENDMDL
MODEL      302
REMARK 921   NORMALIZED FREE ENERGY PREDICTED BY IDOCK:    1.69 KCAL/MOL
REMARK 922        TOTAL FREE ENERGY PREDICTED BY IDOCK:    0.94 KCAL/MOL
REMARK 923 INTER-LIGAND FREE ENERGY PREDICTED BY IDOCK:   -0.31 KCAL/MOL
REMARK 924 INTRA-LIGAND FREE ENERGY PREDICTED BY IDOCK:    1.25 KCAL/MOL
REMARK 927      BINDING AFFINITY PREDICTED BY RF-SCORE:    0.00 PKD
ROOT
HETATM    1  C   UNL     1      -5.641  19.738  70.131  1.00  0.00    -0.256 C  
HETATM    2  O   UNL     1      -6.272  18.611  70.738  1.00  0.00     0.169 OA 
ENDROOT
BRANCH   2   3
HETATM    3  C   UNL     1      -6.752  17.669  69.865  1.00  0.00     0.279 A  
HETATM    4  C   UNL     1      -6.443  16.306  70.023  1.00  0.00     0.009 A  
HETATM    5  C   UNL     1      -6.811  15.342  69.098  1.00  0.00    -0.144 A  
HETATM    6  C   UNL     1      -7.569  15.735  68.004  1.00  0.00    -0.134 A  
HETATM    7  C   UNL     1      -7.991  17.081  67.890  1.00  0.00    -0.192 A  
HETATM    8  C   UNL     1      -7.835  14.717  67.089  1.00  0.00    -0.148 A  
HETATM    9  N   UNL     1      -8.637  14.931  65.963  1.00  0.00    -0.243 NA 
HETATM   10  N   UNL     1      -7.369  13.469  67.226  1.00  0.00    -0.094 NA 
HETATM   11  C   UNL     1      -7.580  18.057  68.805  1.00  0.00    -0.270 A  
HETATM   12  N   UNL     1      -6.400  14.085  69.281  1.00  0.00    -0.104 NA 
HETATM   13  H2  UNL     1      -8.247  15.721  65.448  1.00  0.00     0.000 HD 
HETATM   14  C   UNL     1      -6.661  13.182  68.327  1.00  0.00    -0.101 A  
HETATM   15  H1  UNL     1      -8.831  14.187  65.295  1.00  0.00     0.000 HD 
BRANCH  11  16
HETATM   16  O   UNL     1      -8.061  19.296  68.487  1.00  0.00    -0.341 OA 
HETATM   17  C   UNL     1      -8.890  19.982  69.413  1.00  0.00     0.494 C  
ENDBRANCH  11  16
BRANCH  14  18
HETATM   18  N   UNL     1      -6.213  11.894  68.497  1.00  0.00    -0.050 NA 
HETATM   19  C   UNL     1      -6.663  11.132  69.640  1.00  0.00    -0.134 C  
BRANCH  18  20
HETATM   20  C   UNL     1      -5.437  11.244  67.454  1.00  0.00    -0.052 C  
BRANCH  20  21
HETATM   21  C   UNL     1      -6.242  11.099  66.156  1.00  0.00    -0.071 C  
BRANCH  21  22
HETATM   22  C   UNL     1      -7.585  10.401  66.376  1.00  0.00    -0.123 C  
BRANCH  22  23
HETATM   23  N   UNL     1      -8.577  11.293  66.938  1.00  0.00    -0.144 N  
HETATM   24  C   UNL     1      -9.826  10.864  67.320  1.00  0.00    -0.175 C  
HETATM   25  H   UNL     1      -8.340  12.278  67.056  1.00  0.00     0.000 HD 
HETATM   26  O   UNL     1     -10.209   9.705  67.192  1.00  0.00    -0.212 OA 
BRANCH  24  27
HETATM   27  C   UNL     1     -10.715  11.960  67.922  1.00  0.00    -0.204 C  
HETATM   28  C   UNL     1     -11.908  12.219  67.020  1.00  0.00    -0.329 C  
HETATM   29  C   UNL     1     -12.885  12.869  67.961  1.00  0.00     1.939 C  
HETATM   30  C   UNL     1     -12.606  12.160  69.270  1.00  0.00     0.566 C  
HETATM   31  O   UNL     1     -11.260  11.658  69.216  1.00  0.00    -0.244 OA 
ENDBRANCH  24  27
ENDBRANCH  22  23
ENDBRANCH  21  22
ENDBRANCH  20  21
ENDBRANCH  18  20
ENDBRANCH  14  18
ENDBRANCH   2   3
TORSDOF 8
ENDMDL
MODEL      303
REMARK 921   NORMALIZED FREE ENERGY PREDICTED BY IDOCK:    3.40 KCAL/MOL
REMARK 922        TOTAL FREE ENERGY PREDICTED BY IDOCK:    3.46 KCAL/MOL
REMARK 923 INTER-LIGAND FREE ENERGY PREDICTED BY IDOCK:    3.71 KCAL/MOL
REMARK 924 INTRA-LIGAND FREE ENERGY PREDICTED BY IDOCK:   -0.26 KCAL/MOL
REMARK 927      BINDING AFFINITY PREDICTED BY RF-SCORE:    0.00 PKD
ROOT
HETATM    1  C   UNL     1      -9.945  11.567  67.403  1.00  0.00    -0.190 C  
HETATM    2  O   UNL     1     -10.650  10.652  66.564  1.00  0.00    -0.238 OA 
ENDROOT
BRANCH   2   3
HETATM    3  C   UNL     1     -10.446   9.325  66.844  1.00  0.00    -0.214 A  
HETATM    4  C   UNL     1      -9.339   8.634  66.320  1.00  0.00    -0.282 A  
HETATM    5  C   UNL     1      -9.163   7.269  66.483  1.00  0.00    -0.157 A  
HETATM    6  C   UNL     1     -10.089   6.572  67.247  1.00  0.00    -0.212 A  
HETATM    7  C   UNL     1     -11.144   7.272  67.881  1.00  0.00    -0.001 A  
HETATM    8  C   UNL     1      -9.876   5.196  67.301  1.00  0.00    -0.168 A  
HETATM    9  N   UNL     1     -10.682   4.356  68.078  1.00  0.00     0.790 NA 
HETATM   10  N   UNL     1      -8.885   4.582  66.642  1.00  0.00    -0.111 NA 
HETATM   11  C   UNL     1     -11.339   8.643  67.677  1.00  0.00     1.044 A  
HETATM   12  N   UNL     1      -8.131   6.676  65.879  1.00  0.00    -0.119 NA 
HETATM   13  H2  UNL     1     -11.652   4.512  67.802  1.00  0.00     0.000 HD 
HETATM   14  C   UNL     1      -8.031   5.342  65.945  1.00  0.00    -0.106 A  
HETATM   15  H1  UNL     1     -10.525   3.350  68.117  1.00  0.00     0.000 HD 
BRANCH  11  16
HETATM   16  O   UNL     1     -12.438   9.110  68.343  1.00  0.00     3.258 OA 
HETATM   17  C   UNL     1     -12.460  10.455  68.794  1.00  0.00     1.192 C  
ENDBRANCH  11  16
BRANCH  14  18
HETATM   18  N   UNL     1      -6.987   4.726  65.297  1.00  0.00    -0.061 NA 
HETATM   19  C   UNL     1      -6.646   5.137  63.953  1.00  0.00    -0.034 C  
BRANCH  18  20
HETATM   20  C   UNL     1      -6.125   3.799  66.011  1.00  0.00    -0.028 C  
BRANCH  20  21
HETATM   21  C   UNL     1      -5.441   4.471  67.209  1.00  0.00    -0.013 C  
BRANCH  21  22
HETATM   22  C   UNL     1      -5.341   3.543  68.420  1.00  0.00    -0.013 C  
BRANCH  22  23
HETATM   23  N   UNL     1      -6.630   3.316  69.040  1.00  0.00    -0.033 N  
HETATM   24  C   UNL     1      -6.821   3.389  70.399  1.00  0.00    -0.033 C  
HETATM   25  H   UNL     1      -7.427   3.092  68.444  1.00  0.00     0.000 HD 
HETATM   26  O   UNL     1      -5.917   3.626  71.195  1.00  0.00    -0.013 OA 
BRANCH  24  27
HETATM   27  C   UNL     1      -8.268   3.146  70.849  1.00  0.00    -0.057 C  
HETATM   28  C   UNL     1      -8.289   2.266  72.085  1.00  0.00    -0.055 C  
HETATM   29  C   UNL     1      -9.643   2.567  72.668  1.00  0.00    -0.166 C  
HETATM   30  C   UNL     1      -9.828   4.033  72.336  1.00  0.00    -0.159 C  
HETATM   31  O   UNL     1      -9.003   4.330  71.198  1.00  0.00    -0.109 OA 
ENDBRANCH  24  27
ENDBRANCH  22  23
ENDBRANCH  21  22
ENDBRANCH  20  21
ENDBRANCH  18  20
ENDBRANCH  14  18
ENDBRANCH   2   3
TORSDOF 8
ENDMDL
MODEL      304
REMARK 921   NORMALIZED FREE ENERGY PREDICTED BY IDOCK:   15.81 KCAL/MOL
REMARK 922        TOTAL FREE ENERGY PREDICTED BY IDOCK:   21.66 KCAL/MOL
REMARK 923 INTER-LIGAND FREE ENERGY PREDICTED BY IDOCK:   20.73 KCAL/MOL
REMARK 924 INTRA-LIGAND FREE ENERGY PREDICTED BY IDOCK:    0.93 KCAL/MOL
REMARK 927      BINDING AFFINITY PREDICTED BY RF-SCORE:    0.00 PKD
ROOT
HETATM    1  C   UNL     1     -13.636   9.721  74.117  1.00  0.00     7.707 C  
HETATM    2  O   UNL     1     -13.391   8.882  72.989  1.00  0.00    -0.308 OA 
ENDROOT
BRANCH   2   3
HETATM    3  C   UNL     1     -12.998   9.534  71.849  1.00  0.00    -0.425 A  
HETATM    4  C   UNL     1     -12.055  10.576  71.895  1.00  0.00     0.197 A  
HETATM    5  C   UNL     1     -11.721  11.335  70.785  1.00  0.00    -0.043 A  
HETATM    6  C   UNL     1     -12.299  11.008  69.566  1.00  0.00    -0.266 A  
HETATM    7  C   UNL     1     -13.159   9.887  69.476  1.00  0.00     1.756 A  
HETATM    8  C   UNL     1     -11.963  11.864  68.519  1.00  0.00    -0.212 A  
HETATM    9  N   UNL     1     -12.412  11.639  67.213  1.00  0.00     0.691 NA 
HETATM   10  N   UNL     1     -11.179  12.938  68.673  1.00  0.00    -0.263 NA 
HETATM   11  C   UNL     1     -13.525   9.152  70.610  1.00  0.00     0.446 A  
HETATM   12  N   UNL     1     -10.883  12.363  70.936  1.00  0.00     2.994 NA 
HETATM   13  H2  UNL     1     -13.429  11.563  67.240  1.00  0.00     0.000 HD 
HETATM   14  C   UNL     1     -10.654  13.161  69.885  1.00  0.00     0.988 A  
HETATM   15  H1  UNL     1     -12.166  12.265  66.447  1.00  0.00     0.000 HD 
BRANCH  11  16
HETATM   16  O   UNL     1     -14.396   8.142  70.309  1.00  0.00     1.258 OA 
HETATM   17  C   UNL     1     -14.403   6.966  71.103  1.00  0.00     0.275 C  
ENDBRANCH  11  16
BRANCH  14  18
HETATM   18  N   UNL     1      -9.816  14.238  70.046  1.00  0.00     0.801 NA 
HETATM   19  C   UNL     1     -10.377  15.571  70.096  1.00  0.00    -0.262 C  
BRANCH  18  20
HETATM   20  C   UNL     1      -8.407  14.036  70.338  1.00  0.00     2.655 C  
BRANCH  20  21
HETATM   21  C   UNL     1      -8.026  12.550  70.284  1.00  0.00     3.697 C  
BRANCH  21  22
HETATM   22  C   UNL     1      -7.830  12.048  68.853  1.00  0.00     0.042 C  
BRANCH  22  23
HETATM   23  N   UNL     1      -7.997  10.614  68.751  1.00  0.00    -0.126 N  
HETATM   24  C   UNL     1      -7.867   9.775  69.832  1.00  0.00    -0.161 C  
HETATM   25  H   UNL     1      -8.220  10.210  67.841  1.00  0.00     0.000 HD 
HETATM   26  O   UNL     1      -7.575  10.167  70.958  1.00  0.00    -0.019 OA 
BRANCH  24  27
HETATM   27  C   UNL     1      -8.114   8.293  69.517  1.00  0.00    -0.114 C  
HETATM   28  C   UNL     1      -8.508   7.550  70.780  1.00  0.00    -0.126 C  
HETATM   29  C   UNL     1      -9.201   6.333  70.231  1.00  0.00    -0.163 C  
HETATM   30  C   UNL     1      -9.884   6.871  68.992  1.00  0.00    -0.152 C  
HETATM   31  O   UNL     1      -9.164   8.041  68.570  1.00  0.00    -0.137 OA 
ENDBRANCH  24  27
ENDBRANCH  22  23
ENDBRANCH  21  22
ENDBRANCH  20  21
ENDBRANCH  18  20
ENDBRANCH  14  18
ENDBRANCH   2   3
TORSDOF 8
ENDMDL
MODEL      305
REMARK 921   NORMALIZED FREE ENERGY PREDICTED BY IDOCK:   32.71 KCAL/MOL
REMARK 922        TOTAL FREE ENERGY PREDICTED BY IDOCK:   46.47 KCAL/MOL
REMARK 923 INTER-LIGAND FREE ENERGY PREDICTED BY IDOCK:   36.71 KCAL/MOL
REMARK 924 INTRA-LIGAND FREE ENERGY PREDICTED BY IDOCK:    9.76 KCAL/MOL
REMARK 927      BINDING AFFINITY PREDICTED BY RF-SCORE:    0.00 PKD
ROOT
HETATM    1  C   UNL     1     -13.294  10.325  62.523  1.00  0.00     7.840 C  
HETATM    2  O   UNL     1     -13.339  11.718  62.830  1.00  0.00    -0.288 OA 
ENDROOT
BRANCH   2   3
HETATM    3  C   UNL     1     -12.758  12.074  64.020  1.00  0.00    -0.305 A  
HETATM    4  C   UNL     1     -12.440  13.414  64.302  1.00  0.00    -0.321 A  
HETATM    5  C   UNL     1     -11.747  13.797  65.439  1.00  0.00    -0.335 A  
HETATM    6  C   UNL     1     -11.409  12.819  66.364  1.00  0.00    -0.369 A  
HETATM    7  C   UNL     1     -11.825  11.482  66.155  1.00  0.00     0.376 A  
HETATM    8  C   UNL     1     -10.654  13.279  67.442  1.00  0.00    -0.246 A  
HETATM    9  N   UNL     1     -10.283  12.434  68.494  1.00  0.00    -0.279 NA 
HETATM   10  N   UNL     1     -10.249  14.550  67.564  1.00  0.00    -0.232 NA 
HETATM   11  C   UNL     1     -12.487  11.096  64.984  1.00  0.00     2.471 A  
HETATM   12  N   UNL     1     -11.409  15.080  65.586  1.00  0.00    -0.330 NA 
HETATM   13  H2  UNL     1      -9.799  11.630  68.093  1.00  0.00     0.000 HD 
HETATM   14  C   UNL     1     -10.642  15.424  66.628  1.00  0.00    -0.306 A  
HETATM   15  H1  UNL     1      -9.731  12.771  69.282  1.00  0.00     0.000 HD 
BRANCH  11  16
HETATM   16  O   UNL     1     -12.757   9.757  64.963  1.00  0.00     9.409 OA 
HETATM   17  C   UNL     1     -12.779   9.068  63.723  1.00  0.00    18.932 C  
ENDBRANCH  11  16
BRANCH  14  18
HETATM   18  N   UNL     1     -10.265  16.739  66.765  1.00  0.00    -0.297 NA 
HETATM   19  C   UNL     1     -10.923  17.566  67.752  1.00  0.00    -0.122 C  
BRANCH  18  20
HETATM   20  C   UNL     1      -9.105  17.248  66.053  1.00  0.00    -0.079 C  
BRANCH  20  21
HETATM   21  C   UNL     1      -7.838  17.186  66.918  1.00  0.00    -0.250 C  
BRANCH  21  22
HETATM   22  C   UNL     1      -6.643  16.604  66.163  1.00  0.00     0.604 C  
BRANCH  22  23
HETATM   23  N   UNL     1      -6.303  15.273  66.622  1.00  0.00     0.973 N  
HETATM   24  C   UNL     1      -7.255  14.354  66.995  1.00  0.00     0.444 C  
HETATM   25  H   UNL     1      -5.320  15.008  66.671  1.00  0.00     0.000 HD 
HETATM   26  O   UNL     1      -8.459  14.592  66.994  1.00  0.00    -0.214 OA 
BRANCH  24  27
HETATM   27  C   UNL     1      -6.688  12.993  67.420  1.00  0.00    -0.115 C  
HETATM   28  C   UNL     1      -7.202  12.621  68.798  1.00  0.00    -0.083 C  
HETATM   29  C   UNL     1      -7.010  11.129  68.818  1.00  0.00    -0.088 C  
HETATM   30  C   UNL     1      -7.284  10.740  67.380  1.00  0.00    -0.093 C  
HETATM   31  O   UNL     1      -7.036  11.895  66.562  1.00  0.00     0.008 OA 
ENDBRANCH  24  27
ENDBRANCH  22  23
ENDBRANCH  21  22
ENDBRANCH  20  21
ENDBRANCH  18  20
ENDBRANCH  14  18
ENDBRANCH   2   3
TORSDOF 8
ENDMDL
MODEL      306
REMARK 921   NORMALIZED FREE ENERGY PREDICTED BY IDOCK:   59.88 KCAL/MOL
REMARK 922        TOTAL FREE ENERGY PREDICTED BY IDOCK:   86.35 KCAL/MOL
REMARK 923 INTER-LIGAND FREE ENERGY PREDICTED BY IDOCK:   30.88 KCAL/MOL
REMARK 924 INTRA-LIGAND FREE ENERGY PREDICTED BY IDOCK:   55.46 KCAL/MOL
REMARK 927      BINDING AFFINITY PREDICTED BY RF-SCORE:    0.00 PKD
ROOT
HETATM    1  C   UNL     1      -8.351  10.549  64.053  1.00  0.00    -0.091 C  
HETATM    2  O   UNL     1      -8.537   9.922  65.322  1.00  0.00    -0.140 OA 
ENDROOT
BRANCH   2   3
HETATM    3  C   UNL     1      -7.984  10.584  66.389  1.00  0.00    -0.137 A  
HETATM    4  C   UNL     1      -8.321  11.919  66.670  1.00  0.00    -0.117 A  
HETATM    5  C   UNL     1      -7.698  12.656  67.664  1.00  0.00    -0.155 A  
HETATM    6  C   UNL     1      -6.745  12.025  68.452  1.00  0.00    -0.065 A  
HETATM    7  C   UNL     1      -6.479  10.648  68.262  1.00  0.00    -0.058 A  
HETATM    8  C   UNL     1      -6.119  12.856  69.380  1.00  0.00    -0.109 A  
HETATM    9  N   UNL     1      -5.180  12.364  70.292  1.00  0.00    -0.098 NA 
HETATM   10  N   UNL     1      -6.380  14.166  69.483  1.00  0.00    -0.114 NA 
HETATM   11  C   UNL     1      -7.081   9.922  67.228  1.00  0.00    -0.085 A  
HETATM   12  N   UNL     1      -8.016  13.945  67.806  1.00  0.00    -0.155 NA 
HETATM   13  H2  UNL     1      -4.452  11.883  69.762  1.00  0.00     0.000 HD 
HETATM   14  C   UNL     1      -7.330  14.680  68.691  1.00  0.00    -0.125 A  
HETATM   15  H1  UNL     1      -4.722  12.972  70.970  1.00  0.00     0.000 HD 
BRANCH  11  16
HETATM   16  O   UNL     1      -6.652   8.624  67.193  1.00  0.00    -0.057 OA 
HETATM   17  C   UNL     1      -6.045   8.121  66.014  1.00  0.00    -0.041 C  
ENDBRANCH  11  16
BRANCH  14  18
HETATM   18  N   UNL     1      -7.633  16.014  68.817  1.00  0.00    -0.171 NA 
HETATM   19  C   UNL     1      -6.641  16.919  69.354  1.00  0.00    -0.228 C  
BRANCH  18  20
HETATM   20  C   UNL     1      -8.866  16.542  68.257  1.00  0.00    -0.210 C  
BRANCH  20  21
HETATM   21  C   UNL     1     -10.078  15.684  68.644  1.00  0.00    -0.210 C  
BRANCH  21  22
HETATM   22  C   UNL     1     -10.583  14.828  67.482  1.00  0.00    -0.259 C  
BRANCH  22  23
HETATM   23  N   UNL     1      -9.521  14.477  66.562  1.00  0.00    -0.277 N  
HETATM   24  C   UNL     1      -8.897  13.251  66.585  1.00  0.00    -0.058 C  
HETATM   25  H   UNL     1      -9.225  15.164  65.870  1.00  0.00     0.000 HD 
HETATM   26  O   UNL     1      -9.168  12.372  67.398  1.00  0.00    -0.173 OA 
BRANCH  24  27
HETATM   27  C   UNL     1      -7.822  13.069  65.506  1.00  0.00     3.872 C  
HETATM   28  C   UNL     1      -8.045  11.765  64.762  1.00  0.00     1.610 C  
HETATM   29  C   UNL     1      -7.297  11.999  63.478  1.00  0.00     3.960 C  
HETATM   30  C   UNL     1      -7.513  13.478  63.233  1.00  0.00    15.789 C  
HETATM   31  O   UNL     1      -7.789  14.094  64.501  1.00  0.00     8.787 OA 
ENDBRANCH  24  27
ENDBRANCH  22  23
ENDBRANCH  21  22
ENDBRANCH  20  21
ENDBRANCH  18  20
ENDBRANCH  14  18
ENDBRANCH   2   3
TORSDOF 8
ENDMDL
