MODEL        1
REMARK 921   NORMALIZED FREE ENERGY PREDICTED BY IDOCK:   -8.36 KCAL/MOL
REMARK 922        TOTAL FREE ENERGY PREDICTED BY IDOCK:  -10.04 KCAL/MOL
REMARK 923 INTER-LIGAND FREE ENERGY PREDICTED BY IDOCK:   -9.33 KCAL/MOL
REMARK 924 INTRA-LIGAND FREE ENERGY PREDICTED BY IDOCK:   -0.71 KCAL/MOL
REMARK 927      BINDING AFFINITY PREDICTED BY RF-SCORE:    0.00 PKD
ROOT
HETATM    1  O   UNL     1     -13.405  14.551  64.963  1.00  0.00    -0.369 OA 
HETATM    2  C   UNL     1     -12.152  13.999  64.512  1.00  0.00    -0.459 C  
HETATM    3  H   UNL     1     -14.065  13.870  64.901  1.00  0.00     0.000 HD 
HETATM    4  C   UNL     1     -11.085  15.100  64.613  1.00  0.00    -0.324 C  
HETATM    5  C   UNL     1     -10.701  15.366  66.101  1.00  0.00    -0.314 C  
HETATM    6  O   UNL     1     -11.625  16.237  63.914  1.00  0.00    -1.489 OA 
HETATM    7  O   UNL     1     -12.129  11.192  67.957  1.00  0.00    -0.635 OA 
HETATM    8  H   UNL     1     -10.965  16.917  63.977  1.00  0.00     0.000 HD 
HETATM    9  O   UNL     1     -10.358  14.127  66.765  1.00  0.00    -0.269 OA 
HETATM   10  C   UNL     1     -11.499  13.240  66.784  1.00  0.00    -0.350 C  
HETATM   11  O   UNL     1     -10.120  12.134  68.406  1.00  0.00    -0.206 OA 
HETATM   12  P   UNL     1     -10.467  11.739  64.588  1.00  0.00    -0.339 P  
HETATM   13  C   UNL     1     -11.833  12.768  65.365  1.00  0.00    -0.415 C  
HETATM   14  C   UNL     1     -11.310  12.074  67.750  1.00  0.00    -0.303 C  
ENDROOT
BRANCH   5  15
HETATM   15  O   UNL     1      -9.595  16.276  66.262  1.00  0.00    -0.268 OA 
BRANCH  15  16
HETATM   16  C   UNL     1      -9.797  17.397  67.164  1.00  0.00    -0.278 C  
HETATM   17  O   UNL     1      -9.559  16.087  69.256  1.00  0.00    -0.238 OA 
HETATM   18  C   UNL     1      -9.082  17.221  68.513  1.00  0.00    -0.269 C  
HETATM   19  C   UNL     1      -7.587  17.083  68.240  1.00  0.00    -0.213 C  
HETATM   20  O   UNL     1      -6.946  16.652  69.446  1.00  0.00    -0.233 OA 
HETATM   21  H   UNL     1      -9.118  15.978  70.090  1.00  0.00     0.000 HD 
HETATM   22  C   UNL     1      -7.083  18.421  67.657  1.00  0.00    -0.209 C  
HETATM   23  O   UNL     1      -7.809  18.777  66.466  1.00  0.00    -0.250 OA 
HETATM   24  O   UNL     1      -7.186  19.512  68.581  1.00  0.00    -0.312 OA 
HETATM   25  H   UNL     1      -6.015  16.566  69.276  1.00  0.00     0.000 HD 
HETATM   26  C   UNL     1      -9.244  18.679  66.498  1.00  0.00    -0.320 C  
HETATM   27  P   UNL     1      -6.121  19.626  69.803  1.00  0.00    -0.323 P  
HETATM   28  C   UNL     1      -9.974  19.905  67.076  1.00  0.00    -0.428 C  
HETATM   29  O   UNL     1      -9.165  20.949  67.353  1.00  0.00    -0.328 OA 
HETATM   30  O   UNL     1     -11.182  19.964  67.262  1.00  0.00    -0.192 OA 
ENDBRANCH  15  16
ENDBRANCH   5  15
TORSDOF 2
ENDMDL
MODEL        2
REMARK 921   NORMALIZED FREE ENERGY PREDICTED BY IDOCK:   -8.22 KCAL/MOL
REMARK 922        TOTAL FREE ENERGY PREDICTED BY IDOCK:   -9.89 KCAL/MOL
REMARK 923 INTER-LIGAND FREE ENERGY PREDICTED BY IDOCK:   -9.30 KCAL/MOL
REMARK 924 INTRA-LIGAND FREE ENERGY PREDICTED BY IDOCK:   -0.59 KCAL/MOL
REMARK 927      BINDING AFFINITY PREDICTED BY RF-SCORE:    0.00 PKD
ROOT
HETATM    1  O   UNL     1     -13.405  14.654  65.093  1.00  0.00    -0.304 OA 
HETATM    2  C   UNL     1     -12.292  14.093  64.368  1.00  0.00    -0.381 C  
HETATM    3  H   UNL     1     -14.100  14.007  65.111  1.00  0.00     0.000 HD 
HETATM    4  C   UNL     1     -11.168  15.139  64.339  1.00  0.00    -0.169 C  
HETATM    5  C   UNL     1     -10.493  15.269  65.739  1.00  0.00    -0.349 C  
HETATM    6  O   UNL     1     -11.769  16.349  63.842  1.00  0.00    -1.504 OA 
HETATM    7  O   UNL     1     -11.762  11.016  67.532  1.00  0.00    -0.565 OA 
HETATM    8  H   UNL     1     -11.074  16.996  63.824  1.00  0.00     0.000 HD 
HETATM    9  O   UNL     1     -10.096  13.968  66.232  1.00  0.00    -0.282 OA 
HETATM   10  C   UNL     1     -11.259  13.127  66.409  1.00  0.00    -0.300 C  
HETATM   11  O   UNL     1      -9.657  11.840  67.648  1.00  0.00    -0.177 OA 
HETATM   12  P   UNL     1     -10.748  11.770  63.952  1.00  0.00    -0.485 P  
HETATM   13  C   UNL     1     -11.883  12.785  65.052  1.00  0.00    -0.382 C  
HETATM   14  C   UNL     1     -10.952  11.880  67.233  1.00  0.00    -0.268 C  
ENDROOT
BRANCH   5  15
HETATM   15  O   UNL     1      -9.329  16.119  65.746  1.00  0.00    -0.396 OA 
BRANCH  15  16
HETATM   16  C   UNL     1      -9.038  16.815  66.987  1.00  0.00    -0.224 C  
HETATM   17  O   UNL     1      -6.650  16.150  67.099  1.00  0.00    -0.181 OA 
HETATM   18  C   UNL     1      -7.569  17.256  67.101  1.00  0.00    -0.190 C  
HETATM   19  C   UNL     1      -7.268  18.196  65.937  1.00  0.00    -0.240 C  
HETATM   20  O   UNL     1      -5.852  18.397  65.873  1.00  0.00    -0.161 OA 
HETATM   21  H   UNL     1      -5.743  16.422  67.169  1.00  0.00     0.000 HD 
HETATM   22  C   UNL     1      -8.116  19.472  66.122  1.00  0.00    -0.333 C  
HETATM   23  O   UNL     1      -9.519  19.159  66.201  1.00  0.00    -0.377 OA 
HETATM   24  O   UNL     1      -7.762  20.218  67.293  1.00  0.00    -0.293 OA 
HETATM   25  H   UNL     1      -5.664  18.981  65.148  1.00  0.00     0.000 HD 
HETATM   26  C   UNL     1      -9.921  18.083  67.067  1.00  0.00    -0.329 C  
HETATM   27  P   UNL     1      -6.401  21.105  67.293  1.00  0.00    -0.334 P  
HETATM   28  C   UNL     1     -10.121  18.468  68.545  1.00  0.00    -0.378 C  
HETATM   29  O   UNL     1     -10.014  19.791  68.789  1.00  0.00    -0.429 OA 
HETATM   30  O   UNL     1     -10.375  17.670  69.436  1.00  0.00    -0.273 OA 
ENDBRANCH  15  16
ENDBRANCH   5  15
TORSDOF 2
ENDMDL
MODEL        3
REMARK 921   NORMALIZED FREE ENERGY PREDICTED BY IDOCK:   -7.79 KCAL/MOL
REMARK 922        TOTAL FREE ENERGY PREDICTED BY IDOCK:   -9.41 KCAL/MOL
REMARK 923 INTER-LIGAND FREE ENERGY PREDICTED BY IDOCK:   -8.48 KCAL/MOL
REMARK 924 INTRA-LIGAND FREE ENERGY PREDICTED BY IDOCK:   -0.93 KCAL/MOL
REMARK 927      BINDING AFFINITY PREDICTED BY RF-SCORE:    0.00 PKD
ROOT
HETATM    1  O   UNL     1      -9.490  20.447  65.722  1.00  0.00    -0.614 OA 
HETATM    2  C   UNL     1      -9.115  20.059  67.059  1.00  0.00    -0.360 C  
HETATM    3  H   UNL     1      -8.903  21.139  65.441  1.00  0.00     0.000 HD 
HETATM    4  C   UNL     1     -10.065  18.940  67.513  1.00  0.00    -0.364 C  
HETATM    5  C   UNL     1      -9.738  17.603  66.780  1.00  0.00    -0.300 C  
HETATM    6  O   UNL     1     -11.396  19.441  67.293  1.00  0.00    -0.208 OA 
HETATM    7  O   UNL     1      -5.214  18.561  65.544  1.00  0.00    -0.135 OA 
HETATM    8  H   UNL     1     -11.983  18.749  67.574  1.00  0.00     0.000 HD 
HETATM    9  O   UNL     1      -8.330  17.289  66.903  1.00  0.00    -0.205 OA 
HETATM   10  C   UNL     1      -7.535  18.315  66.267  1.00  0.00    -0.260 C  
HETATM   11  O   UNL     1      -5.858  16.614  66.504  1.00  0.00    -0.324 OA 
HETATM   12  P   UNL     1      -6.946  19.527  68.781  1.00  0.00    -0.349 P  
HETATM   13  C   UNL     1      -7.643  19.633  67.041  1.00  0.00    -0.247 C  
HETATM   14  C   UNL     1      -6.085  17.883  66.066  1.00  0.00    -0.230 C  
ENDROOT
BRANCH   5  15
HETATM   15  O   UNL     1     -10.487  16.473  67.271  1.00  0.00    -0.304 OA 
BRANCH  15  16
HETATM   16  C   UNL     1     -10.618  15.338  66.374  1.00  0.00    -0.308 C  
HETATM   17  O   UNL     1      -8.293  14.521  66.655  1.00  0.00    -0.407 OA 
HETATM   18  C   UNL     1      -9.685  14.172  66.738  1.00  0.00    -0.277 C  
HETATM   19  C   UNL     1     -10.032  13.714  68.152  1.00  0.00    -0.246 C  
HETATM   20  O   UNL     1      -9.006  12.823  68.603  1.00  0.00    -0.375 OA 
HETATM   21  H   UNL     1      -7.716  13.801  66.879  1.00  0.00     0.000 HD 
HETATM   22  C   UNL     1     -11.460  13.131  68.128  1.00  0.00    -0.314 C  
HETATM   23  O   UNL     1     -12.410  14.095  67.635  1.00  0.00    -0.273 OA 
HETATM   24  O   UNL     1     -11.572  11.949  67.325  1.00  0.00    -0.428 OA 
HETATM   25  H   UNL     1      -9.221  12.538  69.483  1.00  0.00     0.000 HD 
HETATM   26  C   UNL     1     -12.074  14.818  66.438  1.00  0.00    -0.106 C  
HETATM   27  P   UNL     1     -10.992  10.541  67.892  1.00  0.00    -0.285 P  
HETATM   28  C   UNL     1     -12.413  14.099  65.119  1.00  0.00    -0.439 C  
HETATM   29  O   UNL     1     -13.094  12.945  65.280  1.00  0.00    -0.682 OA 
HETATM   30  O   UNL     1     -12.120  14.521  64.009  1.00  0.00    -0.442 OA 
ENDBRANCH  15  16
ENDBRANCH   5  15
TORSDOF 2
ENDMDL
MODEL        4
REMARK 921   NORMALIZED FREE ENERGY PREDICTED BY IDOCK:   -7.73 KCAL/MOL
REMARK 922        TOTAL FREE ENERGY PREDICTED BY IDOCK:   -9.34 KCAL/MOL
REMARK 923 INTER-LIGAND FREE ENERGY PREDICTED BY IDOCK:   -8.51 KCAL/MOL
REMARK 924 INTRA-LIGAND FREE ENERGY PREDICTED BY IDOCK:   -0.84 KCAL/MOL
REMARK 927      BINDING AFFINITY PREDICTED BY RF-SCORE:    0.00 PKD
ROOT
HETATM    1  O   UNL     1     -11.150   8.946  66.847  1.00  0.00    -0.162 OA 
HETATM    2  C   UNL     1     -10.059   9.401  67.671  1.00  0.00    -0.211 C  
HETATM    3  H   UNL     1     -11.473   8.130  67.211  1.00  0.00     0.000 HD 
HETATM    4  C   UNL     1      -9.537  10.720  67.083  1.00  0.00    -0.161 C  
HETATM    5  C   UNL     1     -10.538  11.884  67.357  1.00  0.00    -0.225 C  
HETATM    6  O   UNL     1      -9.282  10.457  65.691  1.00  0.00    -0.165 OA 
HETATM    7  O   UNL     1     -12.850   9.966  71.083  1.00  0.00    -0.338 OA 
HETATM    8  H   UNL     1      -8.959  11.273  65.327  1.00  0.00     0.000 HD 
HETATM    9  O   UNL     1     -10.878  11.941  68.763  1.00  0.00    -0.216 OA 
HETATM   10  C   UNL     1     -11.541  10.721  69.163  1.00  0.00    -0.305 C  
HETATM   11  O   UNL     1     -12.073  12.093  71.059  1.00  0.00    -0.236 OA 
HETATM   12  P   UNL     1      -9.140   9.702  70.321  1.00  0.00    -0.069 P  
HETATM   13  C   UNL     1     -10.566   9.539  69.110  1.00  0.00    -0.222 C  
HETATM   14  C   UNL     1     -12.217  10.849  70.525  1.00  0.00    -0.367 C  
ENDROOT
BRANCH   5  15
HETATM   15  O   UNL     1     -10.042  13.181  66.969  1.00  0.00    -0.235 OA 
BRANCH  15  16
HETATM   16  C   UNL     1     -11.028  14.151  66.524  1.00  0.00    -0.309 C  
HETATM   17  O   UNL     1     -11.954  14.627  68.775  1.00  0.00    -0.414 OA 
HETATM   18  C   UNL     1     -11.368  15.200  67.594  1.00  0.00    -0.321 C  
HETATM   19  C   UNL     1     -10.084  15.944  67.949  1.00  0.00    -0.235 C  
HETATM   20  O   UNL     1     -10.325  16.727  69.124  1.00  0.00    -0.294 OA 
HETATM   21  H   UNL     1     -12.164  15.275  69.436  1.00  0.00     0.000 HD 
HETATM   22  C   UNL     1      -9.628  16.733  66.703  1.00  0.00    -0.258 C  
HETATM   23  O   UNL     1      -9.440  15.860  65.573  1.00  0.00    -0.369 OA 
HETATM   24  O   UNL     1     -10.550  17.760  66.319  1.00  0.00    -0.318 OA 
HETATM   25  H   UNL     1      -9.526  17.190  69.345  1.00  0.00     0.000 HD 
HETATM   26  C   UNL     1     -10.470  14.897  65.288  1.00  0.00    -0.404 C  
HETATM   27  P   UNL     1     -10.617  19.136  67.182  1.00  0.00    -0.433 P  
HETATM   28  C   UNL     1     -11.644  15.422  64.441  1.00  0.00    -0.264 C  
HETATM   29  O   UNL     1     -11.473  16.679  63.981  1.00  0.00    -1.192 OA 
HETATM   30  O   UNL     1     -12.647  14.773  64.176  1.00  0.00    -0.784 OA 
ENDBRANCH  15  16
ENDBRANCH   5  15
TORSDOF 2
ENDMDL
MODEL        5
REMARK 921   NORMALIZED FREE ENERGY PREDICTED BY IDOCK:   -7.73 KCAL/MOL
REMARK 922        TOTAL FREE ENERGY PREDICTED BY IDOCK:   -9.34 KCAL/MOL
REMARK 923 INTER-LIGAND FREE ENERGY PREDICTED BY IDOCK:   -8.61 KCAL/MOL
REMARK 924 INTRA-LIGAND FREE ENERGY PREDICTED BY IDOCK:   -0.72 KCAL/MOL
REMARK 927      BINDING AFFINITY PREDICTED BY RF-SCORE:    0.00 PKD
ROOT
HETATM    1  O   UNL     1     -11.628  16.625  70.658  1.00  0.00    -0.494 OA 
HETATM    2  C   UNL     1     -10.382  16.196  70.075  1.00  0.00    -0.147 C  
HETATM    3  H   UNL     1     -11.494  17.485  71.040  1.00  0.00     0.000 HD 
HETATM    4  C   UNL     1     -10.600  14.806  69.457  1.00  0.00    -0.185 C  
HETATM    5  C   UNL     1     -11.447  14.906  68.152  1.00  0.00    -0.330 C  
HETATM    6  O   UNL     1     -11.183  14.000  70.497  1.00  0.00    -0.494 OA 
HETATM    7  O   UNL     1     -10.612  19.503  67.114  1.00  0.00    -0.439 OA 
HETATM    8  H   UNL     1     -11.317  13.141  70.116  1.00  0.00     0.000 HD 
HETATM    9  O   UNL     1     -10.878  15.886  67.252  1.00  0.00    -0.319 OA 
HETATM   10  C   UNL     1     -10.904  17.195  67.862  1.00  0.00    -0.294 C  
HETATM   11  O   UNL     1     -10.458  17.833  65.592  1.00  0.00    -0.613 OA 
HETATM   12  P   UNL     1      -8.144  17.008  68.563  1.00  0.00    -0.254 P  
HETATM   13  C   UNL     1      -9.941  17.249  69.053  1.00  0.00    -0.272 C  
HETATM   14  C   UNL     1     -10.636  18.310  66.855  1.00  0.00    -0.329 C  
ENDROOT
BRANCH   5  15
HETATM   15  O   UNL     1     -11.559  13.659  67.436  1.00  0.00    -0.317 OA 
BRANCH  15  16
HETATM   16  C   UNL     1     -11.332  13.708  66.002  1.00  0.00    -0.312 C  
HETATM   17  O   UNL     1      -8.918  14.257  66.144  1.00  0.00    -0.489 OA 
HETATM   18  C   UNL     1      -9.891  13.346  65.607  1.00  0.00    -0.163 C  
HETATM   19  C   UNL     1      -9.612  11.927  66.094  1.00  0.00    -0.234 C  
HETATM   20  O   UNL     1      -8.206  11.678  65.977  1.00  0.00    -0.374 OA 
HETATM   21  H   UNL     1      -8.027  14.034  65.900  1.00  0.00     0.000 HD 
HETATM   22  C   UNL     1     -10.528  10.964  65.309  1.00  0.00    -0.230 C  
HETATM   23  O   UNL     1     -11.915  11.316  65.469  1.00  0.00     0.168 OA 
HETATM   24  O   UNL     1     -10.239  10.931  63.905  1.00  0.00    -0.327 OA 
HETATM   25  H   UNL     1      -8.032  10.795  66.280  1.00  0.00     0.000 HD 
HETATM   26  C   UNL     1     -12.281  12.698  65.312  1.00  0.00    -0.475 C  
HETATM   27  P   UNL     1      -8.926  10.133  63.379  1.00  0.00    -0.284 P  
HETATM   28  C   UNL     1     -12.535  13.151  63.863  1.00  0.00    -0.278 C  
HETATM   29  O   UNL     1     -12.500  12.149  62.959  1.00  0.00    -0.359 OA 
HETATM   30  O   UNL     1     -12.768  14.305  63.532  1.00  0.00    -0.767 OA 
ENDBRANCH  15  16
ENDBRANCH   5  15
TORSDOF 2
ENDMDL
MODEL        6
REMARK 921   NORMALIZED FREE ENERGY PREDICTED BY IDOCK:   -7.70 KCAL/MOL
REMARK 922        TOTAL FREE ENERGY PREDICTED BY IDOCK:   -9.31 KCAL/MOL
REMARK 923 INTER-LIGAND FREE ENERGY PREDICTED BY IDOCK:   -8.93 KCAL/MOL
REMARK 924 INTRA-LIGAND FREE ENERGY PREDICTED BY IDOCK:   -0.38 KCAL/MOL
REMARK 927      BINDING AFFINITY PREDICTED BY RF-SCORE:    0.00 PKD
ROOT
HETATM    1  O   UNL     1     -12.002  10.218  68.351  1.00  0.00    -0.730 OA 
HETATM    2  C   UNL     1     -10.948  10.204  67.367  1.00  0.00    -0.229 C  
HETATM    3  H   UNL     1     -12.129   9.329  68.658  1.00  0.00     0.000 HD 
HETATM    4  C   UNL     1     -10.743  11.643  66.870  1.00  0.00    -0.257 C  
HETATM    5  C   UNL     1     -10.037  12.511  67.957  1.00  0.00    -0.220 C  
HETATM    6  O   UNL     1     -12.044  12.111  66.472  1.00  0.00    -0.627 OA 
HETATM    7  O   UNL     1      -8.032   8.979  70.490  1.00  0.00    -0.104 OA 
HETATM    8  H   UNL     1     -11.917  13.001  66.164  1.00  0.00     0.000 HD 
HETATM    9  O   UNL     1      -8.836  11.855  68.427  1.00  0.00    -0.178 OA 
HETATM   10  C   UNL     1      -9.169  10.597  69.054  1.00  0.00    -0.167 C  
HETATM   11  O   UNL     1      -6.913  10.835  69.836  1.00  0.00    -0.149 OA 
HETATM   12  P   UNL     1      -8.417   9.143  66.717  1.00  0.00    -0.125 P  
HETATM   13  C   UNL     1      -9.696   9.603  68.013  1.00  0.00    -0.146 C  
HETATM   14  C   UNL     1      -8.006  10.025  69.859  1.00  0.00    -0.171 C  
ENDROOT
BRANCH   5  15
HETATM   15  O   UNL     1      -9.673  13.829  67.501  1.00  0.00    -0.221 OA 
BRANCH  15  16
HETATM   16  C   UNL     1     -10.738  14.644  66.942  1.00  0.00    -0.294 C  
HETATM   17  O   UNL     1     -11.458  15.636  69.098  1.00  0.00    -0.310 OA 
HETATM   18  C   UNL     1     -11.016  15.916  67.760  1.00  0.00    -0.315 C  
HETATM   19  C   UNL     1      -9.735  16.746  67.789  1.00  0.00    -0.248 C  
HETATM   20  O   UNL     1      -9.894  17.787  68.760  1.00  0.00    -0.332 OA 
HETATM   21  H   UNL     1     -11.630  16.422  69.604  1.00  0.00     0.000 HD 
HETATM   22  C   UNL     1      -9.438  17.216  66.349  1.00  0.00    -0.269 C  
HETATM   23  O   UNL     1      -9.325  16.099  65.448  1.00  0.00    -0.351 OA 
HETATM   24  O   UNL     1     -10.436  18.103  65.829  1.00  0.00    -0.584 OA 
HETATM   25  H   UNL     1      -9.097  18.303  68.778  1.00  0.00     0.000 HD 
HETATM   26  C   UNL     1     -10.336  15.077  65.512  1.00  0.00    -0.373 C  
HETATM   27  P   UNL     1     -10.477  19.646  66.339  1.00  0.00    -0.470 P  
HETATM   28  C   UNL     1     -11.609  15.360  64.692  1.00  0.00    -0.311 C  
HETATM   29  O   UNL     1     -11.537  16.470  63.929  1.00  0.00    -1.175 OA 
HETATM   30  O   UNL     1     -12.604  14.649  64.698  1.00  0.00    -0.573 OA 
ENDBRANCH  15  16
ENDBRANCH   5  15
TORSDOF 2
ENDMDL
MODEL        7
REMARK 921   NORMALIZED FREE ENERGY PREDICTED BY IDOCK:   -7.70 KCAL/MOL
REMARK 922        TOTAL FREE ENERGY PREDICTED BY IDOCK:   -9.31 KCAL/MOL
REMARK 923 INTER-LIGAND FREE ENERGY PREDICTED BY IDOCK:   -8.46 KCAL/MOL
REMARK 924 INTRA-LIGAND FREE ENERGY PREDICTED BY IDOCK:   -0.84 KCAL/MOL
REMARK 927      BINDING AFFINITY PREDICTED BY RF-SCORE:    0.00 PKD
ROOT
HETATM    1  O   UNL     1     -13.187  12.276  64.500  1.00  0.00    -0.799 OA 
HETATM    2  C   UNL     1     -11.964  12.364  63.741  1.00  0.00    -0.514 C  
HETATM    3  H   UNL     1     -13.556  11.412  64.364  1.00  0.00     0.000 HD 
HETATM    4  C   UNL     1     -11.367  13.762  63.962  1.00  0.00    -0.155 C  
HETATM    5  C   UNL     1     -10.763  13.888  65.394  1.00  0.00    -0.325 C  
HETATM    6  O   UNL     1     -12.425  14.693  63.668  1.00  0.00    -1.070 OA 
HETATM    7  O   UNL     1     -10.129   9.232  66.306  1.00  0.00    -0.278 OA 
HETATM    8  H   UNL     1     -12.055  15.557  63.804  1.00  0.00     0.000 HD 
HETATM    9  O   UNL     1      -9.855  12.793  65.659  1.00  0.00    -0.248 OA 
HETATM   10  C   UNL     1     -10.566  11.536  65.619  1.00  0.00    -0.274 C  
HETATM   11  O   UNL     1      -8.542  10.802  66.678  1.00  0.00    -0.135 OA 
HETATM   12  P   UNL     1      -9.619  10.994  62.982  1.00  0.00    -0.347 P  
HETATM   13  C   UNL     1     -11.036  11.232  64.192  1.00  0.00    -0.305 C  
HETATM   14  C   UNL     1      -9.752  10.390  66.213  1.00  0.00    -0.205 C  
ENDROOT
BRANCH   5  15
HETATM   15  O   UNL     1     -10.048  15.120  65.618  1.00  0.00    -0.312 OA 
BRANCH  15  16
HETATM   16  C   UNL     1      -9.767  15.470  66.999  1.00  0.00    -0.224 C  
HETATM   17  O   UNL     1      -7.638  14.206  67.153  1.00  0.00    -0.332 OA 
HETATM   18  C   UNL     1      -8.263  15.489  67.321  1.00  0.00    -0.197 C  
HETATM   19  C   UNL     1      -7.600  16.523  66.415  1.00  0.00    -0.214 C  
HETATM   20  O   UNL     1      -6.181  16.362  66.509  1.00  0.00    -0.261 OA 
HETATM   21  H   UNL     1      -6.709  14.218  67.352  1.00  0.00     0.000 HD 
HETATM   22  C   UNL     1      -8.142  17.915  66.803  1.00  0.00    -0.238 C  
HETATM   23  O   UNL     1      -9.577  17.964  66.702  1.00  0.00    -0.287 OA 
HETATM   24  O   UNL     1      -7.779  18.310  68.132  1.00  0.00    -0.261 OA 
HETATM   25  H   UNL     1      -5.768  17.005  65.945  1.00  0.00     0.000 HD 
HETATM   26  C   UNL     1     -10.330  16.883  67.280  1.00  0.00    -0.309 C  
HETATM   27  P   UNL     1      -6.260  18.801  68.432  1.00  0.00    -0.226 P  
HETATM   28  C   UNL     1     -10.626  17.020  68.785  1.00  0.00    -0.346 C  
HETATM   29  O   UNL     1     -10.244  18.200  69.317  1.00  0.00    -0.286 OA 
HETATM   30  O   UNL     1     -11.174  16.160  69.460  1.00  0.00    -0.317 OA 
ENDBRANCH  15  16
ENDBRANCH   5  15
TORSDOF 2
ENDMDL
MODEL        8
REMARK 921   NORMALIZED FREE ENERGY PREDICTED BY IDOCK:   -7.35 KCAL/MOL
REMARK 922        TOTAL FREE ENERGY PREDICTED BY IDOCK:   -8.92 KCAL/MOL
REMARK 923 INTER-LIGAND FREE ENERGY PREDICTED BY IDOCK:   -8.62 KCAL/MOL
REMARK 924 INTRA-LIGAND FREE ENERGY PREDICTED BY IDOCK:   -0.30 KCAL/MOL
REMARK 927      BINDING AFFINITY PREDICTED BY RF-SCORE:    0.00 PKD
ROOT
HETATM    1  O   UNL     1      -6.814  11.593  66.398  1.00  0.00    -0.358 OA 
HETATM    2  C   UNL     1      -7.917  10.855  66.959  1.00  0.00    -0.132 C  
HETATM    3  H   UNL     1      -6.323  11.006  65.836  1.00  0.00     0.000 HD 
HETATM    4  C   UNL     1      -8.711  11.805  67.868  1.00  0.00    -0.164 C  
HETATM    5  C   UNL     1      -9.524  12.833  67.022  1.00  0.00    -0.233 C  
HETATM    6  O   UNL     1      -7.748  12.387  68.766  1.00  0.00    -0.238 OA 
HETATM    7  O   UNL     1      -9.688  10.390  62.909  1.00  0.00    -0.316 OA 
HETATM    8  H   UNL     1      -8.239  12.975  69.328  1.00  0.00     0.000 HD 
HETATM    9  O   UNL     1     -10.315  12.151  66.021  1.00  0.00    -0.227 OA 
HETATM   10  C   UNL     1      -9.452  11.447  65.100  1.00  0.00    -0.199 C  
HETATM   11  O   UNL     1     -11.498  11.375  63.847  1.00  0.00    -0.341 OA 
HETATM   12  P   UNL     1      -9.938   8.964  66.419  1.00  0.00    -0.163 P  
HETATM   13  C   UNL     1      -8.750  10.283  65.808  1.00  0.00    -0.156 C  
HETATM   14  C   UNL     1     -10.191  10.995  63.844  1.00  0.00    -0.364 C  
ENDROOT
BRANCH   5  15
HETATM   15  O   UNL     1     -10.413  13.655  67.804  1.00  0.00    -0.235 OA 
BRANCH  15  16
HETATM   16  C   UNL     1     -11.252  14.588  67.072  1.00  0.00    -0.337 C  
HETATM   17  O   UNL     1     -12.376  15.541  69.067  1.00  0.00    -0.607 OA 
HETATM   18  C   UNL     1     -11.613  15.841  67.886  1.00  0.00    -0.151 C  
HETATM   19  C   UNL     1     -10.315  16.550  68.262  1.00  0.00    -0.293 C  
HETATM   20  O   UNL     1     -10.614  17.554  69.237  1.00  0.00    -0.403 OA 
HETATM   21  H   UNL     1     -12.600  16.314  69.570  1.00  0.00     0.000 HD 
HETATM   22  C   UNL     1      -9.655  17.057  66.962  1.00  0.00    -0.254 C  
HETATM   23  O   UNL     1      -9.421  15.976  66.039  1.00  0.00    -0.307 OA 
HETATM   24  O   UNL     1     -10.432  18.054  66.288  1.00  0.00    -0.375 OA 
HETATM   25  H   UNL     1      -9.806  17.995  69.471  1.00  0.00     0.000 HD 
HETATM   26  C   UNL     1     -10.495  15.049  65.803  1.00  0.00    -0.337 C  
HETATM   27  P   UNL     1     -10.471  19.568  66.875  1.00  0.00    -0.493 P  
HETATM   28  C   UNL     1     -11.516  15.483  64.735  1.00  0.00    -0.313 C  
HETATM   29  O   UNL     1     -11.183  16.616  64.083  1.00  0.00    -1.103 OA 
HETATM   30  O   UNL     1     -12.537  14.866  64.467  1.00  0.00    -0.519 OA 
ENDBRANCH  15  16
ENDBRANCH   5  15
TORSDOF 2
ENDMDL
MODEL        9
REMARK 921   NORMALIZED FREE ENERGY PREDICTED BY IDOCK:   -7.35 KCAL/MOL
REMARK 922        TOTAL FREE ENERGY PREDICTED BY IDOCK:   -8.92 KCAL/MOL
REMARK 923 INTER-LIGAND FREE ENERGY PREDICTED BY IDOCK:   -8.07 KCAL/MOL
REMARK 924 INTRA-LIGAND FREE ENERGY PREDICTED BY IDOCK:   -0.85 KCAL/MOL
REMARK 927      BINDING AFFINITY PREDICTED BY RF-SCORE:    0.00 PKD
ROOT
HETATM    1  O   UNL     1     -11.451   6.663  67.349  1.00  0.00    -0.747 OA 
HETATM    2  C   UNL     1     -10.194   7.099  67.906  1.00  0.00    -0.187 C  
HETATM    3  H   UNL     1     -11.712   5.868  67.798  1.00  0.00     0.000 HD 
HETATM    4  C   UNL     1      -9.773   8.385  67.178  1.00  0.00    -0.190 C  
HETATM    5  C   UNL     1     -10.657   9.590  67.624  1.00  0.00    -0.269 C  
HETATM    6  O   UNL     1      -9.830   8.079  65.773  1.00  0.00    -0.404 OA 
HETATM    7  O   UNL     1     -12.170   7.845  71.816  1.00  0.00    -0.288 OA 
HETATM    8  H   UNL     1      -9.569   8.874  65.324  1.00  0.00     0.000 HD 
HETATM    9  O   UNL     1     -10.685   9.692  69.067  1.00  0.00    -0.217 OA 
HETATM   10  C   UNL     1     -11.283   8.506  69.638  1.00  0.00     0.092 C  
HETATM   11  O   UNL     1     -11.354   9.941  71.560  1.00  0.00    -0.343 OA 
HETATM   12  P   UNL     1      -8.720   7.431  70.287  1.00  0.00    -0.146 P  
HETATM   13  C   UNL     1     -10.377   7.290  69.414  1.00  0.00    -0.208 C  
HETATM   14  C   UNL     1     -11.646   8.691  71.108  1.00  0.00    -0.281 C  
ENDROOT
BRANCH   5  15
HETATM   15  O   UNL     1     -10.217  10.858  67.099  1.00  0.00    -0.194 OA 
BRANCH  15  16
HETATM   16  C   UNL     1     -11.242  11.865  66.881  1.00  0.00    -0.325 C  
HETATM   17  O   UNL     1     -11.871  12.110  69.268  1.00  0.00    -0.304 OA 
HETATM   18  C   UNL     1     -11.433  12.801  68.086  1.00  0.00    -0.314 C  
HETATM   19  C   UNL     1     -10.107  13.509  68.347  1.00  0.00    -0.240 C  
HETATM   20  O   UNL     1     -10.190  14.170  69.615  1.00  0.00    -0.415 OA 
HETATM   21  H   UNL     1     -11.989  12.688  70.012  1.00  0.00     0.000 HD 
HETATM   22  C   UNL     1      -9.805  14.420  67.138  1.00  0.00    -0.254 C  
HETATM   23  O   UNL     1      -9.770  13.665  65.913  1.00  0.00    -0.264 OA 
HETATM   24  O   UNL     1     -10.758  15.478  66.979  1.00  0.00    -0.314 OA 
HETATM   25  H   UNL     1      -9.365  14.610  69.778  1.00  0.00     0.000 HD 
HETATM   26  C   UNL     1     -10.838  12.733  65.666  1.00  0.00    -0.273 C  
HETATM   27  P   UNL     1     -10.702  16.760  67.976  1.00  0.00    -0.296 P  
HETATM   28  C   UNL     1     -12.104  13.336  65.031  1.00  0.00    -0.408 C  
HETATM   29  O   UNL     1     -11.980  14.633  64.681  1.00  0.00    -0.431 OA 
HETATM   30  O   UNL     1     -13.138  12.715  64.832  1.00  0.00    -0.850 OA 
ENDBRANCH  15  16
ENDBRANCH   5  15
TORSDOF 2
ENDMDL
MODEL       10
REMARK 921   NORMALIZED FREE ENERGY PREDICTED BY IDOCK:   -7.32 KCAL/MOL
REMARK 922        TOTAL FREE ENERGY PREDICTED BY IDOCK:   -8.88 KCAL/MOL
REMARK 923 INTER-LIGAND FREE ENERGY PREDICTED BY IDOCK:   -8.77 KCAL/MOL
REMARK 924 INTRA-LIGAND FREE ENERGY PREDICTED BY IDOCK:   -0.12 KCAL/MOL
REMARK 927      BINDING AFFINITY PREDICTED BY RF-SCORE:    0.00 PKD
ROOT
HETATM    1  O   UNL     1     -10.599  10.244  63.492  1.00  0.00    -0.303 OA 
HETATM    2  C   UNL     1      -9.371  10.385  64.235  1.00  0.00    -0.277 C  
HETATM    3  H   UNL     1     -10.620   9.370  63.122  1.00  0.00     0.000 HD 
HETATM    4  C   UNL     1      -9.338  11.800  64.833  1.00  0.00     0.054 C  
HETATM    5  C   UNL     1     -10.343  11.925  66.018  1.00  0.00    -0.233 C  
HETATM    6  O   UNL     1      -9.582  12.698  63.735  1.00  0.00    -0.672 OA 
HETATM    7  O   UNL     1     -10.734   7.281  67.108  1.00  0.00    -0.315 OA 
HETATM    8  H   UNL     1      -9.561  13.572  64.105  1.00  0.00     0.000 HD 
HETATM    9  O   UNL     1     -10.136  10.858  66.974  1.00  0.00    -0.192 OA 
HETATM   10  C   UNL     1     -10.386   9.578  66.352  1.00  0.00    -0.173 C  
HETATM   11  O   UNL     1     -10.391   8.899  68.654  1.00  0.00    -0.200 OA 
HETATM   12  P   UNL     1      -7.592   9.109  66.012  1.00  0.00    -0.096 P  
HETATM   13  C   UNL     1      -9.319   9.280  65.293  1.00  0.00    -0.202 C  
HETATM   14  C   UNL     1     -10.513   8.452  67.374  1.00  0.00    -0.283 C  
ENDROOT
BRANCH   5  15
HETATM   15  O   UNL     1     -10.254  13.177  66.727  1.00  0.00    -0.245 OA 
BRANCH  15  16
HETATM   16  C   UNL     1     -11.187  14.218  66.332  1.00  0.00    -0.337 C  
HETATM   17  O   UNL     1     -12.163  14.557  68.587  1.00  0.00    -0.545 OA 
HETATM   18  C   UNL     1     -11.518  15.195  67.472  1.00  0.00    -0.298 C  
HETATM   19  C   UNL     1     -10.217  15.855  67.920  1.00  0.00    -0.251 C  
HETATM   20  O   UNL     1     -10.464  16.554  69.145  1.00  0.00    -0.275 OA 
HETATM   21  H   UNL     1     -12.367  15.159  69.291  1.00  0.00     0.000 HD 
HETATM   22  C   UNL     1      -9.693  16.718  66.753  1.00  0.00    -0.264 C  
HETATM   23  O   UNL     1      -9.504  15.929  65.564  1.00  0.00    -0.369 OA 
HETATM   24  O   UNL     1     -10.562  17.810  66.426  1.00  0.00    -0.314 OA 
HETATM   25  H   UNL     1      -9.655  16.965  69.425  1.00  0.00     0.000 HD 
HETATM   26  C   UNL     1     -10.562  15.035  65.175  1.00  0.00    -0.418 C  
HETATM   27  P   UNL     1     -10.601  19.116  67.392  1.00  0.00    -0.437 P  
HETATM   28  C   UNL     1     -11.688  15.672  64.339  1.00  0.00    -0.218 C  
HETATM   29  O   UNL     1     -11.454  16.952  63.985  1.00  0.00    -1.130 OA 
HETATM   30  O   UNL     1     -12.706  15.088  63.997  1.00  0.00    -0.772 OA 
ENDBRANCH  15  16
ENDBRANCH   5  15
TORSDOF 2
ENDMDL
MODEL       11
REMARK 921   NORMALIZED FREE ENERGY PREDICTED BY IDOCK:   -7.23 KCAL/MOL
REMARK 922        TOTAL FREE ENERGY PREDICTED BY IDOCK:   -8.79 KCAL/MOL
REMARK 923 INTER-LIGAND FREE ENERGY PREDICTED BY IDOCK:   -7.96 KCAL/MOL
REMARK 924 INTRA-LIGAND FREE ENERGY PREDICTED BY IDOCK:   -0.83 KCAL/MOL
REMARK 927      BINDING AFFINITY PREDICTED BY RF-SCORE:    0.00 PKD
ROOT
HETATM    1  O   UNL     1     -12.648  14.868  68.740  1.00  0.00    -0.495 OA 
HETATM    2  C   UNL     1     -11.330  14.521  68.272  1.00  0.00    -0.297 C  
HETATM    3  H   UNL     1     -12.807  15.779  68.526  1.00  0.00     0.000 HD 
HETATM    4  C   UNL     1     -11.074  13.047  68.619  1.00  0.00    -0.269 C  
HETATM    5  C   UNL     1     -11.906  12.107  67.693  1.00  0.00    -0.246 C  
HETATM    6  O   UNL     1     -11.358  12.918  70.024  1.00  0.00    -0.504 OA 
HETATM    7  O   UNL     1     -12.641  15.148  64.071  1.00  0.00    -0.791 OA 
HETATM    8  H   UNL     1     -11.200  12.007  70.239  1.00  0.00     0.000 HD 
HETATM    9  O   UNL     1     -11.693  12.447  66.303  1.00  0.00    -0.388 OA 
HETATM   10  C   UNL     1     -12.152  13.793  66.045  1.00  0.00    -0.436 C  
HETATM   11  O   UNL     1     -11.941  13.014  63.785  1.00  0.00    -0.448 OA 
HETATM   12  P   UNL     1      -9.487  14.806  66.156  1.00  0.00    -0.204 P  
HETATM   13  C   UNL     1     -11.262  14.809  66.769  1.00  0.00    -0.344 C  
HETATM   14  C   UNL     1     -12.268  14.089  64.553  1.00  0.00    -0.434 C  
ENDROOT
BRANCH   5  15
HETATM   15  O   UNL     1     -11.598  10.708  67.859  1.00  0.00    -0.491 OA 
BRANCH  15  16
HETATM   16  C   UNL     1     -10.239  10.298  67.551  1.00  0.00    -0.210 C  
HETATM   17  O   UNL     1      -9.388  10.471  69.875  1.00  0.00    -0.404 OA 
HETATM   18  C   UNL     1      -9.535   9.611  68.733  1.00  0.00    -0.148 C  
HETATM   19  C   UNL     1     -10.342   8.370  69.106  1.00  0.00    -0.220 C  
HETATM   20  O   UNL     1      -9.858   7.877  70.360  1.00  0.00    -0.183 OA 
HETATM   21  H   UNL     1      -8.953  10.047  70.605  1.00  0.00     0.000 HD 
HETATM   22  C   UNL     1     -10.267   7.379  67.924  1.00  0.00    -0.194 C  
HETATM   23  O   UNL     1     -10.750   7.980  66.708  1.00  0.00    -0.289 OA 
HETATM   24  O   UNL     1      -8.942   6.892  67.682  1.00  0.00    -0.118 OA 
HETATM   25  H   UNL     1     -10.361   7.105  70.592  1.00  0.00     0.000 HD 
HETATM   26  C   UNL     1     -10.275   9.296  66.373  1.00  0.00    -0.228 C  
HETATM   27  P   UNL     1      -8.307   5.775  68.677  1.00  0.00    -0.107 P  
HETATM   28  C   UNL     1      -8.927   9.339  65.630  1.00  0.00    -0.199 C  
HETATM   29  O   UNL     1      -8.447   8.125  65.289  1.00  0.00    -0.157 OA 
HETATM   30  O   UNL     1      -8.330  10.367  65.345  1.00  0.00    -0.157 OA 
ENDBRANCH  15  16
ENDBRANCH   5  15
TORSDOF 2
ENDMDL
MODEL       12
REMARK 921   NORMALIZED FREE ENERGY PREDICTED BY IDOCK:   -7.10 KCAL/MOL
REMARK 922        TOTAL FREE ENERGY PREDICTED BY IDOCK:   -8.64 KCAL/MOL
REMARK 923 INTER-LIGAND FREE ENERGY PREDICTED BY IDOCK:   -7.73 KCAL/MOL
REMARK 924 INTRA-LIGAND FREE ENERGY PREDICTED BY IDOCK:   -0.91 KCAL/MOL
REMARK 927      BINDING AFFINITY PREDICTED BY RF-SCORE:    0.00 PKD
ROOT
HETATM    1  O   UNL     1     -12.734  15.817  69.361  1.00  0.00    -0.496 OA 
HETATM    2  C   UNL     1     -11.419  15.490  68.868  1.00  0.00    -0.354 C  
HETATM    3  H   UNL     1     -13.070  16.540  68.846  1.00  0.00     0.000 HD 
HETATM    4  C   UNL     1     -10.876  14.320  69.703  1.00  0.00    -0.064 C  
HETATM    5  C   UNL     1     -11.602  12.990  69.332  1.00  0.00    -0.299 C  
HETATM    6  O   UNL     1     -11.011  14.721  71.078  1.00  0.00    -0.533 OA 
HETATM    7  O   UNL     1     -13.173  14.228  64.984  1.00  0.00    -0.638 OA 
HETATM    8  H   UNL     1     -10.675  13.997  71.594  1.00  0.00     0.000 HD 
HETATM    9  O   UNL     1     -11.572  12.778  67.901  1.00  0.00    -0.307 OA 
HETATM   10  C   UNL     1     -12.284  13.840  67.227  1.00  0.00    -0.278 C  
HETATM   11  O   UNL     1     -12.130  12.267  65.421  1.00  0.00    -0.479 OA 
HETATM   12  P   UNL     1      -9.843  15.155  66.554  1.00  0.00    -0.298 P  
HETATM   13  C   UNL     1     -11.531  15.167  67.375  1.00  0.00    -0.277 C  
HETATM   14  C   UNL     1     -12.577  13.505  65.767  1.00  0.00    -0.434 C  
ENDROOT
BRANCH   5  15
HETATM   15  O   UNL     1     -11.036  11.824  69.964  1.00  0.00    -0.035 OA 
BRANCH  15  16
HETATM   16  C   UNL     1     -11.848  10.620  69.956  1.00  0.00    -0.322 C  
HETATM   17  O   UNL     1     -11.532  10.115  67.548  1.00  0.00    -0.518 OA 
HETATM   18  C   UNL     1     -11.410   9.606  68.886  1.00  0.00     0.126 C  
HETATM   19  C   UNL     1      -9.963   9.213  69.173  1.00  0.00    -0.187 C  
HETATM   20  O   UNL     1      -9.460   8.488  68.045  1.00  0.00    -0.139 OA 
HETATM   21  H   UNL     1     -11.262   9.489  66.887  1.00  0.00     0.000 HD 
HETATM   22  C   UNL     1      -9.931   8.459  70.519  1.00  0.00    -0.185 C  
HETATM   23  O   UNL     1     -10.482   9.261  71.580  1.00  0.00    -0.334 OA 
HETATM   24  O   UNL     1     -10.646   7.217  70.486  1.00  0.00    -0.215 OA 
HETATM   25  H   UNL     1      -8.560   8.244  68.223  1.00  0.00     0.000 HD 
HETATM   26  C   UNL     1     -11.732   9.931  71.337  1.00  0.00    -0.371 C  
HETATM   27  P   UNL     1      -9.986   5.936  69.737  1.00  0.00    -0.215 P  
HETATM   28  C   UNL     1     -12.993   9.082  71.586  1.00  0.00    -0.361 C  
HETATM   29  O   UNL     1     -12.743   7.868  72.120  1.00  0.00    -0.290 OA 
HETATM   30  O   UNL     1     -14.133   9.455  71.348  1.00  0.00    -0.230 OA 
ENDBRANCH  15  16
ENDBRANCH   5  15
TORSDOF 2
ENDMDL
MODEL       13
REMARK 921   NORMALIZED FREE ENERGY PREDICTED BY IDOCK:   -7.09 KCAL/MOL
REMARK 922        TOTAL FREE ENERGY PREDICTED BY IDOCK:   -8.63 KCAL/MOL
REMARK 923 INTER-LIGAND FREE ENERGY PREDICTED BY IDOCK:   -8.29 KCAL/MOL
REMARK 924 INTRA-LIGAND FREE ENERGY PREDICTED BY IDOCK:   -0.34 KCAL/MOL
REMARK 927      BINDING AFFINITY PREDICTED BY RF-SCORE:    0.00 PKD
ROOT
HETATM    1  O   UNL     1     -11.168   9.789  67.873  1.00  0.00    -0.509 OA 
HETATM    2  C   UNL     1     -11.033  10.441  66.594  1.00  0.00     0.003 C  
HETATM    3  H   UNL     1     -11.133   8.850  67.729  1.00  0.00     0.000 HD 
HETATM    4  C   UNL     1     -11.090  11.958  66.827  1.00  0.00    -0.308 C  
HETATM    5  C   UNL     1      -9.774  12.468  67.490  1.00  0.00    -0.196 C  
HETATM    6  O   UNL     1     -12.285  12.194  67.592  1.00  0.00    -0.462 OA 
HETATM    7  O   UNL     1      -6.894   8.865  66.213  1.00  0.00    -0.072 OA 
HETATM    8  H   UNL     1     -12.321  13.133  67.736  1.00  0.00     0.000 HD 
HETATM    9  O   UNL     1      -8.621  12.013  66.744  1.00  0.00    -0.189 OA 
HETATM   10  C   UNL     1      -8.558  10.569  66.757  1.00  0.00    -0.126 C  
HETATM   11  O   UNL     1      -6.339  11.047  65.980  1.00  0.00    -0.125 OA 
HETATM   12  P   UNL     1      -9.661  10.420  64.130  1.00  0.00    -0.234 P  
HETATM   13  C   UNL     1      -9.721   9.976  65.954  1.00  0.00    -0.247 C  
HETATM   14  C   UNL     1      -7.206  10.043  66.286  1.00  0.00    -0.106 C  
ENDROOT
BRANCH   5  15
HETATM   15  O   UNL     1      -9.695  13.904  67.595  1.00  0.00    -0.217 OA 
BRANCH  15  16
HETATM   16  C   UNL     1     -10.753  14.664  66.953  1.00  0.00    -0.294 C  
HETATM   17  O   UNL     1     -11.624  15.697  69.033  1.00  0.00    -0.342 OA 
HETATM   18  C   UNL     1     -11.117  15.950  67.713  1.00  0.00    -0.288 C  
HETATM   19  C   UNL     1      -9.868  16.825  67.785  1.00  0.00    -0.257 C  
HETATM   20  O   UNL     1     -10.114  17.888  68.712  1.00  0.00    -0.367 OA 
HETATM   21  H   UNL     1     -11.849  16.491  69.503  1.00  0.00     0.000 HD 
HETATM   22  C   UNL     1      -9.506  17.260  66.349  1.00  0.00    -0.263 C  
HETATM   23  O   UNL     1      -9.307  16.121  65.493  1.00  0.00    -0.405 OA 
HETATM   24  O   UNL     1     -10.502  18.097  65.748  1.00  0.00    -0.584 OA 
HETATM   25  H   UNL     1      -9.337  18.432  68.758  1.00  0.00     0.000 HD 
HETATM   26  C   UNL     1     -10.286  15.068  65.534  1.00  0.00    -0.373 C  
HETATM   27  P   UNL     1     -10.621  19.652  66.205  1.00  0.00    -0.357 P  
HETATM   28  C   UNL     1     -11.519  15.282  64.637  1.00  0.00    -0.354 C  
HETATM   29  O   UNL     1     -11.441  16.371  63.844  1.00  0.00    -1.063 OA 
HETATM   30  O   UNL     1     -12.490  14.538  64.611  1.00  0.00    -0.555 OA 
ENDBRANCH  15  16
ENDBRANCH   5  15
TORSDOF 2
ENDMDL
MODEL       14
REMARK 921   NORMALIZED FREE ENERGY PREDICTED BY IDOCK:   -7.01 KCAL/MOL
REMARK 922        TOTAL FREE ENERGY PREDICTED BY IDOCK:   -8.53 KCAL/MOL
REMARK 923 INTER-LIGAND FREE ENERGY PREDICTED BY IDOCK:   -8.64 KCAL/MOL
REMARK 924 INTRA-LIGAND FREE ENERGY PREDICTED BY IDOCK:    0.11 KCAL/MOL
REMARK 927      BINDING AFFINITY PREDICTED BY RF-SCORE:    0.00 PKD
ROOT
HETATM    1  O   UNL     1     -12.812  12.218  64.355  1.00  0.00    -0.624 OA 
HETATM    2  C   UNL     1     -11.491  12.360  63.796  1.00  0.00    -0.467 C  
HETATM    3  H   UNL     1     -13.188  11.412  64.020  1.00  0.00     0.000 HD 
HETATM    4  C   UNL     1     -10.885  13.664  64.338  1.00  0.00    -0.361 C  
HETATM    5  C   UNL     1     -10.488  13.510  65.838  1.00  0.00    -0.292 C  
HETATM    6  O   UNL     1     -11.856  14.691  64.071  1.00  0.00    -0.664 OA 
HETATM    7  O   UNL     1     -10.153   8.737  65.996  1.00  0.00    -0.228 OA 
HETATM    8  H   UNL     1     -11.481  15.497  64.405  1.00  0.00     0.000 HD 
HETATM    9  O   UNL     1      -9.665  12.334  66.027  1.00  0.00    -0.242 OA 
HETATM   10  C   UNL     1     -10.407  11.146  65.671  1.00  0.00    -0.254 C  
HETATM   11  O   UNL     1      -8.582  10.126  66.849  1.00  0.00    -0.125 OA 
HETATM   12  P   UNL     1      -9.110  11.003  63.133  1.00  0.00    -0.219 P  
HETATM   13  C   UNL     1     -10.677  11.116  64.162  1.00  0.00    -0.345 C  
HETATM   14  C   UNL     1      -9.727   9.870  66.159  1.00  0.00    -0.236 C  
ENDROOT
BRANCH   5  15
HETATM   15  O   UNL     1      -9.771  14.642  66.369  1.00  0.00    -0.267 OA 
BRANCH  15  16
HETATM   16  C   UNL     1     -10.570  15.707  66.949  1.00  0.00    -0.311 C  
HETATM   17  O   UNL     1     -12.653  14.377  67.162  1.00  0.00    -0.540 OA 
HETATM   18  C   UNL     1     -11.694  15.189  67.861  1.00  0.00    -0.256 C  
HETATM   19  C   UNL     1     -11.053  14.393  68.994  1.00  0.00    -0.261 C  
HETATM   20  O   UNL     1     -12.086  13.684  69.689  1.00  0.00    -0.316 OA 
HETATM   21  H   UNL     1     -13.348  14.057  67.725  1.00  0.00     0.000 HD 
HETATM   22  C   UNL     1     -10.219  15.369  69.851  1.00  0.00    -0.266 C  
HETATM   23  O   UNL     1      -9.231  16.048  69.055  1.00  0.00    -0.218 OA 
HETATM   24  O   UNL     1     -11.016  16.362  70.509  1.00  0.00    -0.296 OA 
HETATM   25  H   UNL     1     -11.687  13.189  70.394  1.00  0.00     0.000 HD 
HETATM   26  C   UNL     1      -9.650  16.614  67.800  1.00  0.00    -0.236 C  
HETATM   27  P   UNL     1     -11.895  15.946  71.811  1.00  0.00    -0.526 P  
HETATM   28  C   UNL     1     -10.266  18.022  67.887  1.00  0.00    -0.378 C  
HETATM   29  O   UNL     1     -10.207  18.575  69.117  1.00  0.00    -0.320 OA 
HETATM   30  O   UNL     1     -10.756  18.619  66.939  1.00  0.00    -0.395 OA 
ENDBRANCH  15  16
ENDBRANCH   5  15
TORSDOF 2
ENDMDL
MODEL       15
REMARK 921   NORMALIZED FREE ENERGY PREDICTED BY IDOCK:   -7.00 KCAL/MOL
REMARK 922        TOTAL FREE ENERGY PREDICTED BY IDOCK:   -8.53 KCAL/MOL
REMARK 923 INTER-LIGAND FREE ENERGY PREDICTED BY IDOCK:   -7.79 KCAL/MOL
REMARK 924 INTRA-LIGAND FREE ENERGY PREDICTED BY IDOCK:   -0.74 KCAL/MOL
REMARK 927      BINDING AFFINITY PREDICTED BY RF-SCORE:    0.00 PKD
ROOT
HETATM    1  O   UNL     1     -12.497  14.598  63.824  1.00  0.00    -1.041 OA 
HETATM    2  C   UNL     1     -12.523  14.251  65.223  1.00  0.00    -0.421 C  
HETATM    3  H   UNL     1     -12.677  15.528  63.749  1.00  0.00     0.000 HD 
HETATM    4  C   UNL     1     -12.234  12.747  65.344  1.00  0.00    -0.478 C  
HETATM    5  C   UNL     1     -10.731  12.446  65.057  1.00  0.00    -0.294 C  
HETATM    6  O   UNL     1     -13.162  12.094  64.459  1.00  0.00    -0.724 OA 
HETATM    7  O   UNL     1      -8.956  16.803  65.939  1.00  0.00    -0.497 OA 
HETATM    8  H   UNL     1     -12.983  11.164  64.535  1.00  0.00     0.000 HD 
HETATM    9  O   UNL     1      -9.881  13.294  65.865  1.00  0.00    -0.277 OA 
HETATM   10  C   UNL     1     -10.097  14.682  65.526  1.00  0.00    -0.377 C  
HETATM   11  O   UNL     1      -8.054  14.899  66.767  1.00  0.00    -0.155 OA 
HETATM   12  P   UNL     1     -11.760  15.061  67.814  1.00  0.00    -0.073 P  
HETATM   13  C   UNL     1     -11.501  15.125  65.955  1.00  0.00    -0.157 C  
HETATM   14  C   UNL     1      -9.010  15.592  66.090  1.00  0.00    -0.327 C  
ENDROOT
BRANCH   5  15
HETATM   15  O   UNL     1     -10.354  11.077  65.305  1.00  0.00    -0.264 OA 
BRANCH  15  16
HETATM   16  C   UNL     1      -9.634  10.811  66.537  1.00  0.00    -0.183 C  
HETATM   17  O   UNL     1     -11.625  10.147  67.859  1.00  0.00    -0.658 OA 
HETATM   18  C   UNL     1     -10.315   9.751  67.417  1.00  0.00    -0.240 C  
HETATM   19  C   UNL     1     -10.397   8.454  66.616  1.00  0.00    -0.228 C  
HETATM   20  O   UNL     1     -11.262   7.548  67.310  1.00  0.00    -0.521 OA 
HETATM   21  H   UNL     1     -12.046   9.492  68.403  1.00  0.00     0.000 HD 
HETATM   22  C   UNL     1      -8.958   7.952  66.373  1.00  0.00    -0.166 C  
HETATM   23  O   UNL     1      -8.166   8.945  65.695  1.00  0.00    -0.113 OA 
HETATM   24  O   UNL     1      -8.277   7.591  67.581  1.00  0.00    -0.116 OA 
HETATM   25  H   UNL     1     -11.313   6.742  66.811  1.00  0.00     0.000 HD 
HETATM   26  C   UNL     1      -8.217  10.296  66.186  1.00  0.00    -0.138 C  
HETATM   27  P   UNL     1      -8.654   6.195  68.323  1.00  0.00    -0.114 P  
HETATM   28  C   UNL     1      -7.261  10.609  67.352  1.00  0.00    -0.092 C  
HETATM   29  O   UNL     1      -6.420   9.600  67.661  1.00  0.00    -0.060 OA 
HETATM   30  O   UNL     1      -7.231  11.675  67.952  1.00  0.00    -0.075 OA 
ENDBRANCH  15  16
ENDBRANCH   5  15
TORSDOF 2
ENDMDL
MODEL       16
REMARK 921   NORMALIZED FREE ENERGY PREDICTED BY IDOCK:   -7.00 KCAL/MOL
REMARK 922        TOTAL FREE ENERGY PREDICTED BY IDOCK:   -8.53 KCAL/MOL
REMARK 923 INTER-LIGAND FREE ENERGY PREDICTED BY IDOCK:   -7.60 KCAL/MOL
REMARK 924 INTRA-LIGAND FREE ENERGY PREDICTED BY IDOCK:   -0.93 KCAL/MOL
REMARK 927      BINDING AFFINITY PREDICTED BY RF-SCORE:    0.00 PKD
ROOT
HETATM    1  O   UNL     1     -13.118  12.243  64.636  1.00  0.00    -0.770 OA 
HETATM    2  C   UNL     1     -11.691  12.451  64.645  1.00  0.00    -0.365 C  
HETATM    3  H   UNL     1     -13.282  11.342  64.383  1.00  0.00     0.000 HD 
HETATM    4  C   UNL     1     -11.426  13.908  65.054  1.00  0.00    -0.339 C  
HETATM    5  C   UNL     1     -11.703  14.117  66.574  1.00  0.00    -0.397 C  
HETATM    6  O   UNL     1     -12.231  14.716  64.175  1.00  0.00    -0.648 OA 
HETATM    7  O   UNL     1     -11.278   9.569  68.003  1.00  0.00    -0.090 OA 
HETATM    8  H   UNL     1     -12.067  15.617  64.428  1.00  0.00     0.000 HD 
HETATM    9  O   UNL     1     -10.994  13.130  67.359  1.00  0.00    -0.255 OA 
HETATM   10  C   UNL     1     -11.464  11.803  67.031  1.00  0.00    -0.298 C  
HETATM   11  O   UNL     1     -10.278  11.305  69.057  1.00  0.00    -0.205 OA 
HETATM   12  P   UNL     1      -9.203  11.331  65.356  1.00  0.00    -0.084 P  
HETATM   13  C   UNL     1     -11.062  11.431  65.599  1.00  0.00    -0.141 C  
HETATM   14  C   UNL     1     -11.008  10.759  68.046  1.00  0.00    -0.283 C  
ENDROOT
BRANCH   5  15
HETATM   15  O   UNL     1     -11.327  15.422  67.059  1.00  0.00    -0.288 OA 
BRANCH  15  16
HETATM   16  C   UNL     1     -10.017  15.911  66.666  1.00  0.00    -0.257 C  
HETATM   17  O   UNL     1     -10.821  17.298  64.773  1.00  0.00    -0.863 OA 
HETATM   18  C   UNL     1     -10.067  17.295  65.996  1.00  0.00    -0.262 C  
HETATM   19  C   UNL     1     -10.672  18.279  66.993  1.00  0.00    -0.276 C  
HETATM   20  O   UNL     1     -10.974  19.495  66.301  1.00  0.00    -0.353 OA 
HETATM   21  H   UNL     1     -10.853  18.152  64.359  1.00  0.00     0.000 HD 
HETATM   22  C   UNL     1      -9.699  18.412  68.184  1.00  0.00    -0.331 C  
HETATM   23  O   UNL     1      -9.441  17.133  68.792  1.00  0.00    -0.268 OA 
HETATM   24  O   UNL     1      -8.440  18.991  67.819  1.00  0.00    -0.283 OA 
HETATM   25  H   UNL     1     -11.351  20.108  66.921  1.00  0.00     0.000 HD 
HETATM   26  C   UNL     1      -9.128  16.027  67.927  1.00  0.00    -0.187 C  
HETATM   27  P   UNL     1      -8.345  20.589  67.546  1.00  0.00    -0.055 P  
HETATM   28  C   UNL     1      -7.648  15.912  67.515  1.00  0.00    -0.161 C  
HETATM   29  O   UNL     1      -6.835  16.796  68.131  1.00  0.00    -0.143 OA 
HETATM   30  O   UNL     1      -7.217  15.092  66.718  1.00  0.00    -0.001 OA 
ENDBRANCH  15  16
ENDBRANCH   5  15
TORSDOF 2
ENDMDL
MODEL       17
REMARK 921   NORMALIZED FREE ENERGY PREDICTED BY IDOCK:   -6.93 KCAL/MOL
REMARK 922        TOTAL FREE ENERGY PREDICTED BY IDOCK:   -8.45 KCAL/MOL
REMARK 923 INTER-LIGAND FREE ENERGY PREDICTED BY IDOCK:   -7.75 KCAL/MOL
REMARK 924 INTRA-LIGAND FREE ENERGY PREDICTED BY IDOCK:   -0.69 KCAL/MOL
REMARK 927      BINDING AFFINITY PREDICTED BY RF-SCORE:    0.00 PKD
ROOT
HETATM    1  O   UNL     1     -12.603  15.597  68.841  1.00  0.00    -0.469 OA 
HETATM    2  C   UNL     1     -11.256  15.296  68.425  1.00  0.00    -0.309 C  
HETATM    3  H   UNL     1     -12.848  16.433  68.463  1.00  0.00     0.000 HD 
HETATM    4  C   UNL     1     -10.860  13.944  69.038  1.00  0.00    -0.225 C  
HETATM    5  C   UNL     1     -11.594  12.772  68.317  1.00  0.00    -0.334 C  
HETATM    6  O   UNL     1     -11.133  14.055  70.446  1.00  0.00    -0.471 OA 
HETATM    7  O   UNL     1     -12.611  14.997  64.203  1.00  0.00    -0.770 OA 
HETATM    8  H   UNL     1     -10.888  13.219  70.825  1.00  0.00     0.000 HD 
HETATM    9  O   UNL     1     -11.412  12.865  66.884  1.00  0.00    -0.305 OA 
HETATM   10  C   UNL     1     -11.998  14.089  66.387  1.00  0.00    -0.438 C  
HETATM   11  O   UNL     1     -11.707  12.924  64.309  1.00  0.00    -0.341 OA 
HETATM   12  P   UNL     1      -9.443  15.354  66.266  1.00  0.00    -0.346 P  
HETATM   13  C   UNL     1     -11.212  15.303  66.894  1.00  0.00    -0.256 C  
HETATM   14  C   UNL     1     -12.138  14.088  64.867  1.00  0.00    -0.420 C  
ENDROOT
BRANCH   5  15
HETATM   15  O   UNL     1     -11.153  11.465  68.736  1.00  0.00    -0.199 OA 
BRANCH  15  16
HETATM   16  C   UNL     1     -10.132  10.829  67.922  1.00  0.00    -0.172 C  
HETATM   17  O   UNL     1      -8.203  11.935  69.022  1.00  0.00    -0.355 OA 
HETATM   18  C   UNL     1      -8.788  10.675  68.653  1.00  0.00    -0.151 C  
HETATM   19  C   UNL     1      -9.022   9.817  69.894  1.00  0.00    -0.229 C  
HETATM   20  O   UNL     1      -7.855   9.890  70.720  1.00  0.00    -0.391 OA 
HETATM   21  H   UNL     1      -7.373  11.841  69.474  1.00  0.00     0.000 HD 
HETATM   22  C   UNL     1      -9.423   8.402  69.426  1.00  0.00    -0.158 C  
HETATM   23  O   UNL     1     -10.588   8.441  68.582  1.00  0.00    -0.196 OA 
HETATM   24  O   UNL     1      -8.379   7.730  68.710  1.00  0.00    -0.126 OA 
HETATM   25  H   UNL     1      -8.000   9.357  71.492  1.00  0.00     0.000 HD 
HETATM   26  C   UNL     1     -10.620   9.415  67.524  1.00  0.00    -0.267 C  
HETATM   27  P   UNL     1      -7.116   7.117  69.528  1.00  0.00    -0.074 P  
HETATM   28  C   UNL     1      -9.926   8.990  66.217  1.00  0.00    -0.281 C  
HETATM   29  O   UNL     1      -9.497   7.710  66.212  1.00  0.00    -0.176 OA 
HETATM   30  O   UNL     1      -9.778   9.719  65.246  1.00  0.00    -0.294 OA 
ENDBRANCH  15  16
ENDBRANCH   5  15
TORSDOF 2
ENDMDL
MODEL       18
REMARK 921   NORMALIZED FREE ENERGY PREDICTED BY IDOCK:   -6.91 KCAL/MOL
REMARK 922        TOTAL FREE ENERGY PREDICTED BY IDOCK:   -8.43 KCAL/MOL
REMARK 923 INTER-LIGAND FREE ENERGY PREDICTED BY IDOCK:   -7.60 KCAL/MOL
REMARK 924 INTRA-LIGAND FREE ENERGY PREDICTED BY IDOCK:   -0.83 KCAL/MOL
REMARK 927      BINDING AFFINITY PREDICTED BY RF-SCORE:    0.00 PKD
ROOT
HETATM    1  O   UNL     1      -9.126  11.915  62.851  1.00  0.00    -0.639 OA 
HETATM    2  C   UNL     1     -10.352  11.677  63.572  1.00  0.00    -0.441 C  
HETATM    3  H   UNL     1      -9.310  12.538  62.157  1.00  0.00     0.000 HD 
HETATM    4  C   UNL     1     -10.055  10.671  64.694  1.00  0.00    -0.349 C  
HETATM    5  C   UNL     1      -9.236  11.342  65.839  1.00  0.00    -0.212 C  
HETATM    6  O   UNL     1      -9.405   9.554  64.059  1.00  0.00    -0.421 OA 
HETATM    7  O   UNL     1     -10.380  15.903  64.949  1.00  0.00    -0.517 OA 
HETATM    8  H   UNL     1      -9.222   8.932  64.753  1.00  0.00     0.000 HD 
HETATM    9  O   UNL     1      -9.880  12.562  66.275  1.00  0.00    -0.243 OA 
HETATM   10  C   UNL     1      -9.929  13.514  65.189  1.00  0.00    -0.176 C  
HETATM   11  O   UNL     1     -10.451  14.981  67.015  1.00  0.00    -0.269 OA 
HETATM   12  P   UNL     1     -12.660  12.882  64.655  1.00  0.00    -0.266 P  
HETATM   13  C   UNL     1     -10.875  13.021  64.088  1.00  0.00    -0.405 C  
HETATM   14  C   UNL     1     -10.284  14.919  65.666  1.00  0.00    -0.358 C  
ENDROOT
BRANCH   5  15
HETATM   15  O   UNL     1      -9.055  10.499  66.995  1.00  0.00    -0.143 OA 
BRANCH  15  16
HETATM   16  C   UNL     1     -10.259  10.083  67.694  1.00  0.00    -0.204 C  
HETATM   17  O   UNL     1     -10.502   7.913  66.517  1.00  0.00    -0.475 OA 
HETATM   18  C   UNL     1     -10.398   8.556  67.798  1.00  0.00    -0.237 C  
HETATM   19  C   UNL     1      -9.187   8.023  68.561  1.00  0.00    -0.135 C  
HETATM   20  O   UNL     1      -9.164   6.598  68.431  1.00  0.00    -0.125 OA 
HETATM   21  H   UNL     1     -10.588   6.970  66.581  1.00  0.00     0.000 HD 
HETATM   22  C   UNL     1      -9.258   8.562  70.005  1.00  0.00    -0.155 C  
HETATM   23  O   UNL     1      -9.305  10.001  70.024  1.00  0.00    -0.217 OA 
HETATM   24  O   UNL     1     -10.391   8.073  70.734  1.00  0.00    -0.197 OA 
HETATM   25  H   UNL     1      -8.410   6.266  68.905  1.00  0.00     0.000 HD 
HETATM   26  C   UNL     1     -10.224  10.656  69.131  1.00  0.00    -0.220 C  
HETATM   27  P   UNL     1     -10.384   6.546  71.289  1.00  0.00    -0.211 P  
HETATM   28  C   UNL     1     -11.665  10.795  69.656  1.00  0.00    -0.323 C  
HETATM   29  O   UNL     1     -11.826  10.395  70.934  1.00  0.00    -0.331 OA 
HETATM   30  O   UNL     1     -12.596  11.243  69.002  1.00  0.00    -0.332 OA 
ENDBRANCH  15  16
ENDBRANCH   5  15
TORSDOF 2
ENDMDL
MODEL       19
REMARK 921   NORMALIZED FREE ENERGY PREDICTED BY IDOCK:   -6.88 KCAL/MOL
REMARK 922        TOTAL FREE ENERGY PREDICTED BY IDOCK:   -8.39 KCAL/MOL
REMARK 923 INTER-LIGAND FREE ENERGY PREDICTED BY IDOCK:   -7.60 KCAL/MOL
REMARK 924 INTRA-LIGAND FREE ENERGY PREDICTED BY IDOCK:   -0.78 KCAL/MOL
REMARK 927      BINDING AFFINITY PREDICTED BY RF-SCORE:    0.00 PKD
ROOT
HETATM    1  O   UNL     1     -11.478  16.885  68.886  1.00  0.00    -0.153 OA 
HETATM    2  C   UNL     1     -10.126  16.597  68.476  1.00  0.00    -0.266 C  
HETATM    3  H   UNL     1     -11.714  17.738  68.542  1.00  0.00     0.000 HD 
HETATM    4  C   UNL     1      -9.744  15.218  69.034  1.00  0.00    -0.234 C  
HETATM    5  C   UNL     1     -10.473  14.082  68.251  1.00  0.00    -0.244 C  
HETATM    6  O   UNL     1     -10.037  15.267  70.442  1.00  0.00    -0.481 OA 
HETATM    7  O   UNL     1     -11.422  16.492  64.226  1.00  0.00    -1.000 OA 
HETATM    8  H   UNL     1      -9.801  14.414  70.786  1.00  0.00     0.000 HD 
HETATM    9  O   UNL     1     -10.270  14.237  66.827  1.00  0.00    -0.264 OA 
HETATM   10  C   UNL     1     -10.844  15.485  66.376  1.00  0.00    -0.277 C  
HETATM   11  O   UNL     1     -10.528  14.412  64.252  1.00  0.00    -0.085 OA 
HETATM   12  P   UNL     1      -8.283  16.743  66.347  1.00  0.00    -0.290 P  
HETATM   13  C   UNL     1     -10.061  16.672  66.948  1.00  0.00    -0.280 C  
HETATM   14  C   UNL     1     -10.963  15.552  64.856  1.00  0.00    -0.436 C  
ENDROOT
BRANCH   5  15
HETATM   15  O   UNL     1     -10.043  12.756  68.618  1.00  0.00    -0.209 OA 
BRANCH  15  16
HETATM   16  C   UNL     1     -11.081  11.751  68.765  1.00  0.00    -0.241 C  
HETATM   17  O   UNL     1     -11.750  11.722  66.377  1.00  0.00    -0.511 OA 
HETATM   18  C   UNL     1     -11.307  10.925  67.488  1.00  0.00    -0.232 C  
HETATM   19  C   UNL     1      -9.997  10.221  67.145  1.00  0.00    -0.197 C  
HETATM   20  O   UNL     1     -10.111   9.674  65.826  1.00  0.00    -0.290 OA 
HETATM   21  H   UNL     1     -11.890  11.212  65.588  1.00  0.00     0.000 HD 
HETATM   22  C   UNL     1      -9.693   9.205  68.266  1.00  0.00    -0.154 C  
HETATM   23  O   UNL     1      -9.626   9.850  69.551  1.00  0.00    -0.199 OA 
HETATM   24  O   UNL     1     -10.661   8.152  68.349  1.00  0.00    -0.137 OA 
HETATM   25  H   UNL     1      -9.295   9.236  65.612  1.00  0.00     0.000 HD 
HETATM   26  C   UNL     1     -10.673  10.775  69.895  1.00  0.00    -0.144 C  
HETATM   27  P   UNL     1     -10.642   6.961  67.245  1.00  0.00    -0.366 P  
HETATM   28  C   UNL     1     -11.940  10.139  70.496  1.00  0.00    -0.311 C  
HETATM   29  O   UNL     1     -11.834   8.815  70.732  1.00  0.00    -0.266 OA 
HETATM   30  O   UNL     1     -12.961  10.757  70.765  1.00  0.00    -0.336 OA 
ENDBRANCH  15  16
ENDBRANCH   5  15
TORSDOF 2
ENDMDL
MODEL       20
REMARK 921   NORMALIZED FREE ENERGY PREDICTED BY IDOCK:   -6.80 KCAL/MOL
REMARK 922        TOTAL FREE ENERGY PREDICTED BY IDOCK:   -8.30 KCAL/MOL
REMARK 923 INTER-LIGAND FREE ENERGY PREDICTED BY IDOCK:   -7.47 KCAL/MOL
REMARK 924 INTRA-LIGAND FREE ENERGY PREDICTED BY IDOCK:   -0.82 KCAL/MOL
REMARK 927      BINDING AFFINITY PREDICTED BY RF-SCORE:    0.00 PKD
ROOT
HETATM    1  O   UNL     1     -11.528  16.350  63.709  1.00  0.00    -1.590 OA 
HETATM    2  C   UNL     1     -11.741  16.067  65.106  1.00  0.00     0.348 C  
HETATM    3  H   UNL     1     -11.453  17.291  63.608  1.00  0.00     0.000 HD 
HETATM    4  C   UNL     1     -11.861  14.544  65.269  1.00  0.00    -0.358 C  
HETATM    5  C   UNL     1     -10.471  13.856  65.100  1.00  0.00    -0.393 C  
HETATM    6  O   UNL     1     -12.862  14.124  64.324  1.00  0.00    -0.607 OA 
HETATM    7  O   UNL     1      -7.692  17.634  66.057  1.00  0.00    -0.437 OA 
HETATM    8  H   UNL     1     -12.936  13.183  64.426  1.00  0.00     0.000 HD 
HETATM    9  O   UNL     1      -9.489  14.482  65.959  1.00  0.00    -0.292 OA 
HETATM   10  C   UNL     1      -9.313  15.867  65.587  1.00  0.00    -0.130 C  
HETATM   11  O   UNL     1      -7.376  15.589  66.976  1.00  0.00    -0.207 OA 
HETATM   12  P   UNL     1     -10.976  16.736  67.736  1.00  0.00    -0.032 P  
HETATM   13  C   UNL     1     -10.580  16.670  65.902  1.00  0.00    -0.249 C  
HETATM   14  C   UNL     1      -8.068  16.484  66.219  1.00  0.00    -0.306 C  
ENDROOT
BRANCH   5  15
HETATM   15  O   UNL     1     -10.482  12.445  65.394  1.00  0.00    -0.264 OA 
BRANCH  15  16
HETATM   16  C   UNL     1      -9.545  11.982  66.403  1.00  0.00    -0.228 C  
HETATM   17  O   UNL     1     -10.862  12.764  68.354  1.00  0.00    -0.231 OA 
HETATM   18  C   UNL     1     -10.221  11.633  67.739  1.00  0.00    -0.186 C  
HETATM   19  C   UNL     1     -11.239  10.526  67.478  1.00  0.00    -0.224 C  
HETATM   20  O   UNL     1     -12.058  10.382  68.643  1.00  0.00    -0.751 OA 
HETATM   21  H   UNL     1     -11.280  12.549  69.179  1.00  0.00     0.000 HD 
HETATM   22  C   UNL     1     -10.467   9.262  67.044  1.00  0.00    -0.233 C  
HETATM   23  O   UNL     1      -9.654   9.519  65.884  1.00  0.00    -0.221 OA 
HETATM   24  O   UNL     1      -9.617   8.740  68.073  1.00  0.00    -0.139 OA 
HETATM   25  H   UNL     1     -12.692   9.693  68.480  1.00  0.00     0.000 HD 
HETATM   26  C   UNL     1      -8.841  10.706  65.881  1.00  0.00    -0.174 C  
HETATM   27  P   UNL     1     -10.275   7.928  69.317  1.00  0.00    -0.217 P  
HETATM   28  C   UNL     1      -7.471  10.566  66.570  1.00  0.00    -0.128 C  
HETATM   29  O   UNL     1      -7.179   9.309  66.966  1.00  0.00    -0.085 OA 
HETATM   30  O   UNL     1      -6.688  11.490  66.741  1.00  0.00    -0.140 OA 
ENDBRANCH  15  16
ENDBRANCH   5  15
TORSDOF 2
ENDMDL
MODEL       21
REMARK 921   NORMALIZED FREE ENERGY PREDICTED BY IDOCK:   -6.77 KCAL/MOL
REMARK 922        TOTAL FREE ENERGY PREDICTED BY IDOCK:   -8.27 KCAL/MOL
REMARK 923 INTER-LIGAND FREE ENERGY PREDICTED BY IDOCK:   -7.76 KCAL/MOL
REMARK 924 INTRA-LIGAND FREE ENERGY PREDICTED BY IDOCK:   -0.52 KCAL/MOL
REMARK 927      BINDING AFFINITY PREDICTED BY RF-SCORE:    0.00 PKD
ROOT
HETATM    1  O   UNL     1     -11.728   6.589  69.273  1.00  0.00    -0.644 OA 
HETATM    2  C   UNL     1     -10.413   6.465  68.696  1.00  0.00    -0.223 C  
HETATM    3  H   UNL     1     -11.728   6.132  70.106  1.00  0.00     0.000 HD 
HETATM    4  C   UNL     1     -10.413   7.205  67.350  1.00  0.00    -0.284 C  
HETATM    5  C   UNL     1     -10.429   8.749  67.565  1.00  0.00    -0.271 C  
HETATM    6  O   UNL     1     -11.536   6.685  66.615  1.00  0.00    -0.709 OA 
HETATM    7  O   UNL     1      -8.707   8.858  72.030  1.00  0.00    -0.365 OA 
HETATM    8  H   UNL     1     -11.535   7.142  65.782  1.00  0.00     0.000 HD 
HETATM    9  O   UNL     1      -9.374   9.145  68.474  1.00  0.00    -0.136 OA 
HETATM   10  C   UNL     1      -9.584   8.544  69.771  1.00  0.00    -0.170 C  
HETATM   11  O   UNL     1      -7.945  10.192  70.368  1.00  0.00    -0.181 OA 
HETATM   12  P   UNL     1      -7.645   6.520  69.234  1.00  0.00    -0.103 P  
HETATM   13  C   UNL     1      -9.395   7.025  69.694  1.00  0.00    -0.149 C  
HETATM   14  C   UNL     1      -8.713   9.178  70.852  1.00  0.00    -0.221 C  
ENDROOT
BRANCH   5  15
HETATM   15  O   UNL     1     -10.273   9.508  66.349  1.00  0.00    -0.264 OA 
BRANCH  15  16
HETATM   16  C   UNL     1      -9.818  10.880  66.490  1.00  0.00    -0.204 C  
HETATM   17  O   UNL     1      -8.803  11.045  64.232  1.00  0.00    -0.344 OA 
HETATM   18  C   UNL     1      -9.743  11.630  65.150  1.00  0.00    -0.219 C  
HETATM   19  C   UNL     1     -11.141  11.644  64.538  1.00  0.00    -0.301 C  
HETATM   20  O   UNL     1     -11.036  12.093  63.182  1.00  0.00    -0.676 OA 
HETATM   21  H   UNL     1      -8.757  11.508  63.404  1.00  0.00     0.000 HD 
HETATM   22  C   UNL     1     -12.054  12.487  65.453  1.00  0.00    -0.435 C  
HETATM   23  O   UNL     1     -12.068  11.970  66.796  1.00  0.00    -0.613 OA 
HETATM   24  O   UNL     1     -11.669  13.866  65.514  1.00  0.00    -0.329 OA 
HETATM   25  H   UNL     1     -11.906  12.101  62.802  1.00  0.00     0.000 HD 
HETATM   26  C   UNL     1     -10.806  11.642  67.405  1.00  0.00    -0.250 C  
HETATM   27  P   UNL     1     -12.000  14.844  64.259  1.00  0.00    -0.044 P  
HETATM   28  C   UNL     1     -10.073  12.819  68.073  1.00  0.00    -0.230 C  
HETATM   29  O   UNL     1     -10.783  13.966  68.102  1.00  0.00    -0.240 OA 
HETATM   30  O   UNL     1      -8.953  12.746  68.560  1.00  0.00    -0.152 OA 
ENDBRANCH  15  16
ENDBRANCH   5  15
TORSDOF 2
ENDMDL
MODEL       22
REMARK 921   NORMALIZED FREE ENERGY PREDICTED BY IDOCK:   -6.76 KCAL/MOL
REMARK 922        TOTAL FREE ENERGY PREDICTED BY IDOCK:   -8.26 KCAL/MOL
REMARK 923 INTER-LIGAND FREE ENERGY PREDICTED BY IDOCK:   -7.46 KCAL/MOL
REMARK 924 INTRA-LIGAND FREE ENERGY PREDICTED BY IDOCK:   -0.80 KCAL/MOL
REMARK 927      BINDING AFFINITY PREDICTED BY RF-SCORE:    0.00 PKD
ROOT
HETATM    1  O   UNL     1     -12.492  14.596  68.760  1.00  0.00    -0.579 OA 
HETATM    2  C   UNL     1     -11.205  13.946  68.738  1.00  0.00    -0.272 C  
HETATM    3  H   UNL     1     -12.406  15.434  68.322  1.00  0.00     0.000 HD 
HETATM    4  C   UNL     1     -11.346  12.590  69.446  1.00  0.00    -0.210 C  
HETATM    5  C   UNL     1     -12.133  11.579  68.558  1.00  0.00    -0.088 C  
HETATM    6  O   UNL     1     -11.948  12.873  70.722  1.00  0.00    -0.500 OA 
HETATM    7  O   UNL     1     -11.411  13.657  64.307  1.00  0.00    -0.379 OA 
HETATM    8  H   UNL     1     -12.035  12.034  71.160  1.00  0.00     0.000 HD 
HETATM    9  O   UNL     1     -11.557  11.513  67.232  1.00  0.00    -0.506 OA 
HETATM   10  C   UNL     1     -11.657  12.800  66.582  1.00  0.00    -0.370 C  
HETATM   11  O   UNL     1     -11.127  11.441  64.676  1.00  0.00    -0.290 OA 
HETATM   12  P   UNL     1      -8.928  13.394  67.168  1.00  0.00    -0.209 P  
HETATM   13  C   UNL     1     -10.753  13.823  67.279  1.00  0.00    -0.283 C  
HETATM   14  C   UNL     1     -11.381  12.715  65.084  1.00  0.00    -0.308 C  
ENDROOT
BRANCH   5  15
HETATM   15  O   UNL     1     -12.168  10.240  69.093  1.00  0.00    -0.051 OA 
BRANCH  15  16
HETATM   16  C   UNL     1     -11.117   9.885  70.030  1.00  0.00    -0.285 C  
HETATM   17  O   UNL     1     -12.441  10.332  72.080  1.00  0.00    -0.326 OA 
HETATM   18  C   UNL     1     -11.658   9.358  71.370  1.00  0.00    -0.381 C  
HETATM   19  C   UNL     1     -12.493   8.113  71.084  1.00  0.00    -0.182 C  
HETATM   20  O   UNL     1     -13.217   7.774  72.272  1.00  0.00    -0.505 OA 
HETATM   21  H   UNL     1     -12.775  10.007  72.907  1.00  0.00     0.000 HD 
HETATM   22  C   UNL     1     -11.550   7.019  70.541  1.00  0.00    -0.319 C  
HETATM   23  O   UNL     1     -10.851   7.470  69.365  1.00  0.00    -0.224 OA 
HETATM   24  O   UNL     1     -10.574   6.591  71.499  1.00  0.00    -0.222 OA 
HETATM   25  H   UNL     1     -13.738   6.999  72.095  1.00  0.00     0.000 HD 
HETATM   26  C   UNL     1     -10.243   8.773  69.402  1.00  0.00    -0.210 C  
HETATM   27  P   UNL     1     -11.026   5.616  72.717  1.00  0.00    -0.300 P  
HETATM   28  C   UNL     1      -8.835   8.825  70.022  1.00  0.00    -0.146 C  
HETATM   29  O   UNL     1      -8.323   7.614  70.327  1.00  0.00    -0.128 OA 
HETATM   30  O   UNL     1      -8.205   9.855  70.216  1.00  0.00    -0.185 OA 
ENDBRANCH  15  16
ENDBRANCH   5  15
TORSDOF 2
ENDMDL
MODEL       23
REMARK 921   NORMALIZED FREE ENERGY PREDICTED BY IDOCK:   -6.75 KCAL/MOL
REMARK 922        TOTAL FREE ENERGY PREDICTED BY IDOCK:   -8.24 KCAL/MOL
REMARK 923 INTER-LIGAND FREE ENERGY PREDICTED BY IDOCK:   -8.10 KCAL/MOL
REMARK 924 INTRA-LIGAND FREE ENERGY PREDICTED BY IDOCK:   -0.14 KCAL/MOL
REMARK 927      BINDING AFFINITY PREDICTED BY RF-SCORE:    0.00 PKD
ROOT
HETATM    1  O   UNL     1     -13.339  14.321  65.138  1.00  0.00    -0.626 OA 
HETATM    2  C   UNL     1     -12.203  13.991  64.315  1.00  0.00    -0.418 C  
HETATM    3  H   UNL     1     -13.900  13.556  65.186  1.00  0.00     0.000 HD 
HETATM    4  C   UNL     1     -11.297  15.229  64.238  1.00  0.00    -0.103 C  
HETATM    5  C   UNL     1     -10.549  15.454  65.589  1.00  0.00    -0.364 C  
HETATM    6  O   UNL     1     -12.147  16.316  63.829  1.00  0.00    -1.337 OA 
HETATM    7  O   UNL     1     -10.870  11.005  67.325  1.00  0.00    -0.248 OA 
HETATM    8  H   UNL     1     -11.586  17.081  63.781  1.00  0.00     0.000 HD 
HETATM    9  O   UNL     1      -9.882  14.240  66.007  1.00  0.00    -0.302 OA 
HETATM   10  C   UNL     1     -10.853  13.195  66.240  1.00  0.00    -0.279 C  
HETATM   11  O   UNL     1      -8.949  12.204  67.314  1.00  0.00    -0.171 OA 
HETATM   12  P   UNL     1     -10.295  12.005  63.707  1.00  0.00    -0.461 P  
HETATM   13  C   UNL     1     -11.507  12.769  64.921  1.00  0.00    -0.320 C  
HETATM   14  C   UNL     1     -10.258  12.011  66.997  1.00  0.00    -0.203 C  
ENDROOT
BRANCH   5  15
HETATM   15  O   UNL     1      -9.564  16.506  65.540  1.00  0.00    -0.502 OA 
BRANCH  15  16
HETATM   16  C   UNL     1      -8.383  16.333  66.367  1.00  0.00    -0.330 C  
HETATM   17  O   UNL     1      -6.903  17.785  65.006  1.00  0.00     0.105 OA 
HETATM   18  C   UNL     1      -7.432  17.540  66.320  1.00  0.00    -0.319 C  
HETATM   19  C   UNL     1      -8.198  18.763  66.819  1.00  0.00    -0.278 C  
HETATM   20  O   UNL     1      -7.422  19.931  66.528  1.00  0.00    -0.252 OA 
HETATM   21  H   UNL     1      -6.315  18.531  64.977  1.00  0.00     0.000 HD 
HETATM   22  C   UNL     1      -8.536  18.539  68.308  1.00  0.00    -0.318 C  
HETATM   23  O   UNL     1      -9.292  17.329  68.495  1.00  0.00    -0.262 OA 
HETATM   24  O   UNL     1      -7.375  18.470  69.145  1.00  0.00    -0.251 OA 
HETATM   25  H   UNL     1      -7.898  20.692  66.837  1.00  0.00     0.000 HD 
HETATM   26  C   UNL     1      -8.828  16.137  67.836  1.00  0.00    -0.182 C  
HETATM   27  P   UNL     1      -6.577  19.836  69.517  1.00  0.00    -0.275 P  
HETATM   28  C   UNL     1      -7.744  15.347  68.593  1.00  0.00    -0.143 C  
HETATM   29  O   UNL     1      -7.477  15.822  69.827  1.00  0.00    -0.159 OA 
HETATM   30  O   UNL     1      -7.171  14.363  68.147  1.00  0.00    -0.104 OA 
ENDBRANCH  15  16
ENDBRANCH   5  15
TORSDOF 2
ENDMDL
MODEL       24
REMARK 921   NORMALIZED FREE ENERGY PREDICTED BY IDOCK:   -6.66 KCAL/MOL
REMARK 922        TOTAL FREE ENERGY PREDICTED BY IDOCK:   -8.14 KCAL/MOL
REMARK 923 INTER-LIGAND FREE ENERGY PREDICTED BY IDOCK:   -7.73 KCAL/MOL
REMARK 924 INTRA-LIGAND FREE ENERGY PREDICTED BY IDOCK:   -0.42 KCAL/MOL
REMARK 927      BINDING AFFINITY PREDICTED BY RF-SCORE:    0.00 PKD
ROOT
HETATM    1  O   UNL     1     -12.659  14.356  68.302  1.00  0.00    -0.519 OA 
HETATM    2  C   UNL     1     -11.309  14.494  67.817  1.00  0.00    -0.317 C  
HETATM    3  H   UNL     1     -13.151  15.119  68.022  1.00  0.00     0.000 HD 
HETATM    4  C   UNL     1     -10.513  13.260  68.271  1.00  0.00    -0.250 C  
HETATM    5  C   UNL     1     -10.929  12.000  67.452  1.00  0.00    -0.261 C  
HETATM    6  O   UNL     1     -10.723  13.157  69.691  1.00  0.00    -0.425 OA 
HETATM    7  O   UNL     1     -12.771  14.213  63.629  1.00  0.00    -0.790 OA 
HETATM    8  H   UNL     1     -10.231  12.395  69.971  1.00  0.00     0.000 HD 
HETATM    9  O   UNL     1     -10.864  12.273  66.033  1.00  0.00    -0.258 OA 
HETATM   10  C   UNL     1     -11.799  13.319  65.685  1.00  0.00    -0.380 C  
HETATM   11  O   UNL     1     -11.315  12.484  63.488  1.00  0.00    -0.453 OA 
HETATM   12  P   UNL     1      -9.716  15.267  65.622  1.00  0.00    -0.184 P  
HETATM   13  C   UNL     1     -11.359  14.654  66.294  1.00  0.00    -0.347 C  
HETATM   14  C   UNL     1     -12.023  13.419  64.179  1.00  0.00    -0.450 C  
ENDROOT
BRANCH   5  15
HETATM   15  O   UNL     1     -10.114  10.840  67.717  1.00  0.00    -0.168 OA 
BRANCH  15  16
HETATM   16  C   UNL     1     -10.648   9.867  68.654  1.00  0.00    -0.217 C  
HETATM   17  O   UNL     1     -11.011   8.073  66.980  1.00  0.00    -0.447 OA 
HETATM   18  C   UNL     1     -10.385   8.414  68.229  1.00  0.00    -0.199 C  
HETATM   19  C   UNL     1      -8.875   8.216  68.134  1.00  0.00    -0.132 C  
HETATM   20  O   UNL     1      -8.623   6.965  67.484  1.00  0.00    -0.121 OA 
HETATM   21  H   UNL     1     -10.849   7.175  66.717  1.00  0.00     0.000 HD 
HETATM   22  C   UNL     1      -8.284   8.362  69.553  1.00  0.00    -0.118 C  
HETATM   23  O   UNL     1      -8.616   9.640  70.127  1.00  0.00    -0.193 OA 
HETATM   24  O   UNL     1      -8.729   7.342  70.455  1.00  0.00    -0.144 OA 
HETATM   25  H   UNL     1      -7.683   6.842  67.425  1.00  0.00     0.000 HD 
HETATM   26  C   UNL     1      -9.981  10.085  70.034  1.00  0.00    -0.222 C  
HETATM   27  P   UNL     1      -8.110   5.845  70.337  1.00  0.00    -0.109 P  
HETATM   28  C   UNL     1     -10.920   9.563  71.138  1.00  0.00    -0.368 C  
HETATM   29  O   UNL     1     -10.294   8.864  72.107  1.00  0.00    -0.333 OA 
HETATM   30  O   UNL     1     -12.126   9.765  71.169  1.00  0.00    -0.319 OA 
ENDBRANCH  15  16
ENDBRANCH   5  15
TORSDOF 2
ENDMDL
MODEL       25
REMARK 921   NORMALIZED FREE ENERGY PREDICTED BY IDOCK:   -6.62 KCAL/MOL
REMARK 922        TOTAL FREE ENERGY PREDICTED BY IDOCK:   -8.10 KCAL/MOL
REMARK 923 INTER-LIGAND FREE ENERGY PREDICTED BY IDOCK:   -7.37 KCAL/MOL
REMARK 924 INTRA-LIGAND FREE ENERGY PREDICTED BY IDOCK:   -0.74 KCAL/MOL
REMARK 927      BINDING AFFINITY PREDICTED BY RF-SCORE:    0.00 PKD
ROOT
HETATM    1  O   UNL     1      -9.595  20.766  66.355  1.00  0.00    -0.627 OA 
HETATM    2  C   UNL     1      -9.159  20.072  67.541  1.00  0.00    -0.356 C  
HETATM    3  H   UNL     1      -9.040  21.528  66.240  1.00  0.00     0.000 HD 
HETATM    4  C   UNL     1     -10.058  18.840  67.728  1.00  0.00    -0.368 C  
HETATM    5  C   UNL     1      -9.719  17.741  66.675  1.00  0.00    -0.313 C  
HETATM    6  O   UNL     1     -11.410  19.328  67.679  1.00  0.00    -0.149 OA 
HETATM    7  O   UNL     1      -5.274  19.148  65.589  1.00  0.00    -0.147 OA 
HETATM    8  H   UNL     1     -11.966  18.567  67.794  1.00  0.00     0.000 HD 
HETATM    9  O   UNL     1      -8.299  17.460  66.675  1.00  0.00    -0.232 OA 
HETATM   10  C   UNL     1      -7.559  18.641  66.293  1.00  0.00    -0.263 C  
HETATM   11  O   UNL     1      -5.825  17.000  66.049  1.00  0.00    -0.225 OA 
HETATM   12  P   UNL     1      -6.913  19.211  69.013  1.00  0.00    -0.306 P  
HETATM   13  C   UNL     1      -7.677  19.720  67.375  1.00  0.00    -0.272 C  
HETATM   14  C   UNL     1      -6.105  18.328  65.949  1.00  0.00    -0.224 C  
ENDROOT
BRANCH   5  15
HETATM   15  O   UNL     1     -10.416  16.497  66.888  1.00  0.00    -0.303 OA 
BRANCH  15  16
HETATM   16  C   UNL     1      -9.713  15.477  67.647  1.00  0.00    -0.212 C  
HETATM   17  O   UNL     1     -10.588  16.158  69.865  1.00  0.00    -0.301 OA 
HETATM   18  C   UNL     1     -10.446  15.071  68.935  1.00  0.00    -0.241 C  
HETATM   19  C   UNL     1     -11.817  14.526  68.546  1.00  0.00    -0.320 C  
HETATM   20  O   UNL     1     -12.607  14.400  69.733  1.00  0.00    -0.506 OA 
HETATM   21  H   UNL     1     -11.041  15.908  70.661  1.00  0.00     0.000 HD 
HETATM   22  C   UNL     1     -11.603  13.224  67.744  1.00  0.00    -0.342 C  
HETATM   23  O   UNL     1     -10.776  13.453  66.588  1.00  0.00    -0.279 OA 
HETATM   24  O   UNL     1     -11.002  12.179  68.519  1.00  0.00    -0.214 OA 
HETATM   25  H   UNL     1     -13.461  14.061  69.491  1.00  0.00     0.000 HD 
HETATM   26  C   UNL     1      -9.567  14.212  66.766  1.00  0.00    -0.282 C  
HETATM   27  P   UNL     1     -11.900  11.376  69.609  1.00  0.00    -0.378 P  
HETATM   28  C   UNL     1      -8.345  13.404  67.240  1.00  0.00    -0.176 C  
HETATM   29  O   UNL     1      -8.555  12.072  67.297  1.00  0.00    -0.162 OA 
HETATM   30  O   UNL     1      -7.263  13.895  67.527  1.00  0.00    -0.170 OA 
ENDBRANCH  15  16
ENDBRANCH   5  15
TORSDOF 2
ENDMDL
MODEL       26
REMARK 921   NORMALIZED FREE ENERGY PREDICTED BY IDOCK:   -6.60 KCAL/MOL
REMARK 922        TOTAL FREE ENERGY PREDICTED BY IDOCK:   -8.08 KCAL/MOL
REMARK 923 INTER-LIGAND FREE ENERGY PREDICTED BY IDOCK:   -7.67 KCAL/MOL
REMARK 924 INTRA-LIGAND FREE ENERGY PREDICTED BY IDOCK:   -0.41 KCAL/MOL
REMARK 927      BINDING AFFINITY PREDICTED BY RF-SCORE:    0.00 PKD
ROOT
HETATM    1  O   UNL     1      -9.103   9.040  64.331  1.00  0.00    -0.429 OA 
HETATM    2  C   UNL     1      -8.395   8.919  65.581  1.00  0.00    -0.139 C  
HETATM    3  H   UNL     1      -8.918   8.266  63.812  1.00  0.00     0.000 HD 
HETATM    4  C   UNL     1      -8.695  10.171  66.420  1.00  0.00    -0.130 C  
HETATM    5  C   UNL     1     -10.154  10.133  66.972  1.00  0.00    -0.223 C  
HETATM    6  O   UNL     1      -8.399  11.294  65.570  1.00  0.00    -0.365 OA 
HETATM    7  O   UNL     1     -10.899   5.414  66.677  1.00  0.00    -0.277 OA 
HETATM    8  H   UNL     1      -8.584  12.068  66.089  1.00  0.00     0.000 HD 
HETATM    9  O   UNL     1     -10.408   8.878  67.645  1.00  0.00    -0.222 OA 
HETATM   10  C   UNL     1     -10.290   7.780  66.712  1.00  0.00    -0.277 C  
HETATM   11  O   UNL     1     -11.395   6.643  68.513  1.00  0.00    -0.196 OA 
HETATM   12  P   UNL     1      -7.672   7.155  67.659  1.00  0.00    -0.115 P  
HETATM   13  C   UNL     1      -8.835   7.618  66.259  1.00  0.00    -0.156 C  
HETATM   14  C   UNL     1     -10.868   6.482  67.269  1.00  0.00    -0.390 C  
ENDROOT
BRANCH   5  15
HETATM   15  O   UNL     1     -10.453  11.199  67.894  1.00  0.00    -0.178 OA 
BRANCH  15  16
HETATM   16  C   UNL     1     -11.391  12.212  67.440  1.00  0.00    -0.326 C  
HETATM   17  O   UNL     1     -12.098  12.941  69.702  1.00  0.00    -0.289 OA 
HETATM   18  C   UNL     1     -11.562  13.367  68.439  1.00  0.00    -0.332 C  
HETATM   19  C   UNL     1     -10.199  14.024  68.637  1.00  0.00    -0.233 C  
HETATM   20  O   UNL     1     -10.285  14.915  69.755  1.00  0.00    -0.402 OA 
HETATM   21  H   UNL     1     -12.204  13.654  70.320  1.00  0.00     0.000 HD 
HETATM   22  C   UNL     1      -9.781  14.670  67.299  1.00  0.00    -0.231 C  
HETATM   23  O   UNL     1      -9.751  13.699  66.237  1.00  0.00    -0.289 OA 
HETATM   24  O   UNL     1     -10.645  15.740  66.897  1.00  0.00    -0.312 OA 
HETATM   25  H   UNL     1      -9.437  15.323  69.879  1.00  0.00     0.000 HD 
HETATM   26  C   UNL     1     -10.873  12.808  66.109  1.00  0.00    -0.279 C  
HETATM   27  P   UNL     1     -10.535  17.179  67.642  1.00  0.00    -0.315 P  
HETATM   28  C   UNL     1     -12.064  13.363  65.306  1.00  0.00    -0.413 C  
HETATM   29  O   UNL     1     -11.830  14.561  64.730  1.00  0.00    -0.399 OA 
HETATM   30  O   UNL     1     -13.133  12.784  65.169  1.00  0.00    -0.750 OA 
ENDBRANCH  15  16
ENDBRANCH   5  15
TORSDOF 2
ENDMDL
MODEL       27
REMARK 921   NORMALIZED FREE ENERGY PREDICTED BY IDOCK:   -6.50 KCAL/MOL
REMARK 922        TOTAL FREE ENERGY PREDICTED BY IDOCK:   -7.97 KCAL/MOL
REMARK 923 INTER-LIGAND FREE ENERGY PREDICTED BY IDOCK:   -7.42 KCAL/MOL
REMARK 924 INTRA-LIGAND FREE ENERGY PREDICTED BY IDOCK:   -0.55 KCAL/MOL
REMARK 927      BINDING AFFINITY PREDICTED BY RF-SCORE:    0.00 PKD
ROOT
HETATM    1  O   UNL     1     -10.590  17.967  69.561  1.00  0.00    -0.320 OA 
HETATM    2  C   UNL     1      -9.544  17.258  68.867  1.00  0.00    -0.229 C  
HETATM    3  H   UNL     1     -10.411  18.897  69.491  1.00  0.00     0.000 HD 
HETATM    4  C   UNL     1      -9.834  15.754  68.980  1.00  0.00    -0.240 C  
HETATM    5  C   UNL     1     -11.034  15.350  68.069  1.00  0.00    -0.307 C  
HETATM    6  O   UNL     1     -10.024  15.494  70.382  1.00  0.00    -0.324 OA 
HETATM    7  O   UNL     1     -10.876  19.032  65.016  1.00  0.00    -0.412 OA 
HETATM    8  H   UNL     1     -10.203  14.563  70.452  1.00  0.00     0.000 HD 
HETATM    9  O   UNL     1     -10.829  15.827  66.719  1.00  0.00    -0.316 OA 
HETATM   10  C   UNL     1     -10.767  17.271  66.706  1.00  0.00    -0.095 C  
HETATM   11  O   UNL     1     -11.059  16.874  64.357  1.00  0.00    -1.128 OA 
HETATM   12  P   UNL     1      -7.918  17.226  66.564  1.00  0.00    -0.312 P  
HETATM   13  C   UNL     1      -9.501  17.759  67.420  1.00  0.00    -0.254 C  
HETATM   14  C   UNL     1     -10.890  17.844  65.297  1.00  0.00     0.339 C  
ENDROOT
BRANCH   5  15
HETATM   15  O   UNL     1     -11.263  13.928  68.006  1.00  0.00    -0.252 OA 
BRANCH  15  16
HETATM   16  C   UNL     1     -10.412  13.170  67.106  1.00  0.00    -0.247 C  
HETATM   17  O   UNL     1      -8.508  12.947  68.680  1.00  0.00    -0.327 OA 
HETATM   18  C   UNL     1      -9.435  12.238  67.842  1.00  0.00    -0.200 C  
HETATM   19  C   UNL     1     -10.256  11.256  68.673  1.00  0.00    -0.203 C  
HETATM   20  O   UNL     1      -9.370  10.568  69.564  1.00  0.00    -0.359 OA 
HETATM   21  H   UNL     1      -7.904  12.372  69.135  1.00  0.00     0.000 HD 
HETATM   22  C   UNL     1     -11.056  10.361  67.703  1.00  0.00    -0.293 C  
HETATM   23  O   UNL     1     -11.892  11.149  66.836  1.00  0.00    -0.339 OA 
HETATM   24  O   UNL     1     -10.222   9.535  66.882  1.00  0.00    -0.225 OA 
HETATM   25  H   UNL     1      -9.881   9.957  70.082  1.00  0.00     0.000 HD 
HETATM   26  C   UNL     1     -11.305  12.295  66.194  1.00  0.00    -0.353 C  
HETATM   27  P   UNL     1      -9.514   8.223  67.529  1.00  0.00    -0.163 P  
HETATM   28  C   UNL     1     -10.554  12.001  64.882  1.00  0.00    -0.291 C  
HETATM   29  O   UNL     1     -10.665  10.725  64.458  1.00  0.00    -0.297 OA 
HETATM   30  O   UNL     1      -9.921  12.834  64.249  1.00  0.00    -0.277 OA 
ENDBRANCH  15  16
ENDBRANCH   5  15
TORSDOF 2
ENDMDL
MODEL       28
REMARK 921   NORMALIZED FREE ENERGY PREDICTED BY IDOCK:   -6.46 KCAL/MOL
REMARK 922        TOTAL FREE ENERGY PREDICTED BY IDOCK:   -7.92 KCAL/MOL
REMARK 923 INTER-LIGAND FREE ENERGY PREDICTED BY IDOCK:   -7.03 KCAL/MOL
REMARK 924 INTRA-LIGAND FREE ENERGY PREDICTED BY IDOCK:   -0.90 KCAL/MOL
REMARK 927      BINDING AFFINITY PREDICTED BY RF-SCORE:    0.00 PKD
ROOT
HETATM    1  O   UNL     1      -7.352  17.246  68.971  1.00  0.00    -0.245 OA 
HETATM    2  C   UNL     1      -7.002  17.523  67.600  1.00  0.00    -0.167 C  
HETATM    3  H   UNL     1      -7.071  17.983  69.500  1.00  0.00     0.000 HD 
HETATM    4  C   UNL     1      -7.456  16.330  66.744  1.00  0.00    -0.231 C  
HETATM    5  C   UNL     1      -9.008  16.317  66.590  1.00  0.00    -0.251 C  
HETATM    6  O   UNL     1      -6.899  15.161  67.371  1.00  0.00    -0.185 OA 
HETATM    7  O   UNL     1      -9.854  20.930  67.542  1.00  0.00    -0.414 OA 
HETATM    8  H   UNL     1      -7.180  14.424  66.841  1.00  0.00     0.000 HD 
HETATM    9  O   UNL     1      -9.484  17.605  66.135  1.00  0.00    -0.441 OA 
HETATM   10  C   UNL     1      -9.173  18.623  67.112  1.00  0.00    -0.287 C  
HETATM   11  O   UNL     1     -10.759  19.835  65.779  1.00  0.00    -0.512 OA 
HETATM   12  P   UNL     1      -6.923  19.505  65.595  1.00  0.00    -0.222 P  
HETATM   13  C   UNL     1      -7.659  18.845  67.192  1.00  0.00    -0.229 C  
HETATM   14  C   UNL     1      -9.932  19.922  66.857  1.00  0.00    -0.435 C  
ENDROOT
BRANCH   5  15
HETATM   15  O   UNL     1      -9.492  15.316  65.672  1.00  0.00    -0.320 OA 
BRANCH  15  16
HETATM   16  C   UNL     1     -10.498  14.398  66.178  1.00  0.00    -0.291 C  
HETATM   17  O   UNL     1     -11.115  13.453  63.970  1.00  0.00    -0.513 OA 
HETATM   18  C   UNL     1     -10.668  13.147  65.301  1.00  0.00    -0.303 C  
HETATM   19  C   UNL     1      -9.328  12.419  65.254  1.00  0.00     0.237 C  
HETATM   20  O   UNL     1      -9.395  11.414  64.236  1.00  0.00    -0.368 OA 
HETATM   21  H   UNL     1     -11.220  12.680  63.427  1.00  0.00     0.000 HD 
HETATM   22  C   UNL     1      -9.012  11.908  66.676  1.00  0.00    -0.198 C  
HETATM   23  O   UNL     1      -8.995  12.989  67.627  1.00  0.00    -0.173 OA 
HETATM   24  O   UNL     1      -9.945  10.925  67.141  1.00  0.00    -0.181 OA 
HETATM   25  H   UNL     1      -8.561  10.961  64.206  1.00  0.00     0.000 HD 
HETATM   26  C   UNL     1     -10.080  13.932  67.593  1.00  0.00    -0.241 C  
HETATM   27  P   UNL     1      -9.861   9.408  66.562  1.00  0.00    -0.281 P  
HETATM   28  C   UNL     1     -11.337  13.517  68.381  1.00  0.00    -0.292 C  
HETATM   29  O   UNL     1     -11.190  12.381  69.095  1.00  0.00    -0.245 OA 
HETATM   30  O   UNL     1     -12.384  14.149  68.391  1.00  0.00    -0.237 OA 
ENDBRANCH  15  16
ENDBRANCH   5  15
TORSDOF 2
ENDMDL
MODEL       29
REMARK 921   NORMALIZED FREE ENERGY PREDICTED BY IDOCK:   -6.41 KCAL/MOL
REMARK 922        TOTAL FREE ENERGY PREDICTED BY IDOCK:   -7.87 KCAL/MOL
REMARK 923 INTER-LIGAND FREE ENERGY PREDICTED BY IDOCK:   -7.45 KCAL/MOL
REMARK 924 INTRA-LIGAND FREE ENERGY PREDICTED BY IDOCK:   -0.42 KCAL/MOL
REMARK 927      BINDING AFFINITY PREDICTED BY RF-SCORE:    0.00 PKD
ROOT
HETATM    1  O   UNL     1     -11.309   7.084  68.704  1.00  0.00    -0.494 OA 
HETATM    2  C   UNL     1     -10.480   7.447  69.826  1.00  0.00    -0.229 C  
HETATM    3  H   UNL     1     -11.910   6.406  68.990  1.00  0.00     0.000 HD 
HETATM    4  C   UNL     1      -9.508   8.543  69.363  1.00  0.00    -0.161 C  
HETATM    5  C   UNL     1     -10.252   9.900  69.173  1.00  0.00    -0.205 C  
HETATM    6  O   UNL     1      -8.872   8.031  68.178  1.00  0.00    -0.132 OA 
HETATM    7  O   UNL     1     -14.039   9.027  71.967  1.00  0.00    -0.407 OA 
HETATM    8  H   UNL     1      -8.271   8.708  67.892  1.00  0.00     0.000 HD 
HETATM    9  O   UNL     1     -11.016  10.229  70.358  1.00  0.00    -0.296 OA 
HETATM   10  C   UNL     1     -12.033   9.228  70.587  1.00  0.00    -0.152 C  
HETATM   11  O   UNL     1     -12.838  10.944  72.059  1.00  0.00    -0.393 OA 
HETATM   12  P   UNL     1     -10.449   7.967  72.597  1.00  0.00    -0.353 P  
HETATM   13  C   UNL     1     -11.390   7.891  70.974  1.00  0.00    -0.274 C  
HETATM   14  C   UNL     1     -13.074   9.682  71.605  1.00  0.00    -0.412 C  
ENDROOT
BRANCH   5  15
HETATM   15  O   UNL     1      -9.375  11.009  68.891  1.00  0.00    -0.190 OA 
BRANCH  15  16
HETATM   16  C   UNL     1      -9.799  11.926  67.847  1.00  0.00    -0.190 C  
HETATM   17  O   UNL     1      -7.516  12.639  67.190  1.00  0.00    -0.286 OA 
HETATM   18  C   UNL     1      -8.758  12.086  66.726  1.00  0.00    -0.192 C  
HETATM   19  C   UNL     1      -8.526  10.714  66.100  1.00  0.00    -0.159 C  
HETATM   20  O   UNL     1      -7.376  10.795  65.250  1.00  0.00    -0.341 OA 
HETATM   21  H   UNL     1      -6.873  12.738  66.499  1.00  0.00     0.000 HD 
HETATM   22  C   UNL     1      -9.836  10.275  65.411  1.00  0.00    -0.296 C  
HETATM   23  O   UNL     1     -10.933  10.253  66.343  1.00  0.00    -0.029 OA 
HETATM   24  O   UNL     1     -10.205  11.119  64.314  1.00  0.00    -0.286 OA 
HETATM   25  H   UNL     1      -7.231   9.941  64.861  1.00  0.00     0.000 HD 
HETATM   26  C   UNL     1     -11.103  11.388  67.210  1.00  0.00    -0.303 C  
HETATM   27  P   UNL     1      -9.405  10.991  62.905  1.00  0.00    -0.330 P  
HETATM   28  C   UNL     1     -11.893  12.564  66.606  1.00  0.00    -0.352 C  
HETATM   29  O   UNL     1     -12.422  12.306  65.392  1.00  0.00    -0.596 OA 
HETATM   30  O   UNL     1     -12.059  13.641  67.162  1.00  0.00    -0.389 OA 
ENDBRANCH  15  16
ENDBRANCH   5  15
TORSDOF 2
ENDMDL
MODEL       30
REMARK 921   NORMALIZED FREE ENERGY PREDICTED BY IDOCK:   -6.38 KCAL/MOL
REMARK 922        TOTAL FREE ENERGY PREDICTED BY IDOCK:   -7.83 KCAL/MOL
REMARK 923 INTER-LIGAND FREE ENERGY PREDICTED BY IDOCK:   -7.07 KCAL/MOL
REMARK 924 INTRA-LIGAND FREE ENERGY PREDICTED BY IDOCK:   -0.77 KCAL/MOL
REMARK 927      BINDING AFFINITY PREDICTED BY RF-SCORE:    0.00 PKD
ROOT
HETATM    1  O   UNL     1     -10.633   7.359  66.529  1.00  0.00    -0.503 OA 
HETATM    2  C   UNL     1      -9.557   8.178  67.028  1.00  0.00    -0.196 C  
HETATM    3  H   UNL     1     -10.498   6.473  66.842  1.00  0.00     0.000 HD 
HETATM    4  C   UNL     1      -9.777   9.612  66.522  1.00  0.00    -0.212 C  
HETATM    5  C   UNL     1     -10.959  10.292  67.278  1.00  0.00    -0.210 C  
HETATM    6  O   UNL     1      -9.951   9.504  65.098  1.00  0.00    -0.429 OA 
HETATM    7  O   UNL     1     -10.979   7.534  71.190  1.00  0.00    -0.241 OA 
HETATM    8  H   UNL     1     -10.087  10.391  64.785  1.00  0.00     0.000 HD 
HETATM    9  O   UNL     1     -10.779  10.176  68.710  1.00  0.00    -0.201 OA 
HETATM   10  C   UNL     1     -10.784   8.785  69.100  1.00  0.00    -0.131 C  
HETATM   11  O   UNL     1     -11.062   9.795  71.259  1.00  0.00    -0.355 OA 
HETATM   12  P   UNL     1      -7.936   8.740  69.266  1.00  0.00    -0.113 P  
HETATM   13  C   UNL     1      -9.541   8.072  68.556  1.00  0.00    -0.155 C  
HETATM   14  C   UNL     1     -10.936   8.606  70.608  1.00  0.00    -0.240 C  
ENDROOT
BRANCH   5  15
HETATM   15  O   UNL     1     -11.122  11.690  66.965  1.00  0.00    -0.271 OA 
BRANCH  15  16
HETATM   16  C   UNL     1     -10.901  12.632  68.048  1.00  0.00    -0.225 C  
HETATM   17  O   UNL     1      -8.445  12.800  67.745  1.00  0.00    -0.153 OA 
HETATM   18  C   UNL     1      -9.678  13.535  67.822  1.00  0.00    -0.226 C  
HETATM   19  C   UNL     1      -9.905  14.323  66.534  1.00  0.00    -0.288 C  
HETATM   20  O   UNL     1      -8.674  14.957  66.170  1.00  0.00    -0.456 OA 
HETATM   21  H   UNL     1      -7.689  13.358  67.605  1.00  0.00     0.000 HD 
HETATM   22  C   UNL     1     -11.104  15.269  66.759  1.00  0.00    -0.278 C  
HETATM   23  O   UNL     1     -12.281  14.538  67.148  1.00  0.00    -0.355 OA 
HETATM   24  O   UNL     1     -10.853  16.267  67.757  1.00  0.00    -0.328 OA 
HETATM   25  H   UNL     1      -8.816  15.447  65.368  1.00  0.00     0.000 HD 
HETATM   26  C   UNL     1     -12.145  13.543  68.178  1.00  0.00    -0.255 C  
HETATM   27  P   UNL     1      -9.902  17.534  67.398  1.00  0.00    -0.321 P  
HETATM   28  C   UNL     1     -12.236  14.074  69.621  1.00  0.00    -0.332 C  
HETATM   29  O   UNL     1     -12.557  15.381  69.708  1.00  0.00    -0.247 OA 
HETATM   30  O   UNL     1     -12.056  13.390  70.619  1.00  0.00    -0.346 OA 
ENDBRANCH  15  16
ENDBRANCH   5  15
TORSDOF 2
ENDMDL
MODEL       31
REMARK 921   NORMALIZED FREE ENERGY PREDICTED BY IDOCK:   -6.32 KCAL/MOL
REMARK 922        TOTAL FREE ENERGY PREDICTED BY IDOCK:   -7.77 KCAL/MOL
REMARK 923 INTER-LIGAND FREE ENERGY PREDICTED BY IDOCK:   -7.03 KCAL/MOL
REMARK 924 INTRA-LIGAND FREE ENERGY PREDICTED BY IDOCK:   -0.74 KCAL/MOL
REMARK 927      BINDING AFFINITY PREDICTED BY RF-SCORE:    0.00 PKD
ROOT
HETATM    1  O   UNL     1     -11.794   6.596  69.171  1.00  0.00    -0.592 OA 
HETATM    2  C   UNL     1     -10.721   7.323  69.801  1.00  0.00    -0.239 C  
HETATM    3  H   UNL     1     -12.109   5.944  69.786  1.00  0.00     0.000 HD 
HETATM    4  C   UNL     1     -10.212   8.376  68.805  1.00  0.00    -0.207 C  
HETATM    5  C   UNL     1     -11.235   9.545  68.662  1.00  0.00     0.112 C  
HETATM    6  O   UNL     1      -9.933   7.664  67.587  1.00  0.00    -0.154 OA 
HETATM    7  O   UNL     1     -13.569   8.954  72.799  1.00  0.00    -0.405 OA 
HETATM    8  H   UNL     1      -9.618   8.315  66.971  1.00  0.00     0.000 HD 
HETATM    9  O   UNL     1     -11.595  10.066  69.963  1.00  0.00    -0.249 OA 
HETATM   10  C   UNL     1     -12.245   9.041  70.747  1.00  0.00    -0.076 C  
HETATM   11  O   UNL     1     -12.825  10.962  72.063  1.00  0.00    -0.393 OA 
HETATM   12  P   UNL     1      -9.846   8.520  72.200  1.00  0.00    -0.281 P  
HETATM   13  C   UNL     1     -11.252   7.930  71.104  1.00  0.00    -0.261 C  
HETATM   14  C   UNL     1     -12.942   9.608  71.980  1.00  0.00    -0.428 C  
ENDROOT
BRANCH   5  15
HETATM   15  O   UNL     1     -10.753  10.644  67.863  1.00  0.00    -0.209 OA 
BRANCH  15  16
HETATM   16  C   UNL     1     -10.687  11.942  68.511  1.00  0.00    -0.224 C  
HETATM   17  O   UNL     1      -8.293  11.792  69.140  1.00  0.00    -0.362 OA 
HETATM   18  C   UNL     1      -9.286  12.573  68.455  1.00  0.00    -0.149 C  
HETATM   19  C   UNL     1      -8.905  12.745  66.987  1.00  0.00    -0.213 C  
HETATM   20  O   UNL     1      -7.513  13.074  66.918  1.00  0.00    -0.379 OA 
HETATM   21  H   UNL     1      -7.427  12.182  69.106  1.00  0.00     0.000 HD 
HETATM   22  C   UNL     1      -9.867  13.777  66.362  1.00  0.00    -0.298 C  
HETATM   23  O   UNL     1     -11.239  13.367  66.508  1.00  0.00    -0.296 OA 
HETATM   24  O   UNL     1      -9.733  15.086  66.928  1.00  0.00    -0.227 OA 
HETATM   25  H   UNL     1      -7.275  13.180  66.005  1.00  0.00     0.000 HD 
HETATM   26  C   UNL     1     -11.669  12.905  67.801  1.00  0.00    -0.362 C  
HETATM   27  P   UNL     1      -8.458  16.007  66.520  1.00  0.00    -0.298 P  
HETATM   28  C   UNL     1     -12.097  14.009  68.785  1.00  0.00    -0.303 C  
HETATM   29  O   UNL     1     -12.126  15.246  68.247  1.00  0.00    -0.212 OA 
HETATM   30  O   UNL     1     -12.405  13.810  69.952  1.00  0.00    -0.322 OA 
ENDBRANCH  15  16
ENDBRANCH   5  15
TORSDOF 2
ENDMDL
MODEL       32
REMARK 921   NORMALIZED FREE ENERGY PREDICTED BY IDOCK:   -6.32 KCAL/MOL
REMARK 922        TOTAL FREE ENERGY PREDICTED BY IDOCK:   -7.77 KCAL/MOL
REMARK 923 INTER-LIGAND FREE ENERGY PREDICTED BY IDOCK:   -7.14 KCAL/MOL
REMARK 924 INTRA-LIGAND FREE ENERGY PREDICTED BY IDOCK:   -0.63 KCAL/MOL
REMARK 927      BINDING AFFINITY PREDICTED BY RF-SCORE:    0.00 PKD
ROOT
HETATM    1  O   UNL     1      -9.711  20.421  65.229  1.00  0.00    -0.377 OA 
HETATM    2  C   UNL     1     -10.175  19.760  66.423  1.00  0.00    -0.503 C  
HETATM    3  H   UNL     1      -9.617  21.346  65.422  1.00  0.00     0.000 HD 
HETATM    4  C   UNL     1     -10.327  18.264  66.109  1.00  0.00    -0.398 C  
HETATM    5  C   UNL     1      -8.932  17.577  65.989  1.00  0.00    -0.030 C  
HETATM    6  O   UNL     1     -11.142  18.191  64.926  1.00  0.00    -0.673 OA 
HETATM    7  O   UNL     1      -6.360  20.758  68.474  1.00  0.00    -0.316 OA 
HETATM    8  H   UNL     1     -11.237  17.266  64.732  1.00  0.00     0.000 HD 
HETATM    9  O   UNL     1      -8.120  17.873  67.149  1.00  0.00    -0.205 OA 
HETATM   10  C   UNL     1      -7.875  19.295  67.235  1.00  0.00    -0.254 C  
HETATM   11  O   UNL     1      -6.222  18.521  68.794  1.00  0.00    -0.205 OA 
HETATM   12  P   UNL     1      -9.897  19.601  69.225  1.00  0.00     0.120 P  
HETATM   13  C   UNL     1      -9.175  20.043  67.549  1.00  0.00    -0.364 C  
HETATM   14  C   UNL     1      -6.764  19.633  68.225  1.00  0.00    -0.278 C  
ENDROOT
BRANCH   5  15
HETATM   15  O   UNL     1      -9.000  16.144  65.850  1.00  0.00    -0.351 OA 
BRANCH  15  16
HETATM   16  C   UNL     1     -10.146  15.484  66.449  1.00  0.00    -0.288 C  
HETATM   17  O   UNL     1     -11.099  14.641  64.320  1.00  0.00    -0.616 OA 
HETATM   18  C   UNL     1     -10.643  14.279  65.634  1.00  0.00    -0.319 C  
HETATM   19  C   UNL     1      -9.500  13.272  65.538  1.00  0.00     0.188 C  
HETATM   20  O   UNL     1      -9.851  12.281  64.565  1.00  0.00    -0.440 OA 
HETATM   21  H   UNL     1     -11.406  13.897  63.816  1.00  0.00     0.000 HD 
HETATM   22  C   UNL     1      -9.211  12.741  66.958  1.00  0.00    -0.221 C  
HETATM   23  O   UNL     1      -8.896  13.815  67.863  1.00  0.00    -0.167 OA 
HETATM   24  O   UNL     1     -10.303  12.000  67.515  1.00  0.00    -0.198 OA 
HETATM   25  H   UNL     1      -9.140  11.655  64.505  1.00  0.00     0.000 HD 
HETATM   26  C   UNL     1      -9.749  14.974  67.855  1.00  0.00    -0.212 C  
HETATM   27  P   UNL     1     -10.591  10.488  66.993  1.00  0.00    -0.207 P  
HETATM   28  C   UNL     1     -11.012  14.866  68.730  1.00  0.00    -0.253 C  
HETATM   29  O   UNL     1     -11.069  13.745  69.479  1.00  0.00    -0.205 OA 
HETATM   30  O   UNL     1     -11.892  15.714  68.777  1.00  0.00    -0.370 OA 
ENDBRANCH  15  16
ENDBRANCH   5  15
TORSDOF 2
ENDMDL
MODEL       33
REMARK 921   NORMALIZED FREE ENERGY PREDICTED BY IDOCK:   -6.31 KCAL/MOL
REMARK 922        TOTAL FREE ENERGY PREDICTED BY IDOCK:   -7.75 KCAL/MOL
REMARK 923 INTER-LIGAND FREE ENERGY PREDICTED BY IDOCK:   -7.08 KCAL/MOL
REMARK 924 INTRA-LIGAND FREE ENERGY PREDICTED BY IDOCK:   -0.67 KCAL/MOL
REMARK 927      BINDING AFFINITY PREDICTED BY RF-SCORE:    0.00 PKD
ROOT
HETATM    1  O   UNL     1     -12.104  13.592  70.400  1.00  0.00    -0.332 OA 
HETATM    2  C   UNL     1     -12.222  13.873  68.991  1.00  0.00    -0.239 C  
HETATM    3  H   UNL     1     -12.345  12.684  70.540  1.00  0.00     0.000 HD 
HETATM    4  C   UNL     1     -11.832  15.342  68.766  1.00  0.00    -0.318 C  
HETATM    5  C   UNL     1     -10.292  15.537  68.915  1.00  0.00    -0.221 C  
HETATM    6  O   UNL     1     -12.631  16.107  69.686  1.00  0.00    -0.478 OA 
HETATM    7  O   UNL     1      -8.928  11.016  68.130  1.00  0.00    -0.140 OA 
HETATM    8  H   UNL     1     -12.390  17.015  69.546  1.00  0.00     0.000 HD 
HETATM    9  O   UNL     1      -9.579  14.587  68.088  1.00  0.00    -0.201 OA 
HETATM   10  C   UNL     1      -9.869  13.238  68.518  1.00  0.00    -0.168 C  
HETATM   11  O   UNL     1      -7.960  12.802  67.131  1.00  0.00    -0.167 OA 
HETATM   12  P   UNL     1     -11.742  12.882  66.395  1.00  0.00    -0.400 P  
HETATM   13  C   UNL     1     -11.333  12.887  68.228  1.00  0.00    -0.291 C  
HETATM   14  C   UNL     1      -8.904  12.219  67.919  1.00  0.00    -0.178 C  
ENDROOT
BRANCH   5  15
HETATM   15  O   UNL     1      -9.837  16.859  68.564  1.00  0.00    -0.244 OA 
BRANCH  15  16
HETATM   16  C   UNL     1      -8.701  16.940  67.662  1.00  0.00    -0.209 C  
HETATM   17  O   UNL     1      -9.948  17.949  65.770  1.00  0.00    -0.551 OA 
HETATM   18  C   UNL     1      -8.818  18.089  66.647  1.00  0.00    -0.266 C  
HETATM   19  C   UNL     1      -8.911  19.398  67.426  1.00  0.00    -0.300 C  
HETATM   20  O   UNL     1      -9.290  20.438  66.518  1.00  0.00    -0.564 OA 
HETATM   21  H   UNL     1     -10.021  18.659  65.143  1.00  0.00     0.000 HD 
HETATM   22  C   UNL     1      -7.573  19.610  68.165  1.00  0.00    -0.307 C  
HETATM   23  O   UNL     1      -7.272  18.499  69.029  1.00  0.00    -0.287 OA 
HETATM   24  O   UNL     1      -6.463  19.793  67.277  1.00  0.00    -0.193 OA 
HETATM   25  H   UNL     1      -9.348  21.252  67.002  1.00  0.00     0.000 HD 
HETATM   26  C   UNL     1      -7.418  17.172  68.495  1.00  0.00    -0.238 C  
HETATM   27  P   UNL     1      -6.281  21.213  66.509  1.00  0.00    -0.219 P  
HETATM   28  C   UNL     1      -6.203  16.641  67.712  1.00  0.00    -0.141 C  
HETATM   29  O   UNL     1      -5.126  17.453  67.749  1.00  0.00    -0.113 OA 
HETATM   30  O   UNL     1      -6.181  15.574  67.115  1.00  0.00    -0.316 OA 
ENDBRANCH  15  16
ENDBRANCH   5  15
TORSDOF 2
ENDMDL
MODEL       34
REMARK 921   NORMALIZED FREE ENERGY PREDICTED BY IDOCK:   -6.26 KCAL/MOL
REMARK 922        TOTAL FREE ENERGY PREDICTED BY IDOCK:   -7.70 KCAL/MOL
REMARK 923 INTER-LIGAND FREE ENERGY PREDICTED BY IDOCK:   -6.85 KCAL/MOL
REMARK 924 INTRA-LIGAND FREE ENERGY PREDICTED BY IDOCK:   -0.85 KCAL/MOL
REMARK 927      BINDING AFFINITY PREDICTED BY RF-SCORE:    0.00 PKD
ROOT
HETATM    1  O   UNL     1     -11.324  14.639  64.387  1.00  0.00    -0.586 OA 
HETATM    2  C   UNL     1     -11.718  14.626  65.774  1.00  0.00    -0.302 C  
HETATM    3  H   UNL     1     -11.146  15.539  64.140  1.00  0.00     0.000 HD 
HETATM    4  C   UNL     1     -12.007  13.171  66.172  1.00  0.00    -0.422 C  
HETATM    5  C   UNL     1     -10.683  12.357  66.298  1.00  0.00    -0.256 C  
HETATM    6  O   UNL     1     -12.935  12.671  65.192  1.00  0.00    -0.754 OA 
HETATM    7  O   UNL     1      -7.664  16.012  66.954  1.00  0.00    -0.208 OA 
HETATM    8  H   UNL     1     -13.113  11.771  65.439  1.00  0.00     0.000 HD 
HETATM    9  O   UNL     1      -9.744  13.045  67.157  1.00  0.00    -0.219 OA 
HETATM   10  C   UNL     1      -9.391  14.324  66.584  1.00  0.00    -0.284 C  
HETATM   11  O   UNL     1      -7.657  14.145  68.234  1.00  0.00    -0.110 OA 
HETATM   12  P   UNL     1     -11.187  15.690  68.331  1.00  0.00    -0.362 P  
HETATM   13  C   UNL     1     -10.598  15.268  66.598  1.00  0.00    -0.304 C  
HETATM   14  C   UNL     1      -8.169  14.943  67.257  1.00  0.00    -0.209 C  
ENDROOT
BRANCH   5  15
HETATM   15  O   UNL     1     -10.867  11.025  66.819  1.00  0.00    -0.267 OA 
BRANCH  15  16
HETATM   16  C   UNL     1      -9.669  10.222  66.993  1.00  0.00    -0.176 C  
HETATM   17  O   UNL     1      -8.886  11.371  69.047  1.00  0.00    -0.365 OA 
HETATM   18  C   UNL     1      -9.231  10.104  68.462  1.00  0.00    -0.144 C  
HETATM   19  C   UNL     1     -10.368   9.452  69.243  1.00  0.00    -0.208 C  
HETATM   20  O   UNL     1     -10.088   9.582  70.641  1.00  0.00    -0.263 OA 
HETATM   21  H   UNL     1      -8.615  11.298  69.954  1.00  0.00     0.000 HD 
HETATM   22  C   UNL     1     -10.536   8.007  68.726  1.00  0.00    -0.173 C  
HETATM   23  O   UNL     1     -10.786   7.986  67.309  1.00  0.00    -0.300 OA 
HETATM   24  O   UNL     1      -9.395   7.181  68.987  1.00  0.00    -0.142 OA 
HETATM   25  H   UNL     1     -10.797   9.177  71.127  1.00  0.00     0.000 HD 
HETATM   26  C   UNL     1      -9.946   8.793  66.465  1.00  0.00    -0.290 C  
HETATM   27  P   UNL     1      -9.137   6.628  70.493  1.00  0.00    -0.151 P  
HETATM   28  C   UNL     1      -8.616   8.143  66.044  1.00  0.00    -0.147 C  
HETATM   29  O   UNL     1      -8.488   6.855  66.426  1.00  0.00    -0.118 OA 
HETATM   30  O   UNL     1      -7.742   8.711  65.405  1.00  0.00    -0.088 OA 
ENDBRANCH  15  16
ENDBRANCH   5  15
TORSDOF 2
ENDMDL
MODEL       35
REMARK 921   NORMALIZED FREE ENERGY PREDICTED BY IDOCK:   -6.24 KCAL/MOL
REMARK 922        TOTAL FREE ENERGY PREDICTED BY IDOCK:   -7.68 KCAL/MOL
REMARK 923 INTER-LIGAND FREE ENERGY PREDICTED BY IDOCK:   -6.86 KCAL/MOL
REMARK 924 INTRA-LIGAND FREE ENERGY PREDICTED BY IDOCK:   -0.82 KCAL/MOL
REMARK 927      BINDING AFFINITY PREDICTED BY RF-SCORE:    0.00 PKD
ROOT
HETATM    1  O   UNL     1     -11.054  16.228  63.895  1.00  0.00    -1.111 OA 
HETATM    2  C   UNL     1     -11.274  16.457  65.301  1.00  0.00     0.006 C  
HETATM    3  H   UNL     1     -10.953  17.073  63.472  1.00  0.00     0.000 HD 
HETATM    4  C   UNL     1     -11.437  15.091  65.984  1.00  0.00    -0.221 C  
HETATM    5  C   UNL     1     -10.068  14.351  66.080  1.00  0.00    -0.322 C  
HETATM    6  O   UNL     1     -12.451  14.395  65.237  1.00  0.00    -0.412 OA 
HETATM    7  O   UNL     1      -7.181  18.147  65.681  1.00  0.00    -0.513 OA 
HETATM    8  H   UNL     1     -12.552  13.551  65.660  1.00  0.00     0.000 HD 
HETATM    9  O   UNL     1      -9.067  15.210  66.675  1.00  0.00    -0.243 OA 
HETATM   10  C   UNL     1      -8.852  16.373  65.844  1.00  0.00    -0.135 C  
HETATM   11  O   UNL     1      -6.923  16.545  67.260  1.00  0.00    -0.138 OA 
HETATM   12  P   UNL     1     -10.488  17.983  67.538  1.00  0.00    -0.338 P  
HETATM   13  C   UNL     1     -10.095  17.269  65.846  1.00  0.00    -0.211 C  
HETATM   14  C   UNL     1      -7.590  17.137  66.232  1.00  0.00    -0.317 C  
ENDROOT
BRANCH   5  15
HETATM   15  O   UNL     1     -10.119  13.132  66.848  1.00  0.00    -0.238 OA 
BRANCH  15  16
HETATM   16  C   UNL     1      -9.347  12.010  66.343  1.00  0.00    -0.228 C  
HETATM   17  O   UNL     1      -7.130  12.907  67.000  1.00  0.00    -0.364 OA 
HETATM   18  C   UNL     1      -8.031  11.791  67.106  1.00  0.00    -0.166 C  
HETATM   19  C   UNL     1      -8.372  11.524  68.569  1.00  0.00    -0.146 C  
HETATM   20  O   UNL     1      -7.163  11.589  69.334  1.00  0.00    -0.270 OA 
HETATM   21  H   UNL     1      -6.317  12.772  67.471  1.00  0.00     0.000 HD 
HETATM   22  C   UNL     1      -9.140  10.187  68.644  1.00  0.00    -0.143 C  
HETATM   23  O   UNL     1     -10.321  10.217  67.821  1.00  0.00    -0.182 OA 
HETATM   24  O   UNL     1      -8.349   9.061  68.243  1.00  0.00    -0.119 OA 
HETATM   25  H   UNL     1      -7.376  11.423  70.245  1.00  0.00     0.000 HD 
HETATM   26  C   UNL     1     -10.194  10.721  66.480  1.00  0.00    -0.235 C  
HETATM   27  P   UNL     1      -7.214   8.483  69.252  1.00  0.00    -0.064 P  
HETATM   28  C   UNL     1      -9.725   9.694  65.432  1.00  0.00    -0.295 C  
HETATM   29  O   UNL     1      -9.623   8.434  65.904  1.00  0.00    -0.173 OA 
HETATM   30  O   UNL     1      -9.477   9.964  64.265  1.00  0.00    -0.284 OA 
ENDBRANCH  15  16
ENDBRANCH   5  15
TORSDOF 2
ENDMDL
MODEL       36
REMARK 921   NORMALIZED FREE ENERGY PREDICTED BY IDOCK:   -6.24 KCAL/MOL
REMARK 922        TOTAL FREE ENERGY PREDICTED BY IDOCK:   -7.68 KCAL/MOL
REMARK 923 INTER-LIGAND FREE ENERGY PREDICTED BY IDOCK:   -6.95 KCAL/MOL
REMARK 924 INTRA-LIGAND FREE ENERGY PREDICTED BY IDOCK:   -0.73 KCAL/MOL
REMARK 927      BINDING AFFINITY PREDICTED BY RF-SCORE:    0.00 PKD
ROOT
HETATM    1  O   UNL     1     -11.579  10.032  67.858  1.00  0.00    -0.629 OA 
HETATM    2  C   UNL     1     -10.615  10.609  66.954  1.00  0.00    -0.254 C  
HETATM    3  H   UNL     1     -11.448   9.092  67.867  1.00  0.00     0.000 HD 
HETATM    4  C   UNL     1     -10.829  12.130  66.939  1.00  0.00    -0.250 C  
HETATM    5  C   UNL     1     -10.322  12.775  68.265  1.00  0.00    -0.243 C  
HETATM    6  O   UNL     1     -12.228  12.328  66.666  1.00  0.00    -0.574 OA 
HETATM    7  O   UNL     1      -7.311   9.313  69.630  1.00  0.00    -0.061 OA 
HETATM    8  H   UNL     1     -12.359  13.269  66.656  1.00  0.00     0.000 HD 
HETATM    9  O   UNL     1      -8.965  12.357  68.546  1.00  0.00    -0.155 OA 
HETATM   10  C   UNL     1      -8.915  10.925  68.736  1.00  0.00    -0.164 C  
HETATM   11  O   UNL     1      -6.765  11.510  69.627  1.00  0.00    -0.125 OA 
HETATM   12  P   UNL     1      -7.933  10.527  66.087  1.00  0.00    -0.152 P  
HETATM   13  C   UNL     1      -9.215  10.199  67.420  1.00  0.00    -0.141 C  
HETATM   14  C   UNL     1      -7.599  10.469  69.359  1.00  0.00    -0.145 C  
ENDROOT
BRANCH   5  15
HETATM   15  O   UNL     1     -10.348  14.216  68.257  1.00  0.00    -0.232 OA 
BRANCH  15  16
HETATM   16  C   UNL     1      -9.090  14.890  67.988  1.00  0.00    -0.180 C  
HETATM   17  O   UNL     1      -9.287  14.822  65.516  1.00  0.00    -0.483 OA 
HETATM   18  C   UNL     1      -9.094  15.668  66.662  1.00  0.00    -0.282 C  
HETATM   19  C   UNL     1     -10.200  16.718  66.735  1.00  0.00    -0.304 C  
HETATM   20  O   UNL     1     -10.395  17.261  65.424  1.00  0.00    -0.626 OA 
HETATM   21  H   UNL     1      -9.290  15.302  64.697  1.00  0.00     0.000 HD 
HETATM   22  C   UNL     1      -9.819  17.737  67.830  1.00  0.00    -0.306 C  
HETATM   23  O   UNL     1      -9.619  17.088  69.100  1.00  0.00    -0.230 OA 
HETATM   24  O   UNL     1      -8.632  18.478  67.521  1.00  0.00    -0.259 OA 
HETATM   25  H   UNL     1     -11.083  17.914  65.470  1.00  0.00     0.000 HD 
HETATM   26  C   UNL     1      -8.810  15.899  69.128  1.00  0.00    -0.253 C  
HETATM   27  P   UNL     1      -8.700  19.669  66.417  1.00  0.00    -0.343 P  
HETATM   28  C   UNL     1      -7.292  16.138  69.231  1.00  0.00    -0.231 C  
HETATM   29  O   UNL     1      -6.950  17.431  69.409  1.00  0.00    -0.219 OA 
HETATM   30  O   UNL     1      -6.450  15.253  69.179  1.00  0.00    -0.110 OA 
ENDBRANCH  15  16
ENDBRANCH   5  15
TORSDOF 2
ENDMDL
MODEL       37
REMARK 921   NORMALIZED FREE ENERGY PREDICTED BY IDOCK:   -6.22 KCAL/MOL
REMARK 922        TOTAL FREE ENERGY PREDICTED BY IDOCK:   -7.66 KCAL/MOL
REMARK 923 INTER-LIGAND FREE ENERGY PREDICTED BY IDOCK:   -6.84 KCAL/MOL
REMARK 924 INTRA-LIGAND FREE ENERGY PREDICTED BY IDOCK:   -0.82 KCAL/MOL
REMARK 927      BINDING AFFINITY PREDICTED BY RF-SCORE:    0.00 PKD
ROOT
HETATM    1  O   UNL     1      -8.646  11.747  62.684  1.00  0.00    -0.630 OA 
HETATM    2  C   UNL     1      -9.952  11.343  63.140  1.00  0.00    -0.372 C  
HETATM    3  H   UNL     1      -8.760  12.402  62.006  1.00  0.00     0.000 HD 
HETATM    4  C   UNL     1      -9.767  10.285  64.237  1.00  0.00    -0.308 C  
HETATM    5  C   UNL     1      -9.251  10.937  65.556  1.00  0.00    -0.209 C  
HETATM    6  O   UNL     1      -8.897   9.284  63.677  1.00  0.00    -0.335 OA 
HETATM    7  O   UNL     1     -10.679  15.430  64.729  1.00  0.00    -0.415 OA 
HETATM    8  H   UNL     1      -8.783   8.630  64.355  1.00  0.00     0.000 HD 
HETATM    9  O   UNL     1     -10.089  12.056  65.930  1.00  0.00    -0.224 OA 
HETATM   10  C   UNL     1     -10.034  13.081  64.912  1.00  0.00    -0.130 C  
HETATM   11  O   UNL     1     -11.037  14.349  66.685  1.00  0.00    -0.311 OA 
HETATM   12  P   UNL     1     -12.535  12.245  63.824  1.00  0.00    -0.399 P  
HETATM   13  C   UNL     1     -10.701  12.590  63.622  1.00  0.00    -0.430 C  
HETATM   14  C   UNL     1     -10.616  14.407  65.392  1.00  0.00    -0.365 C  
ENDROOT
BRANCH   5  15
HETATM   15  O   UNL     1      -9.202  10.028  66.674  1.00  0.00    -0.145 OA 
BRANCH  15  16
HETATM   16  C   UNL     1      -8.969  10.614  67.982  1.00  0.00    -0.140 C  
HETATM   17  O   UNL     1     -11.362  10.949  68.543  1.00  0.00    -0.255 OA 
HETATM   18  C   UNL     1     -10.120  10.363  68.970  1.00  0.00    -0.213 C  
HETATM   19  C   UNL     1     -10.278   8.854  69.137  1.00  0.00    -0.206 C  
HETATM   20  O   UNL     1     -11.504   8.602  69.831  1.00  0.00    -0.456 OA 
HETATM   21  H   UNL     1     -12.073  10.794  69.153  1.00  0.00     0.000 HD 
HETATM   22  C   UNL     1      -9.002   8.314  69.817  1.00  0.00    -0.146 C  
HETATM   23  O   UNL     1      -7.825   8.643  69.055  1.00  0.00    -0.096 OA 
HETATM   24  O   UNL     1      -8.820   8.811  71.148  1.00  0.00    -0.181 OA 
HETATM   25  H   UNL     1     -11.602   7.663  69.934  1.00  0.00     0.000 HD 
HETATM   26  C   UNL     1      -7.685   9.995  68.584  1.00  0.00    -0.086 C  
HETATM   27  P   UNL     1      -9.733   8.215  72.354  1.00  0.00    -0.307 P  
HETATM   28  C   UNL     1      -7.071  10.983  69.594  1.00  0.00    -0.087 C  
HETATM   29  O   UNL     1      -6.636  10.407  70.734  1.00  0.00    -0.327 OA 
HETATM   30  O   UNL     1      -6.959  12.185  69.400  1.00  0.00    -0.065 OA 
ENDBRANCH  15  16
ENDBRANCH   5  15
TORSDOF 2
ENDMDL
MODEL       38
REMARK 921   NORMALIZED FREE ENERGY PREDICTED BY IDOCK:   -6.18 KCAL/MOL
REMARK 922        TOTAL FREE ENERGY PREDICTED BY IDOCK:   -7.61 KCAL/MOL
REMARK 923 INTER-LIGAND FREE ENERGY PREDICTED BY IDOCK:   -6.72 KCAL/MOL
REMARK 924 INTRA-LIGAND FREE ENERGY PREDICTED BY IDOCK:   -0.89 KCAL/MOL
REMARK 927      BINDING AFFINITY PREDICTED BY RF-SCORE:    0.00 PKD
ROOT
HETATM    1  O   UNL     1     -10.238   8.023  66.130  1.00  0.00    -0.454 OA 
HETATM    2  C   UNL     1      -9.290   8.865  66.816  1.00  0.00    -0.175 C  
HETATM    3  H   UNL     1     -10.059   7.122  66.371  1.00  0.00     0.000 HD 
HETATM    4  C   UNL     1      -9.579  10.323  66.425  1.00  0.00    -0.185 C  
HETATM    5  C   UNL     1     -10.884  10.832  67.112  1.00  0.00    -0.277 C  
HETATM    6  O   UNL     1      -9.603  10.348  64.987  1.00  0.00    -0.231 OA 
HETATM    7  O   UNL     1     -11.055   7.696  70.723  1.00  0.00    -0.255 OA 
HETATM    8  H   UNL     1      -9.782  11.249  64.746  1.00  0.00     0.000 HD 
HETATM    9  O   UNL     1     -10.837  10.585  68.537  1.00  0.00    -0.203 OA 
HETATM   10  C   UNL     1     -10.762   9.164  68.792  1.00  0.00    -0.131 C  
HETATM   11  O   UNL     1     -11.337   9.926  70.994  1.00  0.00    -0.342 OA 
HETATM   12  P   UNL     1      -7.951   9.316  69.256  1.00  0.00    -0.109 P  
HETATM   13  C   UNL     1      -9.415   8.606  68.320  1.00  0.00    -0.141 C  
HETATM   14  C   UNL     1     -11.047   8.823  70.252  1.00  0.00    -0.222 C  
ENDROOT
BRANCH   5  15
HETATM   15  O   UNL     1     -11.133  12.238  66.914  1.00  0.00    -0.260 OA 
BRANCH  15  16
HETATM   16  C   UNL     1      -9.975  13.115  66.935  1.00  0.00    -0.245 C  
HETATM   17  O   UNL     1      -9.836  13.413  64.476  1.00  0.00    -0.625 OA 
HETATM   18  C   UNL     1      -9.933  14.085  65.743  1.00  0.00    -0.298 C  
HETATM   19  C   UNL     1     -11.193  14.946  65.790  1.00  0.00    -0.334 C  
HETATM   20  O   UNL     1     -11.301  15.657  64.552  1.00  0.00    -0.634 OA 
HETATM   21  H   UNL     1      -9.810  14.012  63.740  1.00  0.00     0.000 HD 
HETATM   22  C   UNL     1     -11.126  15.821  67.060  1.00  0.00    -0.152 C  
HETATM   23  O   UNL     1     -10.991  15.013  68.244  1.00  0.00    -0.254 OA 
HETATM   24  O   UNL     1     -10.044  16.760  67.040  1.00  0.00    -0.263 OA 
HETATM   25  H   UNL     1     -12.085  16.192  64.581  1.00  0.00     0.000 HD 
HETATM   26  C   UNL     1     -10.012  13.959  68.232  1.00  0.00    -0.238 C  
HETATM   27  P   UNL     1     -10.158  18.090  66.112  1.00  0.00    -0.213 P  
HETATM   28  C   UNL     1      -8.579  14.389  68.597  1.00  0.00    -0.161 C  
HETATM   29  O   UNL     1      -8.475  15.672  69.000  1.00  0.00    -0.194 OA 
HETATM   30  O   UNL     1      -7.606  13.649  68.552  1.00  0.00    -0.122 OA 
ENDBRANCH  15  16
ENDBRANCH   5  15
TORSDOF 2
ENDMDL
MODEL       39
REMARK 921   NORMALIZED FREE ENERGY PREDICTED BY IDOCK:   -6.17 KCAL/MOL
REMARK 922        TOTAL FREE ENERGY PREDICTED BY IDOCK:   -7.60 KCAL/MOL
REMARK 923 INTER-LIGAND FREE ENERGY PREDICTED BY IDOCK:   -7.63 KCAL/MOL
REMARK 924 INTRA-LIGAND FREE ENERGY PREDICTED BY IDOCK:    0.03 KCAL/MOL
REMARK 927      BINDING AFFINITY PREDICTED BY RF-SCORE:    0.00 PKD
ROOT
HETATM    1  O   UNL     1     -12.243   6.687  69.725  1.00  0.00    -0.574 OA 
HETATM    2  C   UNL     1     -10.875   6.344  69.429  1.00  0.00    -0.321 C  
HETATM    3  H   UNL     1     -12.534   6.141  70.445  1.00  0.00     0.000 HD 
HETATM    4  C   UNL     1     -10.405   7.228  68.264  1.00  0.00    -0.193 C  
HETATM    5  C   UNL     1     -10.179   8.697  68.739  1.00  0.00    -0.207 C  
HETATM    6  O   UNL     1     -11.390   7.071  67.228  1.00  0.00    -0.605 OA 
HETATM    7  O   UNL     1      -9.617   7.851  73.416  1.00  0.00    -0.281 OA 
HETATM    8  H   UNL     1     -11.099   7.618  66.508  1.00  0.00     0.000 HD 
HETATM    9  O   UNL     1      -9.324   8.727  69.906  1.00  0.00    -0.155 OA 
HETATM   10  C   UNL     1      -9.956   8.030  71.003  1.00  0.00    -0.182 C  
HETATM   11  O   UNL     1      -8.231   9.178  72.214  1.00  0.00    -0.281 OA 
HETATM   12  P   UNL     1      -8.365   5.706  70.545  1.00  0.00    -0.120 P  
HETATM   13  C   UNL     1     -10.045   6.529  70.703  1.00  0.00    -0.185 C  
HETATM   14  C   UNL     1      -9.272   8.310  72.338  1.00  0.00    -0.256 C  
ENDROOT
BRANCH   5  15
HETATM   15  O   UNL     1      -9.589   9.547  67.736  1.00  0.00    -0.131 OA 
BRANCH  15  16
HETATM   16  C   UNL     1     -10.491  10.424  67.010  1.00  0.00    -0.251 C  
HETATM   17  O   UNL     1     -12.249  10.485  68.758  1.00  0.00    -0.779 OA 
HETATM   18  C   UNL     1     -11.377  11.275  67.934  1.00  0.00    -0.299 C  
HETATM   19  C   UNL     1     -10.463  12.134  68.803  1.00  0.00    -0.176 C  
HETATM   20  O   UNL     1     -11.251  12.724  69.843  1.00  0.00    -0.490 OA 
HETATM   21  H   UNL     1     -12.797  11.010  69.329  1.00  0.00     0.000 HD 
HETATM   22  C   UNL     1      -9.722  13.127  67.881  1.00  0.00    -0.221 C  
HETATM   23  O   UNL     1      -8.984  12.436  66.856  1.00  0.00    -0.202 OA 
HETATM   24  O   UNL     1     -10.600  14.062  67.241  1.00  0.00    -0.270 OA 
HETATM   25  H   UNL     1     -10.682  13.258  70.384  1.00  0.00     0.000 HD 
HETATM   26  C   UNL     1      -9.654  11.388  66.135  1.00  0.00    -0.218 C  
HETATM   27  P   UNL     1     -11.215  15.296  68.100  1.00  0.00    -0.338 P  
HETATM   28  C   UNL     1     -10.504  11.852  64.938  1.00  0.00    -0.287 C  
HETATM   29  O   UNL     1     -10.394  13.168  64.662  1.00  0.00    -0.361 OA 
HETATM   30  O   UNL     1     -11.211  11.113  64.267  1.00  0.00    -0.246 OA 
ENDBRANCH  15  16
ENDBRANCH   5  15
TORSDOF 2
ENDMDL
MODEL       40
REMARK 921   NORMALIZED FREE ENERGY PREDICTED BY IDOCK:   -6.13 KCAL/MOL
REMARK 922        TOTAL FREE ENERGY PREDICTED BY IDOCK:   -7.56 KCAL/MOL
REMARK 923 INTER-LIGAND FREE ENERGY PREDICTED BY IDOCK:   -6.63 KCAL/MOL
REMARK 924 INTRA-LIGAND FREE ENERGY PREDICTED BY IDOCK:   -0.93 KCAL/MOL
REMARK 927      BINDING AFFINITY PREDICTED BY RF-SCORE:    0.00 PKD
ROOT
HETATM    1  O   UNL     1      -8.274  14.246  66.828  1.00  0.00    -0.399 OA 
HETATM    2  C   UNL     1      -9.454  13.575  66.342  1.00  0.00    -0.224 C  
HETATM    3  H   UNL     1      -8.370  15.174  66.650  1.00  0.00     0.000 HD 
HETATM    4  C   UNL     1      -9.300  12.074  66.629  1.00  0.00    -0.219 C  
HETATM    5  C   UNL     1      -9.474  11.779  68.151  1.00  0.00    -0.193 C  
HETATM    6  O   UNL     1      -8.023  11.697  66.082  1.00  0.00    -0.372 OA 
HETATM    7  O   UNL     1     -11.928  15.708  69.356  1.00  0.00    -0.361 OA 
HETATM    8  H   UNL     1      -7.928  10.769  66.260  1.00  0.00     0.000 HD 
HETATM    9  O   UNL     1     -10.701  12.367  68.643  1.00  0.00    -0.227 OA 
HETATM   10  C   UNL     1     -10.655  13.805  68.503  1.00  0.00    -0.253 C  
HETATM   11  O   UNL     1     -12.527  13.620  69.993  1.00  0.00    -0.293 OA 
HETATM   12  P   UNL     1     -12.265  13.704  66.149  1.00  0.00    -0.405 P  
HETATM   13  C   UNL     1     -10.677  14.198  67.021  1.00  0.00    -0.285 C  
HETATM   14  C   UNL     1     -11.755  14.501  69.299  1.00  0.00    -0.310 C  
ENDROOT
BRANCH   5  15
HETATM   15  O   UNL     1      -9.496  10.374  68.472  1.00  0.00    -0.147 OA 
BRANCH  15  16
HETATM   16  C   UNL     1      -9.183  10.013  69.843  1.00  0.00    -0.158 C  
HETATM   17  O   UNL     1     -11.316  10.824  70.815  1.00  0.00    -0.396 OA 
HETATM   18  C   UNL     1     -10.431   9.699  70.684  1.00  0.00    -0.312 C  
HETATM   19  C   UNL     1     -11.158   8.528  70.029  1.00  0.00    -0.151 C  
HETATM   20  O   UNL     1     -12.449   8.401  70.636  1.00  0.00    -0.489 OA 
HETATM   21  H   UNL     1     -12.088  10.631  71.334  1.00  0.00     0.000 HD 
HETATM   22  C   UNL     1     -10.248   7.285  70.129  1.00  0.00    -0.203 C  
HETATM   23  O   UNL     1      -8.968   7.525  69.515  1.00  0.00    -0.143 OA 
HETATM   24  O   UNL     1     -10.019   6.863  71.479  1.00  0.00    -0.178 OA 
HETATM   25  H   UNL     1     -12.902   7.672  70.228  1.00  0.00     0.000 HD 
HETATM   26  C   UNL     1      -8.288   8.751  69.835  1.00  0.00    -0.125 C  
HETATM   27  P   UNL     1     -11.196   6.082  72.282  1.00  0.00    -0.301 P  
HETATM   28  C   UNL     1      -7.446   8.719  71.124  1.00  0.00    -0.101 C  
HETATM   29  O   UNL     1      -7.367   7.501  71.700  1.00  0.00    -0.072 OA 
HETATM   30  O   UNL     1      -6.872   9.690  71.596  1.00  0.00    -0.309 OA 
ENDBRANCH  15  16
ENDBRANCH   5  15
TORSDOF 2
ENDMDL
MODEL       41
REMARK 921   NORMALIZED FREE ENERGY PREDICTED BY IDOCK:   -6.08 KCAL/MOL
REMARK 922        TOTAL FREE ENERGY PREDICTED BY IDOCK:   -7.50 KCAL/MOL
REMARK 923 INTER-LIGAND FREE ENERGY PREDICTED BY IDOCK:   -6.92 KCAL/MOL
REMARK 924 INTRA-LIGAND FREE ENERGY PREDICTED BY IDOCK:   -0.59 KCAL/MOL
REMARK 927      BINDING AFFINITY PREDICTED BY RF-SCORE:    0.00 PKD
ROOT
HETATM    1  O   UNL     1      -8.270  11.231  64.855  1.00  0.00    -0.344 OA 
HETATM    2  C   UNL     1      -9.671  11.020  64.591  1.00  0.00    -0.266 C  
HETATM    3  H   UNL     1      -7.976  11.958  64.318  1.00  0.00     0.000 HD 
HETATM    4  C   UNL     1     -10.145   9.844  65.459  1.00  0.00    -0.227 C  
HETATM    5  C   UNL     1     -10.251  10.268  66.957  1.00  0.00    -0.228 C  
HETATM    6  O   UNL     1      -9.229   8.766  65.198  1.00  0.00    -0.419 OA 
HETATM    7  O   UNL     1     -10.615  14.999  66.331  1.00  0.00    -0.295 OA 
HETATM    8  H   UNL     1      -9.523   8.040  65.735  1.00  0.00     0.000 HD 
HETATM    9  O   UNL     1     -11.038  11.475  67.088  1.00  0.00    -0.266 OA 
HETATM   10  C   UNL     1     -10.395  12.566  66.393  1.00  0.00    -0.243 C  
HETATM   11  O   UNL     1     -11.975  13.814  67.699  1.00  0.00    -0.358 OA 
HETATM   12  P   UNL     1     -12.153  12.288  64.164  1.00  0.00    -0.438 P  
HETATM   13  C   UNL     1     -10.418  12.325  64.880  1.00  0.00    -0.289 C  
HETATM   14  C   UNL     1     -10.986  13.922  66.770  1.00  0.00    -0.299 C  
ENDROOT
BRANCH   5  15
HETATM   15  O   UNL     1     -10.838   9.261  67.805  1.00  0.00    -0.237 OA 
BRANCH  15  16
HETATM   16  C   UNL     1      -9.920   8.368  68.491  1.00  0.00    -0.187 C  
HETATM   17  O   UNL     1      -9.492   9.871  70.417  1.00  0.00    -0.358 OA 
HETATM   18  C   UNL     1      -9.920   8.559  70.016  1.00  0.00    -0.188 C  
HETATM   19  C   UNL     1     -11.332   8.285  70.525  1.00  0.00    -0.219 C  
HETATM   20  O   UNL     1     -11.413   8.717  71.888  1.00  0.00    -0.312 OA 
HETATM   21  H   UNL     1      -9.492   9.989  71.359  1.00  0.00     0.000 HD 
HETATM   22  C   UNL     1     -11.648   6.794  70.278  1.00  0.00    -0.362 C  
HETATM   23  O   UNL     1     -11.512   6.456  68.885  1.00  0.00    -0.314 OA 
HETATM   24  O   UNL     1     -10.811   5.909  71.032  1.00  0.00    -0.260 OA 
HETATM   25  H   UNL     1     -12.292   8.547  72.205  1.00  0.00     0.000 HD 
HETATM   26  C   UNL     1     -10.332   6.906  68.195  1.00  0.00    -0.190 C  
HETATM   27  P   UNL     1     -11.080   5.716  72.622  1.00  0.00    -0.285 P  
HETATM   28  C   UNL     1      -9.100   5.994  68.337  1.00  0.00    -0.112 C  
HETATM   29  O   UNL     1      -9.343   4.836  68.986  1.00  0.00    -0.115 OA 
HETATM   30  O   UNL     1      -7.991   6.261  67.896  1.00  0.00    -0.108 OA 
ENDBRANCH  15  16
ENDBRANCH   5  15
TORSDOF 2
ENDMDL
MODEL       42
REMARK 921   NORMALIZED FREE ENERGY PREDICTED BY IDOCK:   -6.08 KCAL/MOL
REMARK 922        TOTAL FREE ENERGY PREDICTED BY IDOCK:   -7.49 KCAL/MOL
REMARK 923 INTER-LIGAND FREE ENERGY PREDICTED BY IDOCK:   -7.52 KCAL/MOL
REMARK 924 INTRA-LIGAND FREE ENERGY PREDICTED BY IDOCK:    0.03 KCAL/MOL
REMARK 927      BINDING AFFINITY PREDICTED BY RF-SCORE:    0.00 PKD
ROOT
HETATM    1  O   UNL     1     -12.608  14.995  68.806  1.00  0.00    -0.476 OA 
HETATM    2  C   UNL     1     -11.303  14.636  68.309  1.00  0.00    -0.297 C  
HETATM    3  H   UNL     1     -12.731  15.926  68.663  1.00  0.00     0.000 HD 
HETATM    4  C   UNL     1     -11.105  13.130  68.541  1.00  0.00    -0.266 C  
HETATM    5  C   UNL     1     -11.970  12.297  67.547  1.00  0.00    -0.140 C  
HETATM    6  O   UNL     1     -11.394  12.904  69.933  1.00  0.00    -0.491 OA 
HETATM    7  O   UNL     1     -12.585  15.635  64.173  1.00  0.00    -0.517 OA 
HETATM    8  H   UNL     1     -11.271  11.973  70.076  1.00  0.00     0.000 HD 
HETATM    9  O   UNL     1     -11.744  12.735  66.187  1.00  0.00    -0.360 OA 
HETATM   10  C   UNL     1     -12.150  14.114  66.034  1.00  0.00    -0.432 C  
HETATM   11  O   UNL     1     -11.967  13.505  63.720  1.00  0.00    -0.458 OA 
HETATM   12  P   UNL     1      -9.448  15.012  66.219  1.00  0.00    -0.296 P  
HETATM   13  C   UNL     1     -11.223  15.036  66.833  1.00  0.00    -0.323 C  
HETATM   14  C   UNL     1     -12.253  14.529  64.570  1.00  0.00    -0.465 C  
ENDROOT
BRANCH   5  15
HETATM   15  O   UNL     1     -11.717  10.879  67.603  1.00  0.00    -0.566 OA 
BRANCH  15  16
HETATM   16  C   UNL     1     -10.373  10.471  67.975  1.00  0.00    -0.181 C  
HETATM   17  O   UNL     1     -11.001   8.200  68.752  1.00  0.00    -0.424 OA 
HETATM   18  C   UNL     1     -10.153   8.953  67.868  1.00  0.00    -0.206 C  
HETATM   19  C   UNL     1     -10.401   8.541  66.420  1.00  0.00    -0.011 C  
HETATM   20  O   UNL     1     -10.466   7.112  66.361  1.00  0.00    -0.489 OA 
HETATM   21  H   UNL     1     -10.866   7.263  68.686  1.00  0.00     0.000 HD 
HETATM   22  C   UNL     1      -9.312   9.196  65.544  1.00  0.00    -0.221 C  
HETATM   23  O   UNL     1      -9.312  10.628  65.696  1.00  0.00    -0.182 OA 
HETATM   24  O   UNL     1      -7.992   8.720  65.837  1.00  0.00    -0.099 OA 
HETATM   25  H   UNL     1     -10.621   6.856  65.460  1.00  0.00     0.000 HD 
HETATM   26  C   UNL     1      -9.362  11.163  67.030  1.00  0.00    -0.170 C  
HETATM   27  P   UNL     1      -7.542   7.247  65.320  1.00  0.00    -0.117 P  
HETATM   28  C   UNL     1      -8.002  11.282  67.743  1.00  0.00    -0.117 C  
HETATM   29  O   UNL     1      -6.943  10.984  66.962  1.00  0.00    -0.101 OA 
HETATM   30  O   UNL     1      -7.863  11.631  68.907  1.00  0.00    -0.118 OA 
ENDBRANCH  15  16
ENDBRANCH   5  15
TORSDOF 2
ENDMDL
MODEL       43
REMARK 921   NORMALIZED FREE ENERGY PREDICTED BY IDOCK:   -6.06 KCAL/MOL
REMARK 922        TOTAL FREE ENERGY PREDICTED BY IDOCK:   -7.47 KCAL/MOL
REMARK 923 INTER-LIGAND FREE ENERGY PREDICTED BY IDOCK:   -6.61 KCAL/MOL
REMARK 924 INTRA-LIGAND FREE ENERGY PREDICTED BY IDOCK:   -0.87 KCAL/MOL
REMARK 927      BINDING AFFINITY PREDICTED BY RF-SCORE:    0.00 PKD
ROOT
HETATM    1  O   UNL     1     -11.976   7.827  73.164  1.00  0.00    -0.644 OA 
HETATM    2  C   UNL     1     -11.699   7.209  71.892  1.00  0.00    -0.292 C  
HETATM    3  H   UNL     1     -12.046   7.140  73.816  1.00  0.00     0.000 HD 
HETATM    4  C   UNL     1     -11.585   8.322  70.838  1.00  0.00    -0.262 C  
HETATM    5  C   UNL     1     -10.252   9.114  71.009  1.00  0.00    -0.302 C  
HETATM    6  O   UNL     1     -12.780   9.113  70.970  1.00  0.00    -0.471 OA 
HETATM    7  O   UNL     1      -7.766   5.805  73.413  1.00  0.00    -0.101 OA 
HETATM    8  H   UNL     1     -12.709   9.800  70.318  1.00  0.00     0.000 HD 
HETATM    9  O   UNL     1      -9.126   8.206  71.056  1.00  0.00    -0.143 OA 
HETATM   10  C   UNL     1      -9.238   7.333  72.202  1.00  0.00    -0.132 C  
HETATM   11  O   UNL     1      -6.941   6.934  71.633  1.00  0.00    -0.067 OA 
HETATM   12  P   UNL     1     -10.218   5.200  70.578  1.00  0.00    -0.208 P  
HETATM   13  C   UNL     1     -10.422   6.374  72.030  1.00  0.00    -0.208 C  
HETATM   14  C   UNL     1      -7.937   6.593  72.496  1.00  0.00    -0.102 C  
ENDROOT
BRANCH   5  15
HETATM   15  O   UNL     1     -10.006  10.071  69.959  1.00  0.00    -0.249 OA 
BRANCH  15  16
HETATM   16  C   UNL     1     -10.484   9.722  68.633  1.00  0.00    -0.208 C  
HETATM   17  O   UNL     1     -12.640  10.935  68.811  1.00  0.00    -0.699 OA 
HETATM   18  C   UNL     1     -11.438  10.772  68.041  1.00  0.00    -0.256 C  
HETATM   19  C   UNL     1     -10.684  12.096  67.950  1.00  0.00    -0.207 C  
HETATM   20  O   UNL     1     -11.627  13.134  67.660  1.00  0.00    -0.306 OA 
HETATM   21  H   UNL     1     -13.230  11.584  68.445  1.00  0.00     0.000 HD 
HETATM   22  C   UNL     1      -9.541  11.926  66.927  1.00  0.00    -0.200 C  
HETATM   23  O   UNL     1      -8.668  10.842  67.295  1.00  0.00    -0.130 OA 
HETATM   24  O   UNL     1     -10.011  11.683  65.595  1.00  0.00    -0.223 OA 
HETATM   25  H   UNL     1     -11.158  13.958  67.605  1.00  0.00     0.000 HD 
HETATM   26  C   UNL     1      -9.270   9.595  67.682  1.00  0.00    -0.130 C  
HETATM   27  P   UNL     1     -10.624  12.912  64.727  1.00  0.00    -0.370 P  
HETATM   28  C   UNL     1      -9.632   8.651  66.521  1.00  0.00    -0.237 C  
HETATM   29  O   UNL     1      -9.215   9.080  65.312  1.00  0.00    -0.209 OA 
HETATM   30  O   UNL     1     -10.229   7.591  66.655  1.00  0.00    -0.250 OA 
ENDBRANCH  15  16
ENDBRANCH   5  15
TORSDOF 2
ENDMDL
MODEL       44
REMARK 921   NORMALIZED FREE ENERGY PREDICTED BY IDOCK:   -6.05 KCAL/MOL
REMARK 922        TOTAL FREE ENERGY PREDICTED BY IDOCK:   -7.46 KCAL/MOL
REMARK 923 INTER-LIGAND FREE ENERGY PREDICTED BY IDOCK:   -6.64 KCAL/MOL
REMARK 924 INTRA-LIGAND FREE ENERGY PREDICTED BY IDOCK:   -0.82 KCAL/MOL
REMARK 927      BINDING AFFINITY PREDICTED BY RF-SCORE:    0.00 PKD
ROOT
HETATM    1  O   UNL     1     -10.551   5.185  69.430  1.00  0.00    -0.212 OA 
HETATM    2  C   UNL     1     -10.044   5.957  70.536  1.00  0.00    -0.197 C  
HETATM    3  H   UNL     1     -10.990   4.419  69.782  1.00  0.00     0.000 HD 
HETATM    4  C   UNL     1      -9.335   7.195  69.965  1.00  0.00    -0.154 C  
HETATM    5  C   UNL     1     -10.370   8.224  69.417  1.00  0.00    -0.222 C  
HETATM    6  O   UNL     1      -8.400   6.699  68.991  1.00  0.00    -0.118 OA 
HETATM    7  O   UNL     1     -14.198   6.767  71.894  1.00  0.00    -0.267 OA 
HETATM    8  H   UNL     1      -7.961   7.464  68.639  1.00  0.00     0.000 HD 
HETATM    9  O   UNL     1     -11.379   8.510  70.415  1.00  0.00    -0.256 OA 
HETATM   10  C   UNL     1     -12.117   7.309  70.733  1.00  0.00    -0.245 C  
HETATM   11  O   UNL     1     -13.579   8.938  71.718  1.00  0.00    -0.371 OA 
HETATM   12  P   UNL     1     -10.610   6.922  73.124  1.00  0.00    -0.334 P  
HETATM   13  C   UNL     1     -11.217   6.304  71.459  1.00  0.00    -0.290 C  
HETATM   14  C   UNL     1     -13.395   7.605  71.513  1.00  0.00    -0.332 C  
ENDROOT
BRANCH   5  15
HETATM   15  O   UNL     1      -9.784   9.476  69.008  1.00  0.00    -0.162 OA 
BRANCH  15  16
HETATM   16  C   UNL     1     -10.447  10.185  67.927  1.00  0.00    -0.222 C  
HETATM   17  O   UNL     1     -12.582  10.554  69.135  1.00  0.00    -0.740 OA 
HETATM   18  C   UNL     1     -11.505  11.185  68.422  1.00  0.00    -0.306 C  
HETATM   19  C   UNL     1     -10.807  12.207  69.315  1.00  0.00    -0.051 C  
HETATM   20  O   UNL     1     -11.809  12.973  69.993  1.00  0.00    -0.397 OA 
HETATM   21  H   UNL     1     -13.236  11.171  69.440  1.00  0.00     0.000 HD 
HETATM   22  C   UNL     1      -9.827  13.016  68.438  1.00  0.00    -0.203 C  
HETATM   23  O   UNL     1      -8.881  12.153  67.781  1.00  0.00    -0.157 OA 
HETATM   24  O   UNL     1     -10.485  13.798  67.434  1.00  0.00    -0.253 OA 
HETATM   25  H   UNL     1     -11.374  13.609  70.549  1.00  0.00     0.000 HD 
HETATM   26  C   UNL     1      -9.386  10.976  67.125  1.00  0.00    -0.164 C  
HETATM   27  P   UNL     1     -11.252  15.165  67.862  1.00  0.00    -0.330 P  
HETATM   28  C   UNL     1      -9.895  11.191  65.688  1.00  0.00    -0.235 C  
HETATM   29  O   UNL     1      -9.674  12.432  65.205  1.00  0.00    -0.203 OA 
HETATM   30  O   UNL     1     -10.437  10.328  65.012  1.00  0.00    -0.221 OA 
ENDBRANCH  15  16
ENDBRANCH   5  15
TORSDOF 2
ENDMDL
MODEL       45
REMARK 921   NORMALIZED FREE ENERGY PREDICTED BY IDOCK:   -6.03 KCAL/MOL
REMARK 922        TOTAL FREE ENERGY PREDICTED BY IDOCK:   -7.44 KCAL/MOL
REMARK 923 INTER-LIGAND FREE ENERGY PREDICTED BY IDOCK:   -6.86 KCAL/MOL
REMARK 924 INTRA-LIGAND FREE ENERGY PREDICTED BY IDOCK:   -0.58 KCAL/MOL
REMARK 927      BINDING AFFINITY PREDICTED BY RF-SCORE:    0.00 PKD
ROOT
HETATM    1  O   UNL     1     -12.601  14.451  68.568  1.00  0.00    -0.533 OA 
HETATM    2  C   UNL     1     -11.460  14.821  67.769  1.00  0.00    -0.345 C  
HETATM    3  H   UNL     1     -13.369  14.867  68.194  1.00  0.00     0.000 HD 
HETATM    4  C   UNL     1     -10.219  14.148  68.374  1.00  0.00    -0.247 C  
HETATM    5  C   UNL     1     -10.221  12.615  68.085  1.00  0.00    -0.240 C  
HETATM    6  O   UNL     1     -10.221  14.500  69.770  1.00  0.00    -0.430 OA 
HETATM    7  O   UNL     1     -13.154  12.615  64.302  1.00  0.00    -0.741 OA 
HETATM    8  H   UNL     1      -9.453  14.084  70.144  1.00  0.00     0.000 HD 
HETATM    9  O   UNL     1     -10.417  12.367  66.672  1.00  0.00    -0.227 OA 
HETATM   10  C   UNL     1     -11.705  12.870  66.253  1.00  0.00    -0.399 C  
HETATM   11  O   UNL     1     -11.185  11.499  64.353  1.00  0.00    -0.321 OA 
HETATM   12  P   UNL     1     -10.516  15.213  65.141  1.00  0.00    -0.342 P  
HETATM   13  C   UNL     1     -11.730  14.401  66.321  1.00  0.00    -0.385 C  
HETATM   14  C   UNL     1     -12.111  12.348  64.878  1.00  0.00    -0.407 C  
ENDROOT
BRANCH   5  15
HETATM   15  O   UNL     1      -9.010  11.945  68.488  1.00  0.00    -0.176 OA 
BRANCH  15  16
HETATM   16  C   UNL     1      -8.851  10.568  68.057  1.00  0.00    -0.131 C  
HETATM   17  O   UNL     1      -6.382  10.511  68.284  1.00  0.00    -0.054 OA 
HETATM   18  C   UNL     1      -7.617   9.883  68.666  1.00  0.00    -0.080 C  
HETATM   19  C   UNL     1      -7.771   9.900  70.185  1.00  0.00    -0.175 C  
HETATM   20  O   UNL     1      -6.521   9.517  70.769  1.00  0.00    -0.078 OA 
HETATM   21  H   UNL     1      -5.619  10.089  68.660  1.00  0.00     0.000 HD 
HETATM   22  C   UNL     1      -8.980   9.014  70.552  1.00  0.00    -0.213 C  
HETATM   23  O   UNL     1     -10.177   9.466  69.893  1.00  0.00    -0.195 OA 
HETATM   24  O   UNL     1      -8.787   7.633  70.221  1.00  0.00    -0.143 OA 
HETATM   25  H   UNL     1      -6.616   9.528  71.714  1.00  0.00     0.000 HD 
HETATM   26  C   UNL     1     -10.101   9.763  68.488  1.00  0.00    -0.166 C  
HETATM   27  P   UNL     1      -7.816   6.718  71.149  1.00  0.00    -0.102 P  
HETATM   28  C   UNL     1     -10.273   8.554  67.550  1.00  0.00    -0.242 C  
HETATM   29  O   UNL     1     -10.599   7.408  68.183  1.00  0.00    -0.203 OA 
HETATM   30  O   UNL     1     -10.151   8.603  66.334  1.00  0.00    -0.284 OA 
ENDBRANCH  15  16
ENDBRANCH   5  15
TORSDOF 2
ENDMDL
MODEL       46
REMARK 921   NORMALIZED FREE ENERGY PREDICTED BY IDOCK:   -6.02 KCAL/MOL
REMARK 922        TOTAL FREE ENERGY PREDICTED BY IDOCK:   -7.43 KCAL/MOL
REMARK 923 INTER-LIGAND FREE ENERGY PREDICTED BY IDOCK:   -6.52 KCAL/MOL
REMARK 924 INTRA-LIGAND FREE ENERGY PREDICTED BY IDOCK:   -0.92 KCAL/MOL
REMARK 927      BINDING AFFINITY PREDICTED BY RF-SCORE:    0.00 PKD
ROOT
HETATM    1  O   UNL     1     -11.677  11.226  68.031  1.00  0.00    -0.501 OA 
HETATM    2  C   UNL     1     -11.816  12.557  67.495  1.00  0.00    -0.323 C  
HETATM    3  H   UNL     1     -12.411  10.707  67.724  1.00  0.00     0.000 HD 
HETATM    4  C   UNL     1     -10.629  13.395  67.992  1.00  0.00    -0.243 C  
HETATM    5  C   UNL     1      -9.315  12.985  67.259  1.00  0.00    -0.220 C  
HETATM    6  O   UNL     1     -10.601  13.232  69.421  1.00  0.00    -0.440 OA 
HETATM    7  O   UNL     1     -11.267  10.975  63.378  1.00  0.00    -0.077 OA 
HETATM    8  H   UNL     1      -9.867  13.751  69.728  1.00  0.00     0.000 HD 
HETATM    9  O   UNL     1      -9.509  12.999  65.825  1.00  0.00    -0.125 OA 
HETATM   10  C   UNL     1     -10.512  12.029  65.449  1.00  0.00    -0.275 C  
HETATM   11  O   UNL     1      -9.566  12.466  63.288  1.00  0.00    -0.221 OA 
HETATM   12  P   UNL     1     -12.500  14.062  65.211  1.00  0.00    -0.403 P  
HETATM   13  C   UNL     1     -11.890  12.456  65.969  1.00  0.00    -0.395 C  
HETATM   14  C   UNL     1     -10.522  11.757  63.948  1.00  0.00    -0.390 C  
ENDROOT
BRANCH   5  15
HETATM   15  O   UNL     1      -8.190  13.836  67.562  1.00  0.00    -0.164 OA 
BRANCH  15  16
HETATM   16  C   UNL     1      -8.459  15.259  67.665  1.00  0.00    -0.161 C  
HETATM   17  O   UNL     1      -8.688  15.297  70.135  1.00  0.00    -0.259 OA 
HETATM   18  C   UNL     1      -8.004  15.862  69.004  1.00  0.00    -0.222 C  
HETATM   19  C   UNL     1      -6.499  15.643  69.133  1.00  0.00    -0.131 C  
HETATM   20  O   UNL     1      -6.111  15.950  70.477  1.00  0.00    -0.037 OA 
HETATM   21  H   UNL     1      -8.407  15.669  70.962  1.00  0.00     0.000 HD 
HETATM   22  C   UNL     1      -5.800  16.466  68.031  1.00  0.00    -0.114 C  
HETATM   23  O   UNL     1      -6.279  16.100  66.723  1.00  0.00    -0.303 OA 
HETATM   24  O   UNL     1      -5.976  17.879  68.187  1.00  0.00    -0.166 OA 
HETATM   25  H   UNL     1      -5.175  15.813  70.557  1.00  0.00     0.000 HD 
HETATM   26  C   UNL     1      -7.701  15.993  66.533  1.00  0.00    -0.132 C  
HETATM   27  P   UNL     1      -5.132  18.668  69.330  1.00  0.00    -0.193 P  
HETATM   28  C   UNL     1      -8.423  17.316  66.215  1.00  0.00    -0.243 C  
HETATM   29  O   UNL     1      -7.595  18.366  66.035  1.00  0.00    -0.379 OA 
HETATM   30  O   UNL     1      -9.636  17.430  66.110  1.00  0.00    -0.402 OA 
ENDBRANCH  15  16
ENDBRANCH   5  15
TORSDOF 2
ENDMDL
MODEL       47
REMARK 921   NORMALIZED FREE ENERGY PREDICTED BY IDOCK:   -6.02 KCAL/MOL
REMARK 922        TOTAL FREE ENERGY PREDICTED BY IDOCK:   -7.43 KCAL/MOL
REMARK 923 INTER-LIGAND FREE ENERGY PREDICTED BY IDOCK:   -7.07 KCAL/MOL
REMARK 924 INTRA-LIGAND FREE ENERGY PREDICTED BY IDOCK:   -0.36 KCAL/MOL
REMARK 927      BINDING AFFINITY PREDICTED BY RF-SCORE:    0.00 PKD
ROOT
HETATM    1  O   UNL     1     -12.602  14.891  68.651  1.00  0.00    -0.466 OA 
HETATM    2  C   UNL     1     -11.320  15.267  68.109  1.00  0.00    -0.338 C  
HETATM    3  H   UNL     1     -13.262  15.452  68.261  1.00  0.00     0.000 HD 
HETATM    4  C   UNL     1     -10.253  14.360  68.741  1.00  0.00    -0.239 C  
HETATM    5  C   UNL     1     -10.338  12.915  68.159  1.00  0.00    -0.240 C  
HETATM    6  O   UNL     1     -10.449  14.452  70.163  1.00  0.00    -0.388 OA 
HETATM    7  O   UNL     1     -12.616  13.930  64.074  1.00  0.00    -0.689 OA 
HETATM    8  H   UNL     1      -9.789  13.891  70.553  1.00  0.00     0.000 HD 
HETATM    9  O   UNL     1     -10.325  12.950  66.712  1.00  0.00    -0.241 OA 
HETATM   10  C   UNL     1     -11.482  13.662  66.221  1.00  0.00    -0.333 C  
HETATM   11  O   UNL     1     -10.781  12.608  64.183  1.00  0.00    -0.351 OA 
HETATM   12  P   UNL     1      -9.937  16.018  65.769  1.00  0.00    -0.276 P  
HETATM   13  C   UNL     1     -11.388  15.149  66.584  1.00  0.00    -0.234 C  
HETATM   14  C   UNL     1     -11.704  13.447  64.727  1.00  0.00    -0.361 C  
ENDROOT
BRANCH   5  15
HETATM   15  O   UNL     1      -9.268  12.051  68.591  1.00  0.00    -0.147 OA 
BRANCH  15  16
HETATM   16  C   UNL     1      -9.653  10.774  69.166  1.00  0.00    -0.151 C  
HETATM   17  O   UNL     1     -11.595  10.395  67.671  1.00  0.00    -0.615 OA 
HETATM   18  C   UNL     1     -10.360   9.849  68.162  1.00  0.00    -0.195 C  
HETATM   19  C   UNL     1      -9.399   9.589  67.004  1.00  0.00    -0.148 C  
HETATM   20  O   UNL     1     -10.129   8.960  65.945  1.00  0.00    -0.432 OA 
HETATM   21  H   UNL     1     -12.032   9.824  67.050  1.00  0.00     0.000 HD 
HETATM   22  C   UNL     1      -8.197   8.791  67.552  1.00  0.00    -0.110 C  
HETATM   23  O   UNL     1      -7.550   9.495  68.629  1.00  0.00    -0.078 OA 
HETATM   24  O   UNL     1      -8.556   7.488  68.028  1.00  0.00    -0.123 OA 
HETATM   25  H   UNL     1      -9.532   8.799  65.224  1.00  0.00     0.000 HD 
HETATM   26  C   UNL     1      -8.381  10.048  69.665  1.00  0.00    -0.176 C  
HETATM   27  P   UNL     1      -8.870   6.306  66.957  1.00  0.00    -0.111 P  
HETATM   28  C   UNL     1      -8.764   9.071  70.792  1.00  0.00    -0.224 C  
HETATM   29  O   UNL     1      -8.159   7.868  70.709  1.00  0.00    -0.097 OA 
HETATM   30  O   UNL     1      -9.532   9.340  71.705  1.00  0.00    -0.302 OA 
ENDBRANCH  15  16
ENDBRANCH   5  15
TORSDOF 2
ENDMDL
MODEL       48
REMARK 921   NORMALIZED FREE ENERGY PREDICTED BY IDOCK:   -6.02 KCAL/MOL
REMARK 922        TOTAL FREE ENERGY PREDICTED BY IDOCK:   -7.43 KCAL/MOL
REMARK 923 INTER-LIGAND FREE ENERGY PREDICTED BY IDOCK:   -6.54 KCAL/MOL
REMARK 924 INTRA-LIGAND FREE ENERGY PREDICTED BY IDOCK:   -0.89 KCAL/MOL
REMARK 927      BINDING AFFINITY PREDICTED BY RF-SCORE:    0.00 PKD
ROOT
HETATM    1  O   UNL     1     -12.536  12.755  65.949  1.00  0.00    -0.560 OA 
HETATM    2  C   UNL     1     -12.219  13.293  67.248  1.00  0.00    -0.205 C  
HETATM    3  H   UNL     1     -13.073  13.391  65.490  1.00  0.00     0.000 HD 
HETATM    4  C   UNL     1     -11.351  12.265  67.989  1.00  0.00    -0.293 C  
HETATM    5  C   UNL     1      -9.909  12.226  67.395  1.00  0.00    -0.198 C  
HETATM    6  O   UNL     1     -12.069  11.020  67.920  1.00  0.00    -0.721 OA 
HETATM    7  O   UNL     1      -9.869  16.550  65.345  1.00  0.00    -0.530 OA 
HETATM    8  H   UNL     1     -11.532  10.385  68.378  1.00  0.00     0.000 HD 
HETATM    9  O   UNL     1      -9.350  13.559  67.334  1.00  0.00    -0.211 OA 
HETATM   10  C   UNL     1     -10.139  14.388  66.451  1.00  0.00    -0.286 C  
HETATM   11  O   UNL     1      -8.185  15.769  66.640  1.00  0.00    -0.251 OA 
HETATM   12  P   UNL     1     -11.464  15.614  68.660  1.00  0.00    -0.359 P  
HETATM   13  C   UNL     1     -11.524  14.644  67.054  1.00  0.00    -0.368 C  
HETATM   14  C   UNL     1      -9.423  15.685  66.082  1.00  0.00    -0.341 C  
ENDROOT
BRANCH   5  15
HETATM   15  O   UNL     1      -8.996  11.397  68.142  1.00  0.00    -0.156 OA 
BRANCH  15  16
HETATM   16  C   UNL     1      -8.253  10.402  67.388  1.00  0.00    -0.117 C  
HETATM   17  O   UNL     1      -7.395   9.172  69.363  1.00  0.00    -0.071 OA 
HETATM   18  C   UNL     1      -8.119   9.061  68.127  1.00  0.00    -0.105 C  
HETATM   19  C   UNL     1      -9.524   8.522  68.383  1.00  0.00    -0.135 C  
HETATM   20  O   UNL     1      -9.427   7.425  69.298  1.00  0.00    -0.154 OA 
HETATM   21  H   UNL     1      -7.312   8.344  69.820  1.00  0.00     0.000 HD 
HETATM   22  C   UNL     1     -10.168   8.200  67.018  1.00  0.00    -0.308 C  
HETATM   23  O   UNL     1     -10.193   9.360  66.166  1.00  0.00    -0.279 OA 
HETATM   24  O   UNL     1      -9.498   7.147  66.314  1.00  0.00    -0.153 OA 
HETATM   25  H   UNL     1     -10.301   7.090  69.458  1.00  0.00     0.000 HD 
HETATM   26  C   UNL     1      -8.988  10.137  66.052  1.00  0.00    -0.151 C  
HETATM   27  P   UNL     1      -9.706   5.608  66.792  1.00  0.00    -0.180 P  
HETATM   28  C   UNL     1      -7.975   9.631  65.008  1.00  0.00    -0.122 C  
HETATM   29  O   UNL     1      -8.423   8.601  64.260  1.00  0.00    -0.158 OA 
HETATM   30  O   UNL     1      -6.863  10.112  64.838  1.00  0.00    -0.128 OA 
ENDBRANCH  15  16
ENDBRANCH   5  15
TORSDOF 2
ENDMDL
MODEL       49
REMARK 921   NORMALIZED FREE ENERGY PREDICTED BY IDOCK:   -6.00 KCAL/MOL
REMARK 922        TOTAL FREE ENERGY PREDICTED BY IDOCK:   -7.41 KCAL/MOL
REMARK 923 INTER-LIGAND FREE ENERGY PREDICTED BY IDOCK:   -6.93 KCAL/MOL
REMARK 924 INTRA-LIGAND FREE ENERGY PREDICTED BY IDOCK:   -0.48 KCAL/MOL
REMARK 927      BINDING AFFINITY PREDICTED BY RF-SCORE:    0.00 PKD
ROOT
HETATM    1  O   UNL     1     -11.750  12.338  67.757  1.00  0.00    -0.333 OA 
HETATM    2  C   UNL     1     -12.238  12.967  66.555  1.00  0.00    -0.188 C  
HETATM    3  H   UNL     1     -12.106  11.458  67.793  1.00  0.00     0.000 HD 
HETATM    4  C   UNL     1     -11.663  14.390  66.497  1.00  0.00    -0.391 C  
HETATM    5  C   UNL     1     -10.143  14.361  66.146  1.00  0.00    -0.309 C  
HETATM    6  O   UNL     1     -11.980  14.995  67.764  1.00  0.00    -0.476 OA 
HETATM    7  O   UNL     1      -9.975  10.043  64.088  1.00  0.00    -0.194 OA 
HETATM    8  H   UNL     1     -11.624  15.875  67.728  1.00  0.00     0.000 HD 
HETATM    9  O   UNL     1      -9.912  13.566  64.959  1.00  0.00    -0.266 OA 
HETATM   10  C   UNL     1     -10.310  12.196  65.193  1.00  0.00    -0.279 C  
HETATM   11  O   UNL     1      -9.036  11.893  63.182  1.00  0.00    -0.147 OA 
HETATM   12  P   UNL     1     -12.774  12.593  63.812  1.00  0.00    -0.033 P  
HETATM   13  C   UNL     1     -11.830  12.101  65.359  1.00  0.00    -0.295 C  
HETATM   14  C   UNL     1      -9.787  11.249  64.117  1.00  0.00    -0.279 C  
ENDROOT
BRANCH   5  15
HETATM   15  O   UNL     1      -9.573  15.666  65.922  1.00  0.00    -0.318 OA 
BRANCH  15  16
HETATM   16  C   UNL     1      -9.229  16.439  67.103  1.00  0.00    -0.213 C  
HETATM   17  O   UNL     1      -7.046  15.333  67.505  1.00  0.00    -0.166 OA 
HETATM   18  C   UNL     1      -7.713  16.590  67.303  1.00  0.00    -0.164 C  
HETATM   19  C   UNL     1      -7.143  17.300  66.078  1.00  0.00    -0.165 C  
HETATM   20  O   UNL     1      -5.715  17.206  66.124  1.00  0.00    -0.303 OA 
HETATM   21  H   UNL     1      -6.109  15.426  67.629  1.00  0.00     0.000 HD 
HETATM   22  C   UNL     1      -7.718  18.732  66.045  1.00  0.00    -0.199 C  
HETATM   23  O   UNL     1      -9.158  18.716  66.028  1.00  0.00    -0.487 OA 
HETATM   24  O   UNL     1      -7.298  19.532  67.157  1.00  0.00    -0.214 OA 
HETATM   25  H   UNL     1      -5.361  17.647  65.361  1.00  0.00     0.000 HD 
HETATM   26  C   UNL     1      -9.833  17.858  66.964  1.00  0.00    -0.314 C  
HETATM   27  P   UNL     1      -5.785  20.125  67.188  1.00  0.00    -0.168 P  
HETATM   28  C   UNL     1     -10.050  18.455  68.367  1.00  0.00    -0.390 C  
HETATM   29  O   UNL     1      -9.686  19.750  68.476  1.00  0.00    -0.371 OA 
HETATM   30  O   UNL     1     -10.524  17.841  69.311  1.00  0.00    -0.267 OA 
ENDBRANCH  15  16
ENDBRANCH   5  15
TORSDOF 2
ENDMDL
MODEL       50
REMARK 921   NORMALIZED FREE ENERGY PREDICTED BY IDOCK:   -5.96 KCAL/MOL
REMARK 922        TOTAL FREE ENERGY PREDICTED BY IDOCK:   -7.36 KCAL/MOL
REMARK 923 INTER-LIGAND FREE ENERGY PREDICTED BY IDOCK:   -6.54 KCAL/MOL
REMARK 924 INTRA-LIGAND FREE ENERGY PREDICTED BY IDOCK:   -0.82 KCAL/MOL
REMARK 927      BINDING AFFINITY PREDICTED BY RF-SCORE:    0.00 PKD
ROOT
HETATM    1  O   UNL     1      -7.077  17.734  69.629  1.00  0.00    -0.011 OA 
HETATM    2  C   UNL     1      -6.633  17.728  68.258  1.00  0.00    -0.196 C  
HETATM    3  H   UNL     1      -6.942  18.608  69.978  1.00  0.00     0.000 HD 
HETATM    4  C   UNL     1      -6.852  16.315  67.695  1.00  0.00    -0.141 C  
HETATM    5  C   UNL     1      -8.369  16.044  67.451  1.00  0.00    -0.167 C  
HETATM    6  O   UNL     1      -6.219  15.418  68.624  1.00  0.00    -0.092 OA 
HETATM    7  O   UNL     1      -9.864  20.583  67.181  1.00  0.00    -0.454 OA 
HETATM    8  H   UNL     1      -6.355  14.545  68.276  1.00  0.00     0.000 HD 
HETATM    9  O   UNL     1      -8.953  17.108  66.663  1.00  0.00    -0.231 OA 
HETATM   10  C   UNL     1      -8.866  18.362  67.377  1.00  0.00    -0.257 C  
HETATM   11  O   UNL     1     -10.453  18.986  65.689  1.00  0.00    -0.554 OA 
HETATM   12  P   UNL     1      -6.606  19.173  65.837  1.00  0.00    -0.271 P  
HETATM   13  C   UNL     1      -7.405  18.809  67.496  1.00  0.00    -0.223 C  
HETATM   14  C   UNL     1      -9.751  19.442  66.762  1.00  0.00    -0.350 C  
ENDROOT
BRANCH   5  15
HETATM   15  O   UNL     1      -8.635  14.798  66.778  1.00  0.00    -0.236 OA 
BRANCH  15  16
HETATM   16  C   UNL     1      -9.895  14.145  67.089  1.00  0.00    -0.253 C  
HETATM   17  O   UNL     1     -11.345  15.957  66.216  1.00  0.00    -0.005 OA 
HETATM   18  C   UNL     1     -11.036  14.555  66.145  1.00  0.00    -0.334 C  
HETATM   19  C   UNL     1     -10.632  14.175  64.723  1.00  0.00    -0.418 C  
HETATM   20  O   UNL     1     -11.551  14.788  63.812  1.00  0.00    -0.531 OA 
HETATM   21  H   UNL     1     -12.050  16.212  65.633  1.00  0.00     0.000 HD 
HETATM   22  C   UNL     1     -10.544  12.635  64.648  1.00  0.00    -0.333 C  
HETATM   23  O   UNL     1      -9.616  12.118  65.620  1.00  0.00    -0.234 OA 
HETATM   24  O   UNL     1     -11.806  11.989  64.853  1.00  0.00    -0.319 OA 
HETATM   25  H   UNL     1     -11.299  14.551  62.928  1.00  0.00     0.000 HD 
HETATM   26  C   UNL     1      -9.707  12.613  66.967  1.00  0.00    -0.225 C  
HETATM   27  P   UNL     1     -12.911  11.998  63.661  1.00  0.00     0.126 P  
HETATM   28  C   UNL     1     -10.739  11.903  67.861  1.00  0.00    -0.204 C  
HETATM   29  O   UNL     1     -11.322  10.831  67.285  1.00  0.00    -0.397 OA 
HETATM   30  O   UNL     1     -11.014  12.246  69.002  1.00  0.00    -0.233 OA 
ENDBRANCH  15  16
ENDBRANCH   5  15
TORSDOF 2
ENDMDL
MODEL       51
REMARK 921   NORMALIZED FREE ENERGY PREDICTED BY IDOCK:   -5.93 KCAL/MOL
REMARK 922        TOTAL FREE ENERGY PREDICTED BY IDOCK:   -7.34 KCAL/MOL
REMARK 923 INTER-LIGAND FREE ENERGY PREDICTED BY IDOCK:   -6.43 KCAL/MOL
REMARK 924 INTRA-LIGAND FREE ENERGY PREDICTED BY IDOCK:   -0.90 KCAL/MOL
REMARK 927      BINDING AFFINITY PREDICTED BY RF-SCORE:    0.00 PKD
ROOT
HETATM    1  O   UNL     1     -12.514   6.799  70.080  1.00  0.00    -0.572 OA 
HETATM    2  C   UNL     1     -11.201   6.220  69.944  1.00  0.00    -0.429 C  
HETATM    3  H   UNL     1     -13.030   6.229  70.639  1.00  0.00     0.000 HD 
HETATM    4  C   UNL     1     -10.367   7.141  69.041  1.00  0.00    -0.199 C  
HETATM    5  C   UNL     1      -9.969   8.447  69.796  1.00  0.00    -0.191 C  
HETATM    6  O   UNL     1     -11.152   7.345  67.853  1.00  0.00    -0.481 OA 
HETATM    7  O   UNL     1     -10.457   6.847  74.281  1.00  0.00    -0.312 OA 
HETATM    8  H   UNL     1     -10.636   7.914  67.295  1.00  0.00     0.000 HD 
HETATM    9  O   UNL     1      -9.357   8.130  71.069  1.00  0.00    -0.146 OA 
HETATM   10  C   UNL     1     -10.300   7.433  71.914  1.00  0.00    -0.192 C  
HETATM   11  O   UNL     1      -8.652   8.009  73.561  1.00  0.00    -0.211 OA 
HETATM   12  P   UNL     1      -9.104   4.915  71.306  1.00  0.00    -0.151 P  
HETATM   13  C   UNL     1     -10.604   6.044  71.344  1.00  0.00    -0.246 C  
HETATM   14  C   UNL     1      -9.839   7.371  73.367  1.00  0.00    -0.294 C  
ENDROOT
BRANCH   5  15
HETATM   15  O   UNL     1      -9.056   9.287  69.063  1.00  0.00    -0.142 OA 
BRANCH  15  16
HETATM   16  C   UNL     1      -9.462  10.666  68.854  1.00  0.00    -0.192 C  
HETATM   17  O   UNL     1      -7.280  11.445  67.970  1.00  0.00    -0.078 OA 
HETATM   18  C   UNL     1      -8.692  11.356  67.717  1.00  0.00    -0.136 C  
HETATM   19  C   UNL     1      -8.950  10.575  66.431  1.00  0.00    -0.159 C  
HETATM   20  O   UNL     1      -8.035  11.037  65.431  1.00  0.00    -0.357 OA 
HETATM   21  H   UNL     1      -6.803  11.871  67.268  1.00  0.00     0.000 HD 
HETATM   22  C   UNL     1     -10.447  10.712  66.082  1.00  0.00    -0.194 C  
HETATM   23  O   UNL     1     -11.280  10.247  67.160  1.00  0.00    -0.215 OA 
HETATM   24  O   UNL     1     -10.832  12.058  65.774  1.00  0.00    -0.268 OA 
HETATM   25  H   UNL     1      -8.196  10.551  64.631  1.00  0.00     0.000 HD 
HETATM   26  C   UNL     1     -10.967  10.693  68.492  1.00  0.00    -0.248 C  
HETATM   27  P   UNL     1     -10.424  12.697  64.337  1.00  0.00    -0.367 P  
HETATM   28  C   UNL     1     -11.557  12.060  68.884  1.00  0.00    -0.321 C  
HETATM   29  O   UNL     1     -12.391  12.585  67.961  1.00  0.00    -0.207 OA 
HETATM   30  O   UNL     1     -11.324  12.635  69.938  1.00  0.00    -0.127 OA 
ENDBRANCH  15  16
ENDBRANCH   5  15
TORSDOF 2
ENDMDL
MODEL       52
REMARK 921   NORMALIZED FREE ENERGY PREDICTED BY IDOCK:   -5.90 KCAL/MOL
REMARK 922        TOTAL FREE ENERGY PREDICTED BY IDOCK:   -7.30 KCAL/MOL
REMARK 923 INTER-LIGAND FREE ENERGY PREDICTED BY IDOCK:   -6.40 KCAL/MOL
REMARK 924 INTRA-LIGAND FREE ENERGY PREDICTED BY IDOCK:   -0.89 KCAL/MOL
REMARK 927      BINDING AFFINITY PREDICTED BY RF-SCORE:    0.00 PKD
ROOT
HETATM    1  O   UNL     1     -11.784   6.868  72.903  1.00  0.00    -0.501 OA 
HETATM    2  C   UNL     1     -10.971   6.476  71.779  1.00  0.00    -0.247 C  
HETATM    3  H   UNL     1     -11.514   6.354  73.654  1.00  0.00     0.000 HD 
HETATM    4  C   UNL     1     -11.408   7.307  70.563  1.00  0.00    -0.280 C  
HETATM    5  C   UNL     1     -10.925   8.784  70.698  1.00  0.00    -0.238 C  
HETATM    6  O   UNL     1     -12.835   7.144  70.467  1.00  0.00    -0.601 OA 
HETATM    7  O   UNL     1      -7.359   8.080  73.812  1.00  0.00    -0.128 OA 
HETATM    8  H   UNL     1     -13.105   7.658  69.715  1.00  0.00     0.000 HD 
HETATM    9  O   UNL     1      -9.507   8.829  70.984  1.00  0.00    -0.186 OA 
HETATM   10  C   UNL     1      -9.234   8.187  72.250  1.00  0.00    -0.201 C  
HETATM   11  O   UNL     1      -7.146   9.326  71.934  1.00  0.00    -0.319 OA 
HETATM   12  P   UNL     1      -8.362   5.805  70.943  1.00  0.00    -0.127 P  
HETATM   13  C   UNL     1      -9.500   6.680  72.154  1.00  0.00    -0.144 C  
HETATM   14  C   UNL     1      -7.831   8.492  72.764  1.00  0.00    -0.011 C  
ENDROOT
BRANCH   5  15
HETATM   15  O   UNL     1     -11.165   9.583  69.522  1.00  0.00    -0.189 OA 
BRANCH  15  16
HETATM   16  C   UNL     1     -10.882  11.004  69.631  1.00  0.00    -0.183 C  
HETATM   17  O   UNL     1      -8.435  10.805  69.274  1.00  0.00    -0.291 OA 
HETATM   18  C   UNL     1      -9.646  11.435  68.824  1.00  0.00    -0.129 C  
HETATM   19  C   UNL     1      -9.901  11.103  67.356  1.00  0.00    -0.173 C  
HETATM   20  O   UNL     1      -8.669  11.245  66.640  1.00  0.00    -0.162 OA 
HETATM   21  H   UNL     1      -7.672  11.071  68.776  1.00  0.00     0.000 HD 
HETATM   22  C   UNL     1     -11.067  11.986  66.863  1.00  0.00    -0.302 C  
HETATM   23  O   UNL     1     -12.247  11.788  67.664  1.00  0.00    -0.534 OA 
HETATM   24  O   UNL     1     -10.756  13.384  66.871  1.00  0.00    -0.270 OA 
HETATM   25  H   UNL     1      -8.828  11.038  65.727  1.00  0.00     0.000 HD 
HETATM   26  C   UNL     1     -12.098  11.797  69.095  1.00  0.00    -0.228 C  
HETATM   27  P   UNL     1      -9.788  13.994  65.717  1.00  0.00    -0.145 P  
HETATM   28  C   UNL     1     -12.122  13.190  69.750  1.00  0.00    -0.270 C  
HETATM   29  O   UNL     1     -12.408  14.195  68.897  1.00  0.00    -0.284 OA 
HETATM   30  O   UNL     1     -11.923  13.396  70.939  1.00  0.00    -0.259 OA 
ENDBRANCH  15  16
ENDBRANCH   5  15
TORSDOF 2
ENDMDL
MODEL       53
REMARK 921   NORMALIZED FREE ENERGY PREDICTED BY IDOCK:   -5.88 KCAL/MOL
REMARK 922        TOTAL FREE ENERGY PREDICTED BY IDOCK:   -7.27 KCAL/MOL
REMARK 923 INTER-LIGAND FREE ENERGY PREDICTED BY IDOCK:   -6.56 KCAL/MOL
REMARK 924 INTRA-LIGAND FREE ENERGY PREDICTED BY IDOCK:   -0.71 KCAL/MOL
REMARK 927      BINDING AFFINITY PREDICTED BY RF-SCORE:    0.00 PKD
ROOT
HETATM    1  O   UNL     1      -8.460  14.646  66.509  1.00  0.00    -0.428 OA 
HETATM    2  C   UNL     1      -9.584  13.796  66.208  1.00  0.00    -0.249 C  
HETATM    3  H   UNL     1      -8.656  15.518  66.186  1.00  0.00     0.000 HD 
HETATM    4  C   UNL     1      -9.266  12.387  66.731  1.00  0.00    -0.212 C  
HETATM    5  C   UNL     1      -9.348  12.340  68.287  1.00  0.00    -0.199 C  
HETATM    6  O   UNL     1      -7.982  12.043  66.181  1.00  0.00    -0.357 OA 
HETATM    7  O   UNL     1     -12.137  16.171  68.965  1.00  0.00    -0.228 OA 
HETATM    8  H   UNL     1      -7.786  11.171  66.504  1.00  0.00     0.000 HD 
HETATM    9  O   UNL     1     -10.607  12.886  68.746  1.00  0.00    -0.242 OA 
HETATM   10  C   UNL     1     -10.713  14.277  68.367  1.00  0.00    -0.251 C  
HETATM   11  O   UNL     1     -12.494  14.175  69.972  1.00  0.00    -0.340 OA 
HETATM   12  P   UNL     1     -12.399  13.628  66.158  1.00  0.00    -0.346 P  
HETATM   13  C   UNL     1     -10.835  14.409  66.845  1.00  0.00    -0.301 C  
HETATM   14  C   UNL     1     -11.844  14.993  69.099  1.00  0.00    -0.308 C  
ENDROOT
BRANCH   5  15
HETATM   15  O   UNL     1      -9.214  11.014  68.837  1.00  0.00    -0.179 OA 
BRANCH  15  16
HETATM   16  C   UNL     1     -10.443  10.269  69.049  1.00  0.00    -0.217 C  
HETATM   17  O   UNL     1     -10.312   8.956  66.949  1.00  0.00    -0.262 OA 
HETATM   18  C   UNL     1     -10.432   8.885  68.379  1.00  0.00    -0.187 C  
HETATM   19  C   UNL     1      -9.273   8.085  68.968  1.00  0.00    -0.148 C  
HETATM   20  O   UNL     1      -9.084   6.911  68.171  1.00  0.00    -0.126 OA 
HETATM   21  H   UNL     1     -10.305   8.102  66.534  1.00  0.00     0.000 HD 
HETATM   22  C   UNL     1      -9.574   7.838  70.462  1.00  0.00    -0.167 C  
HETATM   23  O   UNL     1      -9.774   9.078  71.166  1.00  0.00    -0.251 OA 
HETATM   24  O   UNL     1     -10.729   7.017  70.675  1.00  0.00    -0.221 OA 
HETATM   25  H   UNL     1      -8.363   6.414  68.537  1.00  0.00     0.000 HD 
HETATM   26  C   UNL     1     -10.642  10.058  70.570  1.00  0.00    -0.246 C  
HETATM   27  P   UNL     1     -10.629   5.416  70.415  1.00  0.00    -0.126 P  
HETATM   28  C   UNL     1     -12.143   9.874  70.863  1.00  0.00    -0.341 C  
HETATM   29  O   UNL     1     -12.414   8.889  71.744  1.00  0.00    -0.319 OA 
HETATM   30  O   UNL     1     -13.030  10.556  70.370  1.00  0.00    -0.314 OA 
ENDBRANCH  15  16
ENDBRANCH   5  15
TORSDOF 2
ENDMDL
MODEL       54
REMARK 921   NORMALIZED FREE ENERGY PREDICTED BY IDOCK:   -5.88 KCAL/MOL
REMARK 922        TOTAL FREE ENERGY PREDICTED BY IDOCK:   -7.27 KCAL/MOL
REMARK 923 INTER-LIGAND FREE ENERGY PREDICTED BY IDOCK:   -6.60 KCAL/MOL
REMARK 924 INTRA-LIGAND FREE ENERGY PREDICTED BY IDOCK:   -0.67 KCAL/MOL
REMARK 927      BINDING AFFINITY PREDICTED BY RF-SCORE:    0.00 PKD
ROOT
HETATM    1  O   UNL     1     -11.384  10.854  63.624  1.00  0.00    -0.340 OA 
HETATM    2  C   UNL     1     -10.169  11.335  64.233  1.00  0.00    -0.327 C  
HETATM    3  H   UNL     1     -11.268   9.933  63.423  1.00  0.00     0.000 HD 
HETATM    4  C   UNL     1     -10.359  12.825  64.557  1.00  0.00    -0.349 C  
HETATM    5  C   UNL     1     -11.318  13.011  65.772  1.00  0.00    -0.301 C  
HETATM    6  O   UNL     1     -10.803  13.441  63.335  1.00  0.00    -0.357 OA 
HETATM    7  O   UNL     1     -10.843   8.665  67.722  1.00  0.00    -0.158 OA 
HETATM    8  H   UNL     1     -10.919  14.362  63.536  1.00  0.00     0.000 HD 
HETATM    9  O   UNL     1     -10.886  12.198  66.889  1.00  0.00    -0.232 OA 
HETATM   10  C   UNL     1     -10.935  10.798  66.533  1.00  0.00    -0.075 C  
HETATM   11  O   UNL     1     -10.722  10.587  68.914  1.00  0.00    -0.192 OA 
HETATM   12  P   UNL     1      -8.120  10.735  66.075  1.00  0.00    -0.105 P  
HETATM   13  C   UNL     1      -9.879  10.479  65.469  1.00  0.00    -0.265 C  
HETATM   14  C   UNL     1     -10.819   9.886  67.751  1.00  0.00    -0.264 C  
ENDROOT
BRANCH   5  15
HETATM   15  O   UNL     1     -11.419  14.374  66.230  1.00  0.00    -0.342 OA 
BRANCH  15  16
HETATM   16  C   UNL     1     -10.728  14.700  67.466  1.00  0.00    -0.268 C  
HETATM   17  O   UNL     1      -8.444  14.657  66.501  1.00  0.00    -0.428 OA 
HETATM   18  C   UNL     1      -9.400  15.439  67.236  1.00  0.00    -0.210 C  
HETATM   19  C   UNL     1      -9.704  16.738  66.495  1.00  0.00    -0.283 C  
HETATM   20  O   UNL     1      -8.467  17.298  66.039  1.00  0.00    -0.489 OA 
HETATM   21  H   UNL     1      -7.623  15.113  66.359  1.00  0.00     0.000 HD 
HETATM   22  C   UNL     1     -10.540  17.636  67.430  1.00  0.00    -0.318 C  
HETATM   23  O   UNL     1     -11.746  16.972  67.852  1.00  0.00     0.344 OA 
HETATM   24  O   UNL     1      -9.827  18.046  68.603  1.00  0.00    -0.346 OA 
HETATM   25  H   UNL     1      -8.657  18.106  65.577  1.00  0.00     0.000 HD 
HETATM   26  C   UNL     1     -11.638  15.616  68.319  1.00  0.00    -0.319 C  
HETATM   27  P   UNL     1      -8.691  19.202  68.485  1.00  0.00    -0.347 P  
HETATM   28  C   UNL     1     -11.264  15.460  69.804  1.00  0.00    -0.288 C  
HETATM   29  O   UNL     1     -11.214  16.623  70.485  1.00  0.00    -0.250 OA 
HETATM   30  O   UNL     1     -11.043  14.388  70.350  1.00  0.00    -0.093 OA 
ENDBRANCH  15  16
ENDBRANCH   5  15
TORSDOF 2
ENDMDL
MODEL       55
REMARK 921   NORMALIZED FREE ENERGY PREDICTED BY IDOCK:   -5.88 KCAL/MOL
REMARK 922        TOTAL FREE ENERGY PREDICTED BY IDOCK:   -7.27 KCAL/MOL
REMARK 923 INTER-LIGAND FREE ENERGY PREDICTED BY IDOCK:   -6.36 KCAL/MOL
REMARK 924 INTRA-LIGAND FREE ENERGY PREDICTED BY IDOCK:   -0.91 KCAL/MOL
REMARK 927      BINDING AFFINITY PREDICTED BY RF-SCORE:    0.00 PKD
ROOT
HETATM    1  O   UNL     1     -12.385  12.022  68.384  1.00  0.00    -0.270 OA 
HETATM    2  C   UNL     1     -11.204  12.721  67.942  1.00  0.00    -0.274 C  
HETATM    3  H   UNL     1     -13.129  12.600  68.269  1.00  0.00     0.000 HD 
HETATM    4  C   UNL     1     -10.000  11.786  68.127  1.00  0.00    -0.194 C  
HETATM    5  C   UNL     1     -10.011  10.649  67.060  1.00  0.00    -0.202 C  
HETATM    6  O   UNL     1     -10.058  11.335  69.492  1.00  0.00    -0.432 OA 
HETATM    7  O   UNL     1     -12.777  12.779  63.785  1.00  0.00    -0.689 OA 
HETATM    8  H   UNL     1      -9.313  10.757  69.607  1.00  0.00     0.000 HD 
HETATM    9  O   UNL     1     -10.148  11.203  65.730  1.00  0.00    -0.230 OA 
HETATM   10  C   UNL     1     -11.410  11.897  65.609  1.00  0.00    -0.284 C  
HETATM   11  O   UNL     1     -10.827  11.742  63.286  1.00  0.00    -0.374 OA 
HETATM   12  P   UNL     1     -10.141  14.428  65.964  1.00  0.00    -0.343 P  
HETATM   13  C   UNL     1     -11.417  13.153  66.487  1.00  0.00    -0.338 C  
HETATM   14  C   UNL     1     -11.763  12.209  64.157  1.00  0.00    -0.396 C  
ENDROOT
BRANCH   5  15
HETATM   15  O   UNL     1      -8.828   9.825  67.076  1.00  0.00    -0.133 OA 
BRANCH  15  16
HETATM   16  C   UNL     1      -9.030   8.397  67.250  1.00  0.00    -0.130 C  
HETATM   17  O   UNL     1      -6.623   7.798  67.258  1.00  0.00    -0.059 OA 
HETATM   18  C   UNL     1      -7.864   7.708  67.977  1.00  0.00    -0.121 C  
HETATM   19  C   UNL     1      -7.724   8.348  69.356  1.00  0.00    -0.097 C  
HETATM   20  O   UNL     1      -6.488   7.911  69.932  1.00  0.00    -0.036 OA 
HETATM   21  H   UNL     1      -5.903   7.372  67.706  1.00  0.00     0.000 HD 
HETATM   22  C   UNL     1      -8.994   8.016  70.167  1.00  0.00    -0.150 C  
HETATM   23  O   UNL     1     -10.180   8.471  69.490  1.00  0.00    -0.196 OA 
HETATM   24  O   UNL     1      -9.145   6.616  70.430  1.00  0.00    -0.151 OA 
HETATM   25  H   UNL     1      -6.401   8.310  70.790  1.00  0.00     0.000 HD 
HETATM   26  C   UNL     1     -10.311   8.173  68.089  1.00  0.00    -0.201 C  
HETATM   27  P   UNL     1      -8.218   5.912  71.565  1.00  0.00    -0.120 P  
HETATM   28  C   UNL     1     -10.893   6.784  67.763  1.00  0.00    -0.264 C  
HETATM   29  O   UNL     1     -11.315   6.097  68.845  1.00  0.00    -0.367 OA 
HETATM   30  O   UNL     1     -10.993   6.327  66.634  1.00  0.00    -0.306 OA 
ENDBRANCH  15  16
ENDBRANCH   5  15
TORSDOF 2
ENDMDL
MODEL       56
REMARK 921   NORMALIZED FREE ENERGY PREDICTED BY IDOCK:   -5.87 KCAL/MOL
REMARK 922        TOTAL FREE ENERGY PREDICTED BY IDOCK:   -7.26 KCAL/MOL
REMARK 923 INTER-LIGAND FREE ENERGY PREDICTED BY IDOCK:   -6.41 KCAL/MOL
REMARK 924 INTRA-LIGAND FREE ENERGY PREDICTED BY IDOCK:   -0.85 KCAL/MOL
REMARK 927      BINDING AFFINITY PREDICTED BY RF-SCORE:    0.00 PKD
ROOT
HETATM    1  O   UNL     1     -12.006  10.479  67.989  1.00  0.00    -0.758 OA 
HETATM    2  C   UNL     1     -10.909  10.334  67.065  1.00  0.00    -0.181 C  
HETATM    3  H   UNL     1     -12.156   9.637  68.402  1.00  0.00     0.000 HD 
HETATM    4  C   UNL     1     -10.666  11.696  66.398  1.00  0.00    -0.272 C  
HETATM    5  C   UNL     1     -10.000  12.692  67.396  1.00  0.00    -0.204 C  
HETATM    6  O   UNL     1     -11.943  12.116  65.885  1.00  0.00    -0.561 OA 
HETATM    7  O   UNL     1      -8.149   9.504  70.449  1.00  0.00    -0.163 OA 
HETATM    8  H   UNL     1     -11.793  12.959  65.472  1.00  0.00     0.000 HD 
HETATM    9  O   UNL     1      -8.828  12.097  68.001  1.00  0.00    -0.167 OA 
HETATM   10  C   UNL     1      -9.203  10.930  68.768  1.00  0.00    -0.183 C  
HETATM   11  O   UNL     1      -6.981  11.256  69.615  1.00  0.00    -0.122 OA 
HETATM   12  P   UNL     1      -8.363   9.186  66.672  1.00  0.00    -0.125 P  
HETATM   13  C   UNL     1      -9.693   9.814  67.839  1.00  0.00    -0.144 C  
HETATM   14  C   UNL     1      -8.083  10.460  69.691  1.00  0.00    -0.103 C  
ENDROOT
BRANCH   5  15
HETATM   15  O   UNL     1      -9.602  13.940  66.794  1.00  0.00    -0.263 OA 
BRANCH  15  16
HETATM   16  C   UNL     1      -9.598  15.109  67.655  1.00  0.00    -0.206 C  
HETATM   17  O   UNL     1      -7.801  14.308  69.166  1.00  0.00    -0.278 OA 
HETATM   18  C   UNL     1      -8.230  15.375  68.304  1.00  0.00    -0.145 C  
HETATM   19  C   UNL     1      -7.213  15.594  67.187  1.00  0.00    -0.195 C  
HETATM   20  O   UNL     1      -5.901  15.572  67.761  1.00  0.00    -0.135 OA 
HETATM   21  H   UNL     1      -6.956  14.472  69.567  1.00  0.00     0.000 HD 
HETATM   22  C   UNL     1      -7.595  16.890  66.441  1.00  0.00    -0.304 C  
HETATM   23  O   UNL     1      -8.939  16.820  65.928  1.00  0.00    -0.497 OA 
HETATM   24  O   UNL     1      -7.494  18.061  67.260  1.00  0.00    -0.195 OA 
HETATM   25  H   UNL     1      -5.268  15.708  67.066  1.00  0.00     0.000 HD 
HETATM   26  C   UNL     1      -9.972  16.351  66.812  1.00  0.00    -0.272 C  
HETATM   27  P   UNL     1      -6.028  18.673  67.601  1.00  0.00    -0.184 P  
HETATM   28  C   UNL     1     -10.586  17.422  67.733  1.00  0.00    -0.371 C  
HETATM   29  O   UNL     1     -10.151  18.676  67.486  1.00  0.00    -0.326 OA 
HETATM   30  O   UNL     1     -11.411  17.190  68.606  1.00  0.00    -0.058 OA 
ENDBRANCH  15  16
ENDBRANCH   5  15
TORSDOF 2
ENDMDL
MODEL       57
REMARK 921   NORMALIZED FREE ENERGY PREDICTED BY IDOCK:   -5.84 KCAL/MOL
REMARK 922        TOTAL FREE ENERGY PREDICTED BY IDOCK:   -7.23 KCAL/MOL
REMARK 923 INTER-LIGAND FREE ENERGY PREDICTED BY IDOCK:   -6.43 KCAL/MOL
REMARK 924 INTRA-LIGAND FREE ENERGY PREDICTED BY IDOCK:   -0.79 KCAL/MOL
REMARK 927      BINDING AFFINITY PREDICTED BY RF-SCORE:    0.00 PKD
ROOT
HETATM    1  O   UNL     1     -12.172  10.657  71.678  1.00  0.00    -0.304 OA 
HETATM    2  C   UNL     1     -12.010   9.416  70.963  1.00  0.00    -0.315 C  
HETATM    3  H   UNL     1     -12.394  10.451  72.578  1.00  0.00     0.000 HD 
HETATM    4  C   UNL     1     -11.651   9.749  69.507  1.00  0.00     0.070 C  
HETATM    5  C   UNL     1     -10.185  10.272  69.403  1.00  0.00    -0.235 C  
HETATM    6  O   UNL     1     -12.657  10.674  69.055  1.00  0.00    -0.746 OA 
HETATM    7  O   UNL     1      -8.481   8.414  73.471  1.00  0.00    -0.313 OA 
HETATM    8  H   UNL     1     -12.434  10.880  68.155  1.00  0.00     0.000 HD 
HETATM    9  O   UNL     1      -9.274   9.358  70.058  1.00  0.00    -0.184 OA 
HETATM   10  C   UNL     1      -9.583   9.272  71.467  1.00  0.00    -0.092 C  
HETATM   11  O   UNL     1      -7.411   8.252  71.483  1.00  0.00    -0.074 OA 
HETATM   12  P   UNL     1     -10.961   6.801  71.092  1.00  0.00    -0.283 P  
HETATM   13  C   UNL     1     -10.938   8.586  71.676  1.00  0.00    -0.292 C  
HETATM   14  C   UNL     1      -8.469   8.601  72.264  1.00  0.00    -0.078 C  
ENDROOT
BRANCH   5  15
HETATM   15  O   UNL     1      -9.729  10.457  68.048  1.00  0.00    -0.148 OA 
BRANCH  15  16
HETATM   16  C   UNL     1      -9.325  11.801  67.673  1.00  0.00    -0.180 C  
HETATM   17  O   UNL     1      -8.457  11.192  65.431  1.00  0.00    -0.352 OA 
HETATM   18  C   UNL     1      -9.363  12.041  66.155  1.00  0.00    -0.211 C  
HETATM   19  C   UNL     1     -10.795  11.815  65.678  1.00  0.00    -0.292 C  
HETATM   20  O   UNL     1     -10.792  11.768  64.247  1.00  0.00    -0.304 OA 
HETATM   21  H   UNL     1      -8.481  11.339  64.493  1.00  0.00     0.000 HD 
HETATM   22  C   UNL     1     -11.686  12.907  66.309  1.00  0.00    -0.399 C  
HETATM   23  O   UNL     1     -11.597  12.888  67.746  1.00  0.00    -0.300 OA 
HETATM   24  O   UNL     1     -11.357  14.228  65.863  1.00  0.00    -0.317 OA 
HETATM   25  H   UNL     1     -11.683  11.628  63.950  1.00  0.00     0.000 HD 
HETATM   26  C   UNL     1     -10.288  12.815  68.338  1.00  0.00    -0.243 C  
HETATM   27  P   UNL     1     -11.805  14.703  64.375  1.00  0.00    -0.262 P  
HETATM   28  C   UNL     1      -9.565  14.164  68.505  1.00  0.00    -0.214 C  
HETATM   29  O   UNL     1     -10.320  15.236  68.187  1.00  0.00    -0.237 OA 
HETATM   30  O   UNL     1      -8.416  14.286  68.906  1.00  0.00    -0.128 OA 
ENDBRANCH  15  16
ENDBRANCH   5  15
TORSDOF 2
ENDMDL
MODEL       58
REMARK 921   NORMALIZED FREE ENERGY PREDICTED BY IDOCK:   -5.83 KCAL/MOL
REMARK 922        TOTAL FREE ENERGY PREDICTED BY IDOCK:   -7.22 KCAL/MOL
REMARK 923 INTER-LIGAND FREE ENERGY PREDICTED BY IDOCK:   -6.28 KCAL/MOL
REMARK 924 INTRA-LIGAND FREE ENERGY PREDICTED BY IDOCK:   -0.94 KCAL/MOL
REMARK 927      BINDING AFFINITY PREDICTED BY RF-SCORE:    0.00 PKD
ROOT
HETATM    1  O   UNL     1     -12.186  12.245  66.259  1.00  0.00    -0.628 OA 
HETATM    2  C   UNL     1     -12.124  12.968  67.505  1.00  0.00    -0.224 C  
HETATM    3  H   UNL     1     -12.534  12.831  65.597  1.00  0.00     0.000 HD 
HETATM    4  C   UNL     1     -11.561  12.021  68.576  1.00  0.00    -0.309 C  
HETATM    5  C   UNL     1     -10.034  11.788  68.364  1.00  0.00    -0.202 C  
HETATM    6  O   UNL     1     -12.369  10.831  68.514  1.00  0.00    -0.825 OA 
HETATM    7  O   UNL     1      -9.073  15.704  65.784  1.00  0.00    -0.303 OA 
HETATM    8  H   UNL     1     -12.021  10.246  69.176  1.00  0.00     0.000 HD 
HETATM    9  O   UNL     1      -9.340  13.053  68.249  1.00  0.00    -0.212 OA 
HETATM   10  C   UNL     1      -9.813  13.776  67.091  1.00  0.00    -0.242 C  
HETATM   11  O   UNL     1      -7.823  15.037  67.550  1.00  0.00    -0.150 OA 
HETATM   12  P   UNL     1     -11.478  15.434  68.710  1.00  0.00    -0.360 P  
HETATM   13  C   UNL     1     -11.266  14.219  67.294  1.00  0.00    -0.318 C  
HETATM   14  C   UNL     1      -8.901  14.944  66.724  1.00  0.00    -0.261 C  
ENDROOT
BRANCH   5  15
HETATM   15  O   UNL     1      -9.408  11.035  69.422  1.00  0.00    -0.015 OA 
BRANCH  15  16
HETATM   16  C   UNL     1      -8.640   9.867  69.025  1.00  0.00    -0.149 C  
HETATM   17  O   UNL     1      -7.810   9.323  71.299  1.00  0.00    -0.322 OA 
HETATM   18  C   UNL     1      -8.508   8.823  70.146  1.00  0.00    -0.137 C  
HETATM   19  C   UNL     1      -9.913   8.369  70.535  1.00  0.00    -0.185 C  
HETATM   20  O   UNL     1      -9.823   7.611  71.746  1.00  0.00    -0.162 OA 
HETATM   21  H   UNL     1      -7.728   8.679  71.991  1.00  0.00     0.000 HD 
HETATM   22  C   UNL     1     -10.527   7.629  69.327  1.00  0.00    -0.218 C  
HETATM   23  O   UNL     1     -10.545   8.467  68.156  1.00  0.00    -0.200 OA 
HETATM   24  O   UNL     1      -9.832   6.421  68.995  1.00  0.00    -0.136 OA 
HETATM   25  H   UNL     1     -10.697   7.329  71.988  1.00  0.00     0.000 HD 
HETATM   26  C   UNL     1      -9.346   9.190  67.827  1.00  0.00    -0.136 C  
HETATM   27  P   UNL     1     -10.035   5.103  69.924  1.00  0.00    -0.278 P  
HETATM   28  C   UNL     1      -8.307   8.401  67.008  1.00  0.00    -0.114 C  
HETATM   29  O   UNL     1      -8.730   7.183  66.609  1.00  0.00    -0.118 OA 
HETATM   30  O   UNL     1      -7.198   8.822  66.714  1.00  0.00    -0.080 OA 
ENDBRANCH  15  16
ENDBRANCH   5  15
TORSDOF 2
ENDMDL
MODEL       59
REMARK 921   NORMALIZED FREE ENERGY PREDICTED BY IDOCK:   -5.80 KCAL/MOL
REMARK 922        TOTAL FREE ENERGY PREDICTED BY IDOCK:   -7.19 KCAL/MOL
REMARK 923 INTER-LIGAND FREE ENERGY PREDICTED BY IDOCK:   -6.39 KCAL/MOL
REMARK 924 INTRA-LIGAND FREE ENERGY PREDICTED BY IDOCK:   -0.80 KCAL/MOL
REMARK 927      BINDING AFFINITY PREDICTED BY RF-SCORE:    0.00 PKD
ROOT
HETATM    1  O   UNL     1     -10.653  16.291  65.139  1.00  0.00    -0.576 OA 
HETATM    2  C   UNL     1     -11.161  15.654  66.328  1.00  0.00    -0.127 C  
HETATM    3  H   UNL     1     -10.865  17.216  65.188  1.00  0.00     0.000 HD 
HETATM    4  C   UNL     1     -10.819  14.158  66.248  1.00  0.00    -0.300 C  
HETATM    5  C   UNL     1      -9.296  13.923  66.488  1.00  0.00    -0.247 C  
HETATM    6  O   UNL     1     -11.307  13.710  64.971  1.00  0.00    -0.313 OA 
HETATM    7  O   UNL     1      -8.309  17.990  68.812  1.00  0.00    -0.288 OA 
HETATM    8  H   UNL     1     -11.096  12.786  64.922  1.00  0.00     0.000 HD 
HETATM    9  O   UNL     1      -8.868  14.578  67.706  1.00  0.00    -0.170 OA 
HETATM   10  C   UNL     1      -9.053  16.007  67.593  1.00  0.00    -0.199 C  
HETATM   11  O   UNL     1      -7.626  15.951  69.522  1.00  0.00    -0.224 OA 
HETATM   12  P   UNL     1     -11.460  15.893  69.122  1.00  0.00    -0.343 P  
HETATM   13  C   UNL     1     -10.546  16.350  67.546  1.00  0.00    -0.309 C  
HETATM   14  C   UNL     1      -8.320  16.775  68.689  1.00  0.00    -0.252 C  
ENDROOT
BRANCH   5  15
HETATM   15  O   UNL     1      -8.931  12.532  66.582  1.00  0.00    -0.216 OA 
BRANCH  15  16
HETATM   16  C   UNL     1      -9.989  11.602  66.935  1.00  0.00    -0.202 C  
HETATM   17  O   UNL     1     -10.500  10.902  64.611  1.00  0.00    -0.337 OA 
HETATM   18  C   UNL     1     -10.140  10.451  65.928  1.00  0.00    -0.261 C  
HETATM   19  C   UNL     1      -8.820   9.687  65.882  1.00  0.00    -0.153 C  
HETATM   20  O   UNL     1      -8.854   8.792  64.765  1.00  0.00    -0.358 OA 
HETATM   21  H   UNL     1     -10.594  10.191  63.988  1.00  0.00     0.000 HD 
HETATM   22  C   UNL     1      -8.603   9.026  67.260  1.00  0.00    -0.114 C  
HETATM   23  O   UNL     1      -8.612  10.006  68.316  1.00  0.00    -0.113 OA 
HETATM   24  O   UNL     1      -9.587   8.033  67.570  1.00  0.00    -0.144 OA 
HETATM   25  H   UNL     1      -8.032   8.317  64.736  1.00  0.00     0.000 HD 
HETATM   26  C   UNL     1      -9.668  10.983  68.317  1.00  0.00    -0.177 C  
HETATM   27  P   UNL     1      -9.511   6.580  66.846  1.00  0.00    -0.161 P  
HETATM   28  C   UNL     1     -10.980  10.533  68.987  1.00  0.00    -0.243 C  
HETATM   29  O   UNL     1     -10.905   9.327  69.589  1.00  0.00    -0.232 OA 
HETATM   30  O   UNL     1     -12.008  11.195  69.003  1.00  0.00    -0.333 OA 
ENDBRANCH  15  16
ENDBRANCH   5  15
TORSDOF 2
ENDMDL
MODEL       60
REMARK 921   NORMALIZED FREE ENERGY PREDICTED BY IDOCK:   -5.80 KCAL/MOL
REMARK 922        TOTAL FREE ENERGY PREDICTED BY IDOCK:   -7.18 KCAL/MOL
REMARK 923 INTER-LIGAND FREE ENERGY PREDICTED BY IDOCK:   -6.29 KCAL/MOL
REMARK 924 INTRA-LIGAND FREE ENERGY PREDICTED BY IDOCK:   -0.89 KCAL/MOL
REMARK 927      BINDING AFFINITY PREDICTED BY RF-SCORE:    0.00 PKD
ROOT
HETATM    1  O   UNL     1     -11.841  11.881  66.278  1.00  0.00    -0.546 OA 
HETATM    2  C   UNL     1     -10.705  11.857  67.165  1.00  0.00    -0.240 C  
HETATM    3  H   UNL     1     -11.704  12.575  65.644  1.00  0.00     0.000 HD 
HETATM    4  C   UNL     1     -10.927  10.734  68.190  1.00  0.00    -0.257 C  
HETATM    5  C   UNL     1     -10.737   9.334  67.529  1.00  0.00    -0.203 C  
HETATM    6  O   UNL     1     -12.231  10.965  68.752  1.00  0.00    -0.753 OA 
HETATM    7  O   UNL     1      -8.071  10.674  63.787  1.00  0.00    -0.089 OA 
HETATM    8  H   UNL     1     -12.368  10.271  69.386  1.00  0.00     0.000 HD 
HETATM    9  O   UNL     1      -9.473   9.272  66.827  1.00  0.00    -0.156 OA 
HETATM   10  C   UNL     1      -9.452  10.242  65.756  1.00  0.00    -0.203 C  
HETATM   11  O   UNL     1      -7.562   8.910  65.112  1.00  0.00    -0.094 OA 
HETATM   12  P   UNL     1      -7.896  12.051  67.320  1.00  0.00    -0.157 P  
HETATM   13  C   UNL     1      -9.440  11.666  66.323  1.00  0.00    -0.218 C  
HETATM   14  C   UNL     1      -8.304  10.002  64.780  1.00  0.00    -0.163 C  
ENDROOT
BRANCH   5  15
HETATM   15  O   UNL     1     -10.777   8.239  68.465  1.00  0.00    -0.142 OA 
BRANCH  15  16
HETATM   16  C   UNL     1     -10.237   8.492  69.790  1.00  0.00    -0.206 C  
HETATM   17  O   UNL     1     -12.415   9.003  70.861  1.00  0.00    -0.473 OA 
HETATM   18  C   UNL     1     -11.236   8.184  70.917  1.00  0.00    -0.266 C  
HETATM   19  C   UNL     1     -11.612   6.708  70.823  1.00  0.00    -0.376 C  
HETATM   20  O   UNL     1     -12.732   6.471  71.683  1.00  0.00    -0.290 OA 
HETATM   21  H   UNL     1     -13.032   8.813  71.557  1.00  0.00     0.000 HD 
HETATM   22  C   UNL     1     -10.349   5.873  71.125  1.00  0.00    -0.221 C  
HETATM   23  O   UNL     1      -9.276   6.205  70.225  1.00  0.00    -0.154 OA 
HETATM   24  O   UNL     1      -9.871   6.042  72.465  1.00  0.00    -0.164 OA 
HETATM   25  H   UNL     1     -12.966   5.553  71.624  1.00  0.00     0.000 HD 
HETATM   26  C   UNL     1      -8.992   7.597  70.000  1.00  0.00    -0.143 C  
HETATM   27  P   UNL     1     -10.658   5.321  73.691  1.00  0.00    -0.293 P  
HETATM   28  C   UNL     1      -8.065   8.255  71.039  1.00  0.00    -0.110 C  
HETATM   29  O   UNL     1      -7.550   7.395  71.941  1.00  0.00    -0.082 OA 
HETATM   30  O   UNL     1      -7.788   9.446  71.058  1.00  0.00    -0.289 OA 
ENDBRANCH  15  16
ENDBRANCH   5  15
TORSDOF 2
ENDMDL
MODEL       61
REMARK 921   NORMALIZED FREE ENERGY PREDICTED BY IDOCK:   -5.78 KCAL/MOL
REMARK 922        TOTAL FREE ENERGY PREDICTED BY IDOCK:   -7.17 KCAL/MOL
REMARK 923 INTER-LIGAND FREE ENERGY PREDICTED BY IDOCK:   -6.61 KCAL/MOL
REMARK 924 INTRA-LIGAND FREE ENERGY PREDICTED BY IDOCK:   -0.56 KCAL/MOL
REMARK 927      BINDING AFFINITY PREDICTED BY RF-SCORE:    0.00 PKD
ROOT
HETATM    1  O   UNL     1      -6.476  18.491  70.010  1.00  0.00    -0.098 OA 
HETATM    2  C   UNL     1      -6.452  17.879  68.705  1.00  0.00    -0.215 C  
HETATM    3  H   UNL     1      -6.173  19.386  69.921  1.00  0.00     0.000 HD 
HETATM    4  C   UNL     1      -6.941  16.430  68.849  1.00  0.00    -0.186 C  
HETATM    5  C   UNL     1      -8.480  16.387  69.099  1.00  0.00    -0.181 C  
HETATM    6  O   UNL     1      -6.142  15.847  69.894  1.00  0.00    -0.164 OA 
HETATM    7  O   UNL     1      -9.608  20.683  67.316  1.00  0.00    -0.451 OA 
HETATM    8  H   UNL     1      -6.445  14.951  69.983  1.00  0.00     0.000 HD 
HETATM    9  O   UNL     1      -9.178  17.165  68.098  1.00  0.00    -0.246 OA 
HETATM   10  C   UNL     1      -8.784  18.553  68.183  1.00  0.00    -0.310 C  
HETATM   11  O   UNL     1     -10.735  18.787  66.806  1.00  0.00    -0.401 OA 
HETATM   12  P   UNL     1      -7.009  18.266  65.968  1.00  0.00    -0.258 P  
HETATM   13  C   UNL     1      -7.319  18.720  67.763  1.00  0.00    -0.233 C  
HETATM   14  C   UNL     1      -9.716  19.470  67.397  1.00  0.00    -0.341 C  
ENDROOT
BRANCH   5  15
HETATM   15  O   UNL     1      -9.033  15.056  69.089  1.00  0.00    -0.205 OA 
BRANCH  15  16
HETATM   16  C   UNL     1      -9.493  14.549  67.808  1.00  0.00    -0.210 C  
HETATM   17  O   UNL     1      -7.244  13.971  66.938  1.00  0.00    -0.323 OA 
HETATM   18  C   UNL     1      -8.565  13.477  67.215  1.00  0.00    -0.213 C  
HETATM   19  C   UNL     1      -8.499  12.313  68.199  1.00  0.00    -0.176 C  
HETATM   20  O   UNL     1      -7.440  11.439  67.795  1.00  0.00    -0.092 OA 
HETATM   21  H   UNL     1      -6.670  13.309  66.572  1.00  0.00     0.000 HD 
HETATM   22  C   UNL     1      -9.902  11.673  68.277  1.00  0.00    -0.199 C  
HETATM   23  O   UNL     1     -10.896  12.640  68.664  1.00  0.00    -0.237 OA 
HETATM   24  O   UNL     1     -10.319  11.081  67.040  1.00  0.00    -0.209 OA 
HETATM   25  H   UNL     1      -7.399  10.714  68.408  1.00  0.00     0.000 HD 
HETATM   26  C   UNL     1     -10.892  13.914  67.996  1.00  0.00    -0.246 C  
HETATM   27  P   UNL     1      -9.680   9.660  66.580  1.00  0.00    -0.243 P  
HETATM   28  C   UNL     1     -11.652  13.957  66.657  1.00  0.00    -0.374 C  
HETATM   29  O   UNL     1     -12.321  12.822  66.367  1.00  0.00    -0.500 OA 
HETATM   30  O   UNL     1     -11.680  14.926  65.912  1.00  0.00    -0.296 OA 
ENDBRANCH  15  16
ENDBRANCH   5  15
TORSDOF 2
ENDMDL
MODEL       62
REMARK 921   NORMALIZED FREE ENERGY PREDICTED BY IDOCK:   -5.78 KCAL/MOL
REMARK 922        TOTAL FREE ENERGY PREDICTED BY IDOCK:   -7.16 KCAL/MOL
REMARK 923 INTER-LIGAND FREE ENERGY PREDICTED BY IDOCK:   -6.34 KCAL/MOL
REMARK 924 INTRA-LIGAND FREE ENERGY PREDICTED BY IDOCK:   -0.82 KCAL/MOL
REMARK 927      BINDING AFFINITY PREDICTED BY RF-SCORE:    0.00 PKD
ROOT
HETATM    1  O   UNL     1      -7.399   6.310  66.421  1.00  0.00    -0.081 OA 
HETATM    2  C   UNL     1      -7.542   7.361  67.397  1.00  0.00    -0.112 C  
HETATM    3  H   UNL     1      -6.980   5.570  66.845  1.00  0.00     0.000 HD 
HETATM    4  C   UNL     1      -8.221   8.557  66.711  1.00  0.00    -0.105 C  
HETATM    5  C   UNL     1      -9.732   8.266  66.458  1.00  0.00    -0.253 C  
HETATM    6  O   UNL     1      -7.448   8.822  65.526  1.00  0.00    -0.083 OA 
HETATM    7  O   UNL     1     -10.351   4.833  69.735  1.00  0.00    -0.227 OA 
HETATM    8  H   UNL     1      -7.868   9.561  65.102  1.00  0.00     0.000 HD 
HETATM    9  O   UNL     1     -10.374   7.823  67.677  1.00  0.00    -0.206 OA 
HETATM   10  C   UNL     1      -9.783   6.582  68.127  1.00  0.00    -0.126 C  
HETATM   11  O   UNL     1     -11.764   6.584  69.482  1.00  0.00    -0.329 OA 
HETATM   12  P   UNL     1      -8.207   7.948  70.074  1.00  0.00    -0.122 P  
HETATM   13  C   UNL     1      -8.339   6.812  68.584  1.00  0.00    -0.120 C  
HETATM   14  C   UNL     1     -10.624   5.896  69.199  1.00  0.00    -0.299 C  
ENDROOT
BRANCH   5  15
HETATM   15  O   UNL     1     -10.466   9.402  65.959  1.00  0.00    -0.132 OA 
BRANCH  15  16
HETATM   16  C   UNL     1      -9.925  10.715  66.266  1.00  0.00    -0.222 C  
HETATM   17  O   UNL     1      -8.848  11.069  64.060  1.00  0.00    -0.341 OA 
HETATM   18  C   UNL     1      -9.768  11.607  65.024  1.00  0.00    -0.211 C  
HETATM   19  C   UNL     1     -11.147  11.787  64.396  1.00  0.00    -0.334 C  
HETATM   20  O   UNL     1     -10.981  12.382  63.104  1.00  0.00    -0.635 OA 
HETATM   21  H   UNL     1      -8.750  11.621  63.293  1.00  0.00     0.000 HD 
HETATM   22  C   UNL     1     -12.024  12.580  65.388  1.00  0.00    -0.437 C  
HETATM   23  O   UNL     1     -12.105  11.914  66.661  1.00  0.00    -0.587 OA 
HETATM   24  O   UNL     1     -11.551  13.914  65.616  1.00  0.00    -0.319 OA 
HETATM   25  H   UNL     1     -11.839  12.493  62.712  1.00  0.00     0.000 HD 
HETATM   26  C   UNL     1     -10.883  11.432  67.248  1.00  0.00    -0.263 C  
HETATM   27  P   UNL     1     -11.787  15.050  64.478  1.00  0.00    -0.176 P  
HETATM   28  C   UNL     1     -10.090  12.472  68.061  1.00  0.00    -0.220 C  
HETATM   29  O   UNL     1     -10.723  13.653  68.211  1.00  0.00    -0.240 OA 
HETATM   30  O   UNL     1      -8.990  12.267  68.554  1.00  0.00    -0.161 OA 
ENDBRANCH  15  16
ENDBRANCH   5  15
TORSDOF 2
ENDMDL
MODEL       63
REMARK 921   NORMALIZED FREE ENERGY PREDICTED BY IDOCK:   -5.76 KCAL/MOL
REMARK 922        TOTAL FREE ENERGY PREDICTED BY IDOCK:   -7.14 KCAL/MOL
REMARK 923 INTER-LIGAND FREE ENERGY PREDICTED BY IDOCK:   -6.56 KCAL/MOL
REMARK 924 INTRA-LIGAND FREE ENERGY PREDICTED BY IDOCK:   -0.58 KCAL/MOL
REMARK 927      BINDING AFFINITY PREDICTED BY RF-SCORE:    0.00 PKD
ROOT
HETATM    1  O   UNL     1      -7.615  12.674  69.382  1.00  0.00    -0.297 OA 
HETATM    2  C   UNL     1      -7.733  11.515  68.533  1.00  0.00    -0.134 C  
HETATM    3  H   UNL     1      -7.229  13.375  68.871  1.00  0.00     0.000 HD 
HETATM    4  C   UNL     1      -8.357  10.382  69.361  1.00  0.00    -0.142 C  
HETATM    5  C   UNL     1      -9.874  10.645  69.609  1.00  0.00    -0.013 C  
HETATM    6  O   UNL     1      -7.558  10.279  70.554  1.00  0.00    -0.442 OA 
HETATM    7  O   UNL     1     -10.669  13.665  65.981  1.00  0.00    -0.276 OA 
HETATM    8  H   UNL     1      -7.944   9.578  71.065  1.00  0.00     0.000 HD 
HETATM    9  O   UNL     1     -10.550  10.927  68.361  1.00  0.00    -0.174 OA 
HETATM   10  C   UNL     1     -10.012  12.128  67.764  1.00  0.00    -0.198 C  
HETATM   11  O   UNL     1     -12.011  11.905  66.455  1.00  0.00    -0.588 OA 
HETATM   12  P   UNL     1      -8.416  10.609  65.952  1.00  0.00    -0.161 P  
HETATM   13  C   UNL     1      -8.567  11.899  67.308  1.00  0.00    -0.170 C  
HETATM   14  C   UNL     1     -10.894  12.660  66.638  1.00  0.00    -0.258 C  
ENDROOT
BRANCH   5  15
HETATM   15  O   UNL     1     -10.558   9.548  70.246  1.00  0.00    -0.226 OA 
BRANCH  15  16
HETATM   16  C   UNL     1      -9.822   8.301  70.366  1.00  0.00    -0.186 C  
HETATM   17  O   UNL     1      -8.826   8.805  72.581  1.00  0.00    -0.394 OA 
HETATM   18  C   UNL     1      -9.608   7.866  71.825  1.00  0.00    -0.165 C  
HETATM   19  C   UNL     1     -10.980   7.682  72.468  1.00  0.00    -0.324 C  
HETATM   20  O   UNL     1     -10.801   7.543  73.881  1.00  0.00    -0.534 OA 
HETATM   21  H   UNL     1      -8.693   8.537  73.482  1.00  0.00     0.000 HD 
HETATM   22  C   UNL     1     -11.682   6.500  71.764  1.00  0.00    -0.324 C  
HETATM   23  O   UNL     1     -11.787   6.725  70.346  1.00  0.00    -0.376 OA 
HETATM   24  O   UNL     1     -11.014   5.249  71.965  1.00  0.00    -0.208 OA 
HETATM   25  H   UNL     1     -11.654   7.429  74.282  1.00  0.00     0.000 HD 
HETATM   26  C   UNL     1     -10.615   7.183  69.649  1.00  0.00    -0.234 C  
HETATM   27  P   UNL     1     -11.148   4.494  73.398  1.00  0.00    -0.262 P  
HETATM   28  C   UNL     1      -9.640   6.076  69.204  1.00  0.00    -0.132 C  
HETATM   29  O   UNL     1     -10.092   4.824  69.424  1.00  0.00    -0.218 OA 
HETATM   30  O   UNL     1      -8.555   6.284  68.680  1.00  0.00    -0.121 OA 
ENDBRANCH  15  16
ENDBRANCH   5  15
TORSDOF 2
ENDMDL
MODEL       64
REMARK 921   NORMALIZED FREE ENERGY PREDICTED BY IDOCK:   -5.74 KCAL/MOL
REMARK 922        TOTAL FREE ENERGY PREDICTED BY IDOCK:   -7.12 KCAL/MOL
REMARK 923 INTER-LIGAND FREE ENERGY PREDICTED BY IDOCK:   -6.19 KCAL/MOL
REMARK 924 INTRA-LIGAND FREE ENERGY PREDICTED BY IDOCK:   -0.93 KCAL/MOL
REMARK 927      BINDING AFFINITY PREDICTED BY RF-SCORE:    0.00 PKD
ROOT
HETATM    1  O   UNL     1      -9.922   9.841  71.780  1.00  0.00     0.109 OA 
HETATM    2  C   UNL     1     -11.276   9.442  71.488  1.00  0.00    -0.386 C  
HETATM    3  H   UNL     1      -9.611   9.315  72.508  1.00  0.00     0.000 HD 
HETATM    4  C   UNL     1     -11.778  10.293  70.312  1.00  0.00    -0.306 C  
HETATM    5  C   UNL     1     -11.109   9.843  68.976  1.00  0.00    -0.146 C  
HETATM    6  O   UNL     1     -11.532  11.661  70.681  1.00  0.00    -0.390 OA 
HETATM    7  O   UNL     1      -9.844   5.413  70.275  1.00  0.00    -0.177 OA 
HETATM    8  H   UNL     1     -11.843  12.187  69.954  1.00  0.00     0.000 HD 
HETATM    9  O   UNL     1     -11.250   8.414  68.795  1.00  0.00     0.231 OA 
HETATM   10  C   UNL     1     -10.570   7.709  69.857  1.00  0.00    -0.235 C  
HETATM   11  O   UNL     1     -10.890   5.890  68.325  1.00  0.00    -0.270 OA 
HETATM   12  P   UNL     1     -13.028   7.248  71.230  1.00  0.00    -0.155 P  
HETATM   13  C   UNL     1     -11.283   7.939  71.194  1.00  0.00    -0.261 C  
HETATM   14  C   UNL     1     -10.394   6.225  69.547  1.00  0.00    -0.212 C  
ENDROOT
BRANCH   5  15
HETATM   15  O   UNL     1     -11.648  10.493  67.808  1.00  0.00    -0.462 OA 
BRANCH  15  16
HETATM   16  C   UNL     1     -10.700  11.177  66.946  1.00  0.00    -0.274 C  
HETATM   17  O   UNL     1     -12.383  12.005  65.322  1.00  0.00    -0.442 OA 
HETATM   18  C   UNL     1     -11.315  12.378  66.208  1.00  0.00    -0.340 C  
HETATM   19  C   UNL     1     -11.818  13.368  67.255  1.00  0.00    -0.376 C  
HETATM   20  O   UNL     1     -12.625  14.350  66.597  1.00  0.00    -0.534 OA 
HETATM   21  H   UNL     1     -12.762  12.746  64.866  1.00  0.00     0.000 HD 
HETATM   22  C   UNL     1     -10.595  13.914  68.023  1.00  0.00    -0.248 C  
HETATM   23  O   UNL     1      -9.837  12.847  68.623  1.00  0.00    -0.177 OA 
HETATM   24  O   UNL     1      -9.707  14.677  67.197  1.00  0.00    -0.227 OA 
HETATM   25  H   UNL     1     -12.939  14.966  67.249  1.00  0.00     0.000 HD 
HETATM   26  C   UNL     1      -9.528  11.701  67.810  1.00  0.00    -0.178 C  
HETATM   27  P   UNL     1     -10.124  16.186  66.759  1.00  0.00    -0.289 P  
HETATM   28  C   UNL     1      -8.272  11.838  66.930  1.00  0.00    -0.166 C  
HETATM   29  O   UNL     1      -7.569  12.969  67.145  1.00  0.00    -0.122 OA 
HETATM   30  O   UNL     1      -7.909  11.003  66.113  1.00  0.00    -0.161 OA 
ENDBRANCH  15  16
ENDBRANCH   5  15
TORSDOF 2
ENDMDL
MODEL       65
REMARK 921   NORMALIZED FREE ENERGY PREDICTED BY IDOCK:   -5.74 KCAL/MOL
REMARK 922        TOTAL FREE ENERGY PREDICTED BY IDOCK:   -7.12 KCAL/MOL
REMARK 923 INTER-LIGAND FREE ENERGY PREDICTED BY IDOCK:   -6.36 KCAL/MOL
REMARK 924 INTRA-LIGAND FREE ENERGY PREDICTED BY IDOCK:   -0.76 KCAL/MOL
REMARK 927      BINDING AFFINITY PREDICTED BY RF-SCORE:    0.00 PKD
ROOT
HETATM    1  O   UNL     1     -12.352  13.615  67.743  1.00  0.00    -0.364 OA 
HETATM    2  C   UNL     1     -11.008  13.288  68.149  1.00  0.00    -0.255 C  
HETATM    3  H   UNL     1     -12.300  14.225  67.017  1.00  0.00     0.000 HD 
HETATM    4  C   UNL     1     -11.093  12.301  69.323  1.00  0.00    -0.158 C  
HETATM    5  C   UNL     1     -11.538  10.890  68.831  1.00  0.00    -0.309 C  
HETATM    6  O   UNL     1     -11.970  12.910  70.287  1.00  0.00    -0.428 OA 
HETATM    7  O   UNL     1     -10.288  11.318  64.230  1.00  0.00    -0.287 OA 
HETATM    8  H   UNL     1     -12.022  12.300  71.013  1.00  0.00     0.000 HD 
HETATM    9  O   UNL     1     -10.707  10.451  67.730  1.00  0.00    -0.236 OA 
HETATM   10  C   UNL     1     -10.857  11.348  66.606  1.00  0.00    -0.289 C  
HETATM   11  O   UNL     1      -9.773   9.516  65.499  1.00  0.00    -0.283 OA 
HETATM   12  P   UNL     1      -8.410  12.674  67.238  1.00  0.00    -0.152 P  
HETATM   13  C   UNL     1     -10.263  12.722  66.936  1.00  0.00    -0.236 C  
HETATM   14  C   UNL     1     -10.280  10.766  65.319  1.00  0.00    -0.285 C  
ENDROOT
BRANCH   5  15
HETATM   15  O   UNL     1     -11.489   9.875  69.854  1.00  0.00    -0.236 OA 
BRANCH  15  16
HETATM   16  C   UNL     1     -10.627   8.734  69.600  1.00  0.00    -0.219 C  
HETATM   17  O   UNL     1      -8.512   9.864  70.237  1.00  0.00    -0.278 OA 
HETATM   18  C   UNL     1      -9.362   8.728  70.473  1.00  0.00    -0.187 C  
HETATM   19  C   UNL     1      -9.798   8.689  71.935  1.00  0.00    -0.314 C  
HETATM   20  O   UNL     1      -8.655   8.955  72.755  1.00  0.00    -0.367 OA 
HETATM   21  H   UNL     1      -7.731   9.860  70.776  1.00  0.00     0.000 HD 
HETATM   22  C   UNL     1     -10.502   7.339  72.187  1.00  0.00    -0.203 C  
HETATM   23  O   UNL     1     -11.618   7.157  71.296  1.00  0.00    -0.268 OA 
HETATM   24  O   UNL     1      -9.628   6.213  72.038  1.00  0.00    -0.154 OA 
HETATM   25  H   UNL     1      -8.927   8.931  73.665  1.00  0.00     0.000 HD 
HETATM   26  C   UNL     1     -11.416   7.437  69.899  1.00  0.00    -0.003 C  
HETATM   27  P   UNL     1      -8.545   5.882  73.204  1.00  0.00    -0.116 P  
HETATM   28  C   UNL     1     -10.819   6.280  69.076  1.00  0.00    -0.337 C  
HETATM   29  O   UNL     1     -10.690   5.125  69.762  1.00  0.00    -0.225 OA 
HETATM   30  O   UNL     1     -10.498   6.366  67.899  1.00  0.00    -0.170 OA 
ENDBRANCH  15  16
ENDBRANCH   5  15
TORSDOF 2
ENDMDL
MODEL       66
REMARK 921   NORMALIZED FREE ENERGY PREDICTED BY IDOCK:   -5.73 KCAL/MOL
REMARK 922        TOTAL FREE ENERGY PREDICTED BY IDOCK:   -7.10 KCAL/MOL
REMARK 923 INTER-LIGAND FREE ENERGY PREDICTED BY IDOCK:   -6.35 KCAL/MOL
REMARK 924 INTRA-LIGAND FREE ENERGY PREDICTED BY IDOCK:   -0.76 KCAL/MOL
REMARK 927      BINDING AFFINITY PREDICTED BY RF-SCORE:    0.00 PKD
ROOT
HETATM    1  O   UNL     1     -11.485  14.915  65.846  1.00  0.00    -0.342 OA 
HETATM    2  C   UNL     1     -11.837  14.529  67.189  1.00  0.00    -0.387 C  
HETATM    3  H   UNL     1     -11.630  15.850  65.761  1.00  0.00     0.000 HD 
HETATM    4  C   UNL     1     -11.604  13.016  67.325  1.00  0.00    -0.356 C  
HETATM    5  C   UNL     1     -10.080  12.693  67.381  1.00  0.00    -0.218 C  
HETATM    6  O   UNL     1     -12.312  12.408  66.230  1.00  0.00    -0.577 OA 
HETATM    7  O   UNL     1      -8.496  16.985  68.787  1.00  0.00    -0.254 OA 
HETATM    8  H   UNL     1     -12.168  11.473  66.315  1.00  0.00     0.000 HD 
HETATM    9  O   UNL     1      -9.427  13.500  68.390  1.00  0.00    -0.211 OA 
HETATM   10  C   UNL     1      -9.541  14.901  68.056  1.00  0.00    -0.207 C  
HETATM   11  O   UNL     1      -7.835  15.040  69.738  1.00  0.00    -0.172 OA 
HETATM   12  P   UNL     1     -11.680  15.250  69.911  1.00  0.00    -0.377 P  
HETATM   13  C   UNL     1     -10.999  15.360  68.165  1.00  0.00    -0.297 C  
HETATM   14  C   UNL     1      -8.600  15.772  68.883  1.00  0.00    -0.220 C  
ENDROOT
BRANCH   5  15
HETATM   15  O   UNL     1      -9.789  11.310  67.664  1.00  0.00    -0.172 OA 
BRANCH  15  16
HETATM   16  C   UNL     1      -9.179  11.021  68.951  1.00  0.00    -0.129 C  
HETATM   17  O   UNL     1     -11.279  11.159  70.265  1.00  0.00    -0.467 OA 
HETATM   18  C   UNL     1     -10.144  10.341  69.936  1.00  0.00    -0.171 C  
HETATM   19  C   UNL     1     -10.604   9.025  69.312  1.00  0.00    -0.213 C  
HETATM   20  O   UNL     1     -11.698   8.518  70.085  1.00  0.00    -0.470 OA 
HETATM   21  H   UNL     1     -11.875  10.739  70.873  1.00  0.00     0.000 HD 
HETATM   22  C   UNL     1      -9.377   8.096  69.200  1.00  0.00    -0.151 C  
HETATM   23  O   UNL     1      -8.327   8.709  68.429  1.00  0.00    -0.124 OA 
HETATM   24  O   UNL     1      -8.833   7.725  70.472  1.00  0.00    -0.142 OA 
HETATM   25  H   UNL     1     -11.984   7.700  69.697  1.00  0.00     0.000 HD 
HETATM   26  C   UNL     1      -7.978  10.071  68.732  1.00  0.00    -0.096 C  
HETATM   27  P   UNL     1      -9.605   6.619  71.379  1.00  0.00    -0.166 P  
HETATM   28  C   UNL     1      -6.972  10.252  69.884  1.00  0.00    -0.142 C  
HETATM   29  O   UNL     1      -6.467   9.095  70.360  1.00  0.00    -0.040 OA 
HETATM   30  O   UNL     1      -6.630  11.335  70.336  1.00  0.00    -0.248 OA 
ENDBRANCH  15  16
ENDBRANCH   5  15
TORSDOF 2
ENDMDL
MODEL       67
REMARK 921   NORMALIZED FREE ENERGY PREDICTED BY IDOCK:   -5.72 KCAL/MOL
REMARK 922        TOTAL FREE ENERGY PREDICTED BY IDOCK:   -7.10 KCAL/MOL
REMARK 923 INTER-LIGAND FREE ENERGY PREDICTED BY IDOCK:   -6.27 KCAL/MOL
REMARK 924 INTRA-LIGAND FREE ENERGY PREDICTED BY IDOCK:   -0.83 KCAL/MOL
REMARK 927      BINDING AFFINITY PREDICTED BY RF-SCORE:    0.00 PKD
ROOT
HETATM    1  O   UNL     1     -10.174   8.608  72.398  1.00  0.00    -0.312 OA 
HETATM    2  C   UNL     1     -10.941   8.193  71.250  1.00  0.00    -0.240 C  
HETATM    3  H   UNL     1      -9.764   7.838  72.772  1.00  0.00     0.000 HD 
HETATM    4  C   UNL     1     -11.605   9.439  70.646  1.00  0.00    -0.269 C  
HETATM    5  C   UNL     1     -10.554  10.329  69.915  1.00  0.00    -0.276 C  
HETATM    6  O   UNL     1     -12.294  10.084  71.733  1.00  0.00    -0.390 OA 
HETATM    7  O   UNL     1      -7.202   6.995  69.167  1.00  0.00    -0.084 OA 
HETATM    8  H   UNL     1     -12.705  10.855  71.359  1.00  0.00     0.000 HD 
HETATM    9  O   UNL     1      -9.784   9.539  68.978  1.00  0.00    -0.162 OA 
HETATM   10  C   UNL     1      -9.044   8.516  69.682  1.00  0.00    -0.149 C  
HETATM   11  O   UNL     1      -7.918   8.424  67.564  1.00  0.00    -0.104 OA 
HETATM   12  P   UNL     1     -10.964   6.529  68.973  1.00  0.00    -0.292 P  
HETATM   13  C   UNL     1     -10.000   7.477  70.276  1.00  0.00    -0.192 C  
HETATM   14  C   UNL     1      -7.968   7.876  68.809  1.00  0.00    -0.124 C  
ENDROOT
BRANCH   5  15
HETATM   15  O   UNL     1     -11.130  11.435  69.192  1.00  0.00    -0.228 OA 
BRANCH  15  16
HETATM   16  C   UNL     1     -10.237  12.188  68.329  1.00  0.00    -0.208 C  
HETATM   17  O   UNL     1     -10.498  10.719  66.348  1.00  0.00    -0.245 OA 
HETATM   18  C   UNL     1     -10.594  12.066  66.839  1.00  0.00    -0.229 C  
HETATM   19  C   UNL     1     -12.012  12.598  66.649  1.00  0.00    -0.312 C  
HETATM   20  O   UNL     1     -12.455  12.245  65.334  1.00  0.00    -0.596 OA 
HETATM   21  H   UNL     1     -10.719  10.643  65.427  1.00  0.00     0.000 HD 
HETATM   22  C   UNL     1     -12.002  14.108  66.967  1.00  0.00    -0.439 C  
HETATM   23  O   UNL     1     -11.516  14.358  68.299  1.00  0.00    -0.274 OA 
HETATM   24  O   UNL     1     -11.202  14.870  66.055  1.00  0.00    -0.337 OA 
HETATM   25  H   UNL     1     -13.337  12.575  65.216  1.00  0.00     0.000 HD 
HETATM   26  C   UNL     1     -10.314  13.685  68.714  1.00  0.00    -0.173 C  
HETATM   27  P   UNL     1     -11.765  15.175  64.561  1.00  0.00    -0.129 P  
HETATM   28  C   UNL     1      -8.999  14.379  68.314  1.00  0.00    -0.187 C  
HETATM   29  O   UNL     1      -9.168  15.588  67.740  1.00  0.00    -0.179 OA 
HETATM   30  O   UNL     1      -7.886  13.909  68.504  1.00  0.00    -0.133 OA 
ENDBRANCH  15  16
ENDBRANCH   5  15
TORSDOF 2
ENDMDL
MODEL       68
REMARK 921   NORMALIZED FREE ENERGY PREDICTED BY IDOCK:   -5.72 KCAL/MOL
REMARK 922        TOTAL FREE ENERGY PREDICTED BY IDOCK:   -7.10 KCAL/MOL
REMARK 923 INTER-LIGAND FREE ENERGY PREDICTED BY IDOCK:   -6.18 KCAL/MOL
REMARK 924 INTRA-LIGAND FREE ENERGY PREDICTED BY IDOCK:   -0.91 KCAL/MOL
REMARK 927      BINDING AFFINITY PREDICTED BY RF-SCORE:    0.00 PKD
ROOT
HETATM    1  O   UNL     1      -7.191  11.141  65.562  1.00  0.00    -0.362 OA 
HETATM    2  C   UNL     1      -6.952  10.983  66.975  1.00  0.00    -0.117 C  
HETATM    3  H   UNL     1      -7.017  10.308  65.140  1.00  0.00     0.000 HD 
HETATM    4  C   UNL     1      -7.233  12.330  67.658  1.00  0.00    -0.128 C  
HETATM    5  C   UNL     1      -8.765  12.617  67.710  1.00  0.00    -0.179 C  
HETATM    6  O   UNL     1      -6.458  13.305  66.938  1.00  0.00    -0.394 OA 
HETATM    7  O   UNL     1     -10.344   8.123  67.242  1.00  0.00    -0.249 OA 
HETATM    8  H   UNL     1      -6.631  14.138  67.360  1.00  0.00     0.000 HD 
HETATM    9  O   UNL     1      -9.473  11.491  68.279  1.00  0.00    -0.178 OA 
HETATM   10  C   UNL     1      -9.299  10.322  67.446  1.00  0.00    -0.145 C  
HETATM   11  O   UNL     1     -11.124   9.562  68.806  1.00  0.00    -0.132 OA 
HETATM   12  P   UNL     1      -7.300   9.278  69.194  1.00  0.00    -0.075 P  
HETATM   13  C   UNL     1      -7.842   9.847  67.489  1.00  0.00    -0.098 C  
HETATM   14  C   UNL     1     -10.279   9.207  67.801  1.00  0.00    -0.224 C  
ENDROOT
BRANCH   5  15
HETATM   15  O   UNL     1      -9.110  13.789  68.475  1.00  0.00    -0.192 OA 
BRANCH  15  16
HETATM   16  C   UNL     1     -10.020  14.733  67.848  1.00  0.00    -0.213 C  
HETATM   17  O   UNL     1     -10.220  16.237  69.810  1.00  0.00    -0.245 OA 
HETATM   18  C   UNL     1      -9.894  16.157  68.413  1.00  0.00    -0.222 C  
HETATM   19  C   UNL     1      -8.463  16.633  68.176  1.00  0.00    -0.198 C  
HETATM   20  O   UNL     1      -8.257  17.834  68.928  1.00  0.00    -0.248 OA 
HETATM   21  H   UNL     1     -10.143  17.116  70.159  1.00  0.00     0.000 HD 
HETATM   22  C   UNL     1      -8.246  16.753  66.652  1.00  0.00    -0.261 C  
HETATM   23  O   UNL     1      -8.505  15.503  65.988  1.00  0.00    -0.106 OA 
HETATM   24  O   UNL     1      -9.069  17.756  66.044  1.00  0.00    -0.502 OA 
HETATM   25  H   UNL     1      -7.366  18.130  68.781  1.00  0.00     0.000 HD 
HETATM   26  C   UNL     1      -9.708  14.794  66.333  1.00  0.00    -0.291 C  
HETATM   27  P   UNL     1      -8.690  19.325  66.236  1.00  0.00    -0.182 P  
HETATM   28  C   UNL     1     -10.973  15.236  65.574  1.00  0.00    -0.359 C  
HETATM   29  O   UNL     1     -10.742  16.142  64.600  1.00  0.00    -0.637 OA 
HETATM   30  O   UNL     1     -12.096  14.809  65.799  1.00  0.00    -0.247 OA 
ENDBRANCH  15  16
ENDBRANCH   5  15
TORSDOF 2
ENDMDL
MODEL       69
REMARK 921   NORMALIZED FREE ENERGY PREDICTED BY IDOCK:   -5.70 KCAL/MOL
REMARK 922        TOTAL FREE ENERGY PREDICTED BY IDOCK:   -7.07 KCAL/MOL
REMARK 923 INTER-LIGAND FREE ENERGY PREDICTED BY IDOCK:   -6.16 KCAL/MOL
REMARK 924 INTRA-LIGAND FREE ENERGY PREDICTED BY IDOCK:   -0.91 KCAL/MOL
REMARK 927      BINDING AFFINITY PREDICTED BY RF-SCORE:    0.00 PKD
ROOT
HETATM    1  O   UNL     1      -9.082  12.199  63.492  1.00  0.00    -0.445 OA 
HETATM    2  C   UNL     1     -10.469  12.358  63.852  1.00  0.00    -0.439 C  
HETATM    3  H   UNL     1      -8.834  12.933  62.944  1.00  0.00     0.000 HD 
HETATM    4  C   UNL     1     -10.869  11.169  64.738  1.00  0.00    -0.207 C  
HETATM    5  C   UNL     1     -10.243  11.301  66.160  1.00  0.00    -0.245 C  
HETATM    6  O   UNL     1     -10.481   9.988  64.013  1.00  0.00    -0.269 OA 
HETATM    7  O   UNL     1      -9.466  16.024  66.156  1.00  0.00    -0.284 OA 
HETATM    8  H   UNL     1     -10.729   9.254  64.562  1.00  0.00     0.000 HD 
HETATM    9  O   UNL     1     -10.534  12.602  66.724  1.00  0.00    -0.238 OA 
HETATM   10  C   UNL     1      -9.940  13.640  65.912  1.00  0.00    -0.291 C  
HETATM   11  O   UNL     1     -10.441  14.923  67.876  1.00  0.00    -0.245 OA 
HETATM   12  P   UNL     1     -12.443  14.202  64.662  1.00  0.00    -0.183 P  
HETATM   13  C   UNL     1     -10.633  13.713  64.547  1.00  0.00    -0.411 C  
HETATM   14  C   UNL     1      -9.920  14.991  66.621  1.00  0.00    -0.256 C  
ENDROOT
BRANCH   5  15
HETATM   15  O   UNL     1     -10.702  10.302  67.093  1.00  0.00    -0.257 OA 
BRANCH  15  16
HETATM   16  C   UNL     1      -9.681   9.506  67.751  1.00  0.00    -0.147 C  
HETATM   17  O   UNL     1     -11.230   8.318  69.281  1.00  0.00    -0.431 OA 
HETATM   18  C   UNL     1     -10.211   8.163  68.279  1.00  0.00    -0.206 C  
HETATM   19  C   UNL     1     -10.754   7.371  67.092  1.00  0.00    -0.330 C  
HETATM   20  O   UNL     1     -11.489   6.250  67.596  1.00  0.00    -0.609 OA 
HETATM   21  H   UNL     1     -11.558   7.489  69.608  1.00  0.00     0.000 HD 
HETATM   22  C   UNL     1      -9.568   7.030  66.164  1.00  0.00     0.057 C  
HETATM   23  O   UNL     1      -8.881   8.221  65.737  1.00  0.00    -0.162 OA 
HETATM   24  O   UNL     1      -8.608   6.160  66.775  1.00  0.00    -0.109 OA 
HETATM   25  H   UNL     1     -11.826   5.757  66.858  1.00  0.00     0.000 HD 
HETATM   26  C   UNL     1      -8.553   9.203  66.735  1.00  0.00    -0.127 C  
HETATM   27  P   UNL     1      -8.952   4.580  66.938  1.00  0.00    -0.128 P  
HETATM   28  C   UNL     1      -7.239   8.952  67.498  1.00  0.00    -0.080 C  
HETATM   29  O   UNL     1      -6.520   7.911  67.028  1.00  0.00    -0.053 OA 
HETATM   30  O   UNL     1      -6.847   9.631  68.437  1.00  0.00    -0.060 OA 
ENDBRANCH  15  16
ENDBRANCH   5  15
TORSDOF 2
ENDMDL
MODEL       70
REMARK 921   NORMALIZED FREE ENERGY PREDICTED BY IDOCK:   -5.69 KCAL/MOL
REMARK 922        TOTAL FREE ENERGY PREDICTED BY IDOCK:   -7.06 KCAL/MOL
REMARK 923 INTER-LIGAND FREE ENERGY PREDICTED BY IDOCK:   -6.18 KCAL/MOL
REMARK 924 INTRA-LIGAND FREE ENERGY PREDICTED BY IDOCK:   -0.88 KCAL/MOL
REMARK 927      BINDING AFFINITY PREDICTED BY RF-SCORE:    0.00 PKD
ROOT
HETATM    1  O   UNL     1     -10.663  19.421  68.353  1.00  0.00    -0.410 OA 
HETATM    2  C   UNL     1      -9.558  18.616  68.811  1.00  0.00    -0.344 C  
HETATM    3  H   UNL     1     -10.424  20.334  68.455  1.00  0.00     0.000 HD 
HETATM    4  C   UNL     1      -9.946  17.139  68.647  1.00  0.00    -0.313 C  
HETATM    5  C   UNL     1      -9.930  16.724  67.144  1.00  0.00    -0.274 C  
HETATM    6  O   UNL     1     -11.219  16.991  69.302  1.00  0.00    -0.254 OA 
HETATM    7  O   UNL     1      -7.037  20.163  65.494  1.00  0.00    -0.307 OA 
HETATM    8  H   UNL     1     -11.459  16.077  69.201  1.00  0.00     0.000 HD 
HETATM    9  O   UNL     1      -8.671  17.092  66.531  1.00  0.00    -0.228 OA 
HETATM   10  C   UNL     1      -8.501  18.527  66.567  1.00  0.00    -0.277 C  
HETATM   11  O   UNL     1      -6.792  17.972  64.976  1.00  0.00    -0.197 OA 
HETATM   12  P   UNL     1      -6.752  18.342  68.813  1.00  0.00    -0.258 P  
HETATM   13  C   UNL     1      -8.313  19.007  68.010  1.00  0.00    -0.301 C  
HETATM   14  C   UNL     1      -7.376  19.000  65.651  1.00  0.00    -0.113 C  
ENDROOT
BRANCH   5  15
HETATM   15  O   UNL     1     -10.132  15.313  66.928  1.00  0.00    -0.249 OA 
BRANCH  15  16
HETATM   16  C   UNL     1      -9.623  14.417  67.952  1.00  0.00    -0.219 C  
HETATM   17  O   UNL     1     -11.813  14.001  69.039  1.00  0.00    -0.312 OA 
HETATM   18  C   UNL     1     -10.665  13.391  68.426  1.00  0.00    -0.256 C  
HETATM   19  C   UNL     1     -11.089  12.557  67.221  1.00  0.00    -0.274 C  
HETATM   20  O   UNL     1     -12.242  11.791  67.585  1.00  0.00    -0.534 OA 
HETATM   21  H   UNL     1     -12.457  13.368  69.333  1.00  0.00     0.000 HD 
HETATM   22  C   UNL     1      -9.866  11.742  66.750  1.00  0.00    -0.198 C  
HETATM   23  O   UNL     1      -8.755  12.602  66.435  1.00  0.00    -0.076 OA 
HETATM   24  O   UNL     1      -9.423  10.783  67.718  1.00  0.00    -0.153 OA 
HETATM   25  H   UNL     1     -12.507  11.272  66.834  1.00  0.00     0.000 HD 
HETATM   26  C   UNL     1      -8.417  13.636  67.376  1.00  0.00    -0.201 C  
HETATM   27  P   UNL     1     -10.271   9.414  67.931  1.00  0.00    -0.236 P  
HETATM   28  C   UNL     1      -7.499  13.198  68.533  1.00  0.00    -0.117 C  
HETATM   29  O   UNL     1      -7.042  11.933  68.424  1.00  0.00    -0.074 OA 
HETATM   30  O   UNL     1      -7.182  13.916  69.470  1.00  0.00    -0.002 OA 
ENDBRANCH  15  16
ENDBRANCH   5  15
TORSDOF 2
ENDMDL
MODEL       71
REMARK 921   NORMALIZED FREE ENERGY PREDICTED BY IDOCK:   -5.68 KCAL/MOL
REMARK 922        TOTAL FREE ENERGY PREDICTED BY IDOCK:   -7.05 KCAL/MOL
REMARK 923 INTER-LIGAND FREE ENERGY PREDICTED BY IDOCK:   -6.43 KCAL/MOL
REMARK 924 INTRA-LIGAND FREE ENERGY PREDICTED BY IDOCK:   -0.62 KCAL/MOL
REMARK 927      BINDING AFFINITY PREDICTED BY RF-SCORE:    0.00 PKD
ROOT
HETATM    1  O   UNL     1     -12.207  12.703  67.090  1.00  0.00    -0.445 OA 
HETATM    2  C   UNL     1     -11.196  12.517  66.079  1.00  0.00    -0.315 C  
HETATM    3  H   UNL     1     -12.473  11.846  67.401  1.00  0.00     0.000 HD 
HETATM    4  C   UNL     1     -10.766  13.904  65.577  1.00  0.00    -0.302 C  
HETATM    5  C   UNL     1      -9.897  14.637  66.644  1.00  0.00    -0.269 C  
HETATM    6  O   UNL     1     -11.981  14.585  65.213  1.00  0.00    -0.368 OA 
HETATM    7  O   UNL     1      -8.445  10.808  69.123  1.00  0.00    -0.152 OA 
HETATM    8  H   UNL     1     -11.715  15.442  64.902  1.00  0.00     0.000 HD 
HETATM    9  O   UNL     1      -8.810  13.788  67.082  1.00  0.00    -0.215 OA 
HETATM   10  C   UNL     1      -9.333  12.599  67.718  1.00  0.00    -0.198 C  
HETATM   11  O   UNL     1      -7.049  12.454  68.440  1.00  0.00    -0.090 OA 
HETATM   12  P   UNL     1      -8.896  11.051  65.362  1.00  0.00    -0.032 P  
HETATM   13  C   UNL     1     -10.045  11.713  66.692  1.00  0.00    -0.208 C  
HETATM   14  C   UNL     1      -8.261  11.837  68.492  1.00  0.00    -0.134 C  
ENDROOT
BRANCH   5  15
HETATM   15  O   UNL     1      -9.330  15.878  66.179  1.00  0.00    -0.294 OA 
BRANCH  15  16
HETATM   16  C   UNL     1      -9.510  17.038  67.034  1.00  0.00    -0.250 C  
HETATM   17  O   UNL     1      -8.655  15.969  69.102  1.00  0.00    -0.236 OA 
HETATM   18  C   UNL     1      -8.517  17.084  68.206  1.00  0.00    -0.233 C  
HETATM   19  C   UNL     1      -7.105  17.125  67.626  1.00  0.00    -0.153 C  
HETATM   20  O   UNL     1      -6.174  16.896  68.690  1.00  0.00    -0.146 OA 
HETATM   21  H   UNL     1      -8.042  15.997  69.826  1.00  0.00     0.000 HD 
HETATM   22  C   UNL     1      -6.939  18.459  66.868  1.00  0.00    -0.194 C  
HETATM   23  O   UNL     1      -7.938  18.604  65.842  1.00  0.00    -0.475 OA 
HETATM   24  O   UNL     1      -7.014  19.606  67.724  1.00  0.00    -0.237 OA 
HETATM   25  H   UNL     1      -5.296  16.921  68.329  1.00  0.00     0.000 HD 
HETATM   26  C   UNL     1      -9.304  18.317  66.187  1.00  0.00    -0.133 C  
HETATM   27  P   UNL     1      -5.752  19.974  68.679  1.00  0.00    -0.262 P  
HETATM   28  C   UNL     1     -10.078  19.482  66.833  1.00  0.00    -0.401 C  
HETATM   29  O   UNL     1      -9.396  20.646  66.865  1.00  0.00    -0.327 OA 
HETATM   30  O   UNL     1     -11.217  19.394  67.270  1.00  0.00    -0.362 OA 
ENDBRANCH  15  16
ENDBRANCH   5  15
TORSDOF 2
ENDMDL
MODEL       72
REMARK 921   NORMALIZED FREE ENERGY PREDICTED BY IDOCK:   -5.65 KCAL/MOL
REMARK 922        TOTAL FREE ENERGY PREDICTED BY IDOCK:   -7.02 KCAL/MOL
REMARK 923 INTER-LIGAND FREE ENERGY PREDICTED BY IDOCK:   -6.15 KCAL/MOL
REMARK 924 INTRA-LIGAND FREE ENERGY PREDICTED BY IDOCK:   -0.86 KCAL/MOL
REMARK 927      BINDING AFFINITY PREDICTED BY RF-SCORE:    0.00 PKD
ROOT
HETATM    1  O   UNL     1      -7.228  14.954  69.967  1.00  0.00    -0.299 OA 
HETATM    2  C   UNL     1      -6.937  15.317  68.603  1.00  0.00    -0.110 C  
HETATM    3  H   UNL     1      -6.863  15.623  70.534  1.00  0.00     0.000 HD 
HETATM    4  C   UNL     1      -7.527  14.235  67.687  1.00  0.00    -0.179 C  
HETATM    5  C   UNL     1      -9.082  14.343  67.630  1.00  0.00    -0.194 C  
HETATM    6  O   UNL     1      -7.025  12.981  68.183  1.00  0.00    -0.082 OA 
HETATM    7  O   UNL     1      -9.524  18.911  68.992  1.00  0.00    -0.322 OA 
HETATM    8  H   UNL     1      -7.390  12.312  67.616  1.00  0.00     0.000 HD 
HETATM    9  O   UNL     1      -9.485  15.695  67.308  1.00  0.00    -0.213 OA 
HETATM   10  C   UNL     1      -9.043  16.605  68.341  1.00  0.00    -0.226 C  
HETATM   11  O   UNL     1     -10.607  18.031  67.209  1.00  0.00    -0.380 OA 
HETATM   12  P   UNL     1      -6.823  17.448  66.760  1.00  0.00    -0.263 P  
HETATM   13  C   UNL     1      -7.515  16.712  68.343  1.00  0.00    -0.194 C  
HETATM   14  C   UNL     1      -9.716  17.971  68.236  1.00  0.00    -0.330 C  
ENDROOT
BRANCH   5  15
HETATM   15  O   UNL     1      -9.692  13.459  66.668  1.00  0.00    -0.260 OA 
BRANCH  15  16
HETATM   16  C   UNL     1     -10.692  12.535  67.174  1.00  0.00    -0.237 C  
HETATM   17  O   UNL     1     -11.521  11.815  64.950  1.00  0.00    -0.287 OA 
HETATM   18  C   UNL     1     -10.983  11.375  66.208  1.00  0.00    -0.247 C  
HETATM   19  C   UNL     1      -9.683  10.607  65.988  1.00  0.00    -0.208 C  
HETATM   20  O   UNL     1      -9.873   9.702  64.895  1.00  0.00    -0.431 OA 
HETATM   21  H   UNL     1     -11.701  11.098  64.353  1.00  0.00     0.000 HD 
HETATM   22  C   UNL     1      -9.278   9.959  67.329  1.00  0.00    -0.138 C  
HETATM   23  O   UNL     1      -9.140  10.949  68.366  1.00  0.00    -0.150 OA 
HETATM   24  O   UNL     1     -10.212   8.972  67.782  1.00  0.00    -0.202 OA 
HETATM   25  H   UNL     1      -9.063   9.224  64.758  1.00  0.00     0.000 HD 
HETATM   26  C   UNL     1     -10.184  11.929  68.504  1.00  0.00    -0.215 C  
HETATM   27  P   UNL     1     -10.238   7.512  67.069  1.00  0.00    -0.302 P  
HETATM   28  C   UNL     1     -11.391  11.489  69.353  1.00  0.00    -0.289 C  
HETATM   29  O   UNL     1     -11.235  10.289  69.951  1.00  0.00    -0.259 OA 
HETATM   30  O   UNL     1     -12.406  12.154  69.505  1.00  0.00    -0.136 OA 
ENDBRANCH  15  16
ENDBRANCH   5  15
TORSDOF 2
ENDMDL
MODEL       73
REMARK 921   NORMALIZED FREE ENERGY PREDICTED BY IDOCK:   -5.64 KCAL/MOL
REMARK 922        TOTAL FREE ENERGY PREDICTED BY IDOCK:   -7.01 KCAL/MOL
REMARK 923 INTER-LIGAND FREE ENERGY PREDICTED BY IDOCK:   -6.42 KCAL/MOL
REMARK 924 INTRA-LIGAND FREE ENERGY PREDICTED BY IDOCK:   -0.59 KCAL/MOL
REMARK 927      BINDING AFFINITY PREDICTED BY RF-SCORE:    0.00 PKD
ROOT
HETATM    1  O   UNL     1      -7.160  15.923  69.349  1.00  0.00    -0.200 OA 
HETATM    2  C   UNL     1      -8.088  16.273  68.303  1.00  0.00    -0.167 C  
HETATM    3  H   UNL     1      -7.081  16.668  69.934  1.00  0.00     0.000 HD 
HETATM    4  C   UNL     1      -8.214  15.069  67.358  1.00  0.00    -0.194 C  
HETATM    5  C   UNL     1      -9.035  13.922  68.025  1.00  0.00    -0.184 C  
HETATM    6  O   UNL     1      -6.869  14.715  66.989  1.00  0.00    -0.353 OA 
HETATM    7  O   UNL     1     -11.373  16.532  71.287  1.00  0.00    -0.288 OA 
HETATM    8  H   UNL     1      -6.948  13.970  66.404  1.00  0.00     0.000 HD 
HETATM    9  O   UNL     1     -10.292  14.428  68.533  1.00  0.00    -0.235 OA 
HETATM   10  C   UNL     1     -10.052  15.417  69.559  1.00  0.00    -0.276 C  
HETATM   11  O   UNL     1     -12.382  15.004  69.955  1.00  0.00    -0.312 OA 
HETATM   12  P   UNL     1     -10.535  17.550  67.726  1.00  0.00    -0.342 P  
HETATM   13  C   UNL     1      -9.416  16.673  68.953  1.00  0.00    -0.251 C  
HETATM   14  C   UNL     1     -11.310  15.738  70.360  1.00  0.00    -0.374 C  
ENDROOT
BRANCH   5  15
HETATM   15  O   UNL     1      -9.325  12.823  67.139  1.00  0.00    -0.202 OA 
BRANCH  15  16
HETATM   16  C   UNL     1     -10.466  11.992  67.482  1.00  0.00    -0.212 C  
HETATM   17  O   UNL     1     -11.131  11.493  65.145  1.00  0.00    -0.271 OA 
HETATM   18  C   UNL     1     -10.777  10.927  66.418  1.00  0.00    -0.194 C  
HETATM   19  C   UNL     1      -9.551  10.030  66.276  1.00  0.00    -0.202 C  
HETATM   20  O   UNL     1      -9.721   9.214  65.112  1.00  0.00    -0.449 OA 
HETATM   21  H   UNL     1     -11.324  10.836  64.487  1.00  0.00     0.000 HD 
HETATM   22  C   UNL     1      -9.360   9.269  67.604  1.00  0.00    -0.128 C  
HETATM   23  O   UNL     1      -9.226  10.178  68.713  1.00  0.00    -0.149 OA 
HETATM   24  O   UNL     1     -10.436   8.369  67.897  1.00  0.00    -0.219 OA 
HETATM   25  H   UNL     1      -8.958   8.656  65.023  1.00  0.00     0.000 HD 
HETATM   26  C   UNL     1     -10.168  11.260  68.812  1.00  0.00    -0.202 C  
HETATM   27  P   UNL     1     -10.544   6.963  67.090  1.00  0.00    -0.352 P  
HETATM   28  C   UNL     1     -11.497  10.914  69.509  1.00  0.00    -0.301 C  
HETATM   29  O   UNL     1     -11.534   9.673  70.039  1.00  0.00    -0.225 OA 
HETATM   30  O   UNL     1     -12.445  11.680  69.604  1.00  0.00    -0.136 OA 
ENDBRANCH  15  16
ENDBRANCH   5  15
TORSDOF 2
ENDMDL
MODEL       74
REMARK 921   NORMALIZED FREE ENERGY PREDICTED BY IDOCK:   -5.63 KCAL/MOL
REMARK 922        TOTAL FREE ENERGY PREDICTED BY IDOCK:   -7.00 KCAL/MOL
REMARK 923 INTER-LIGAND FREE ENERGY PREDICTED BY IDOCK:   -6.35 KCAL/MOL
REMARK 924 INTRA-LIGAND FREE ENERGY PREDICTED BY IDOCK:   -0.65 KCAL/MOL
REMARK 927      BINDING AFFINITY PREDICTED BY RF-SCORE:    0.00 PKD
ROOT
HETATM    1  O   UNL     1     -12.933   8.955  73.247  1.00  0.00    -0.633 OA 
HETATM    2  C   UNL     1     -12.472   8.028  72.244  1.00  0.00    -0.261 C  
HETATM    3  H   UNL     1     -12.975   8.494  74.076  1.00  0.00     0.000 HD 
HETATM    4  C   UNL     1     -12.403   8.774  70.903  1.00  0.00    -0.071 C  
HETATM    5  C   UNL     1     -11.197   9.762  70.879  1.00  0.00    -0.359 C  
HETATM    6  O   UNL     1     -13.693   9.388  70.727  1.00  0.00    -0.586 OA 
HETATM    7  O   UNL     1      -8.546   7.726  74.305  1.00  0.00    -0.235 OA 
HETATM    8  H   UNL     1     -13.650   9.849  69.898  1.00  0.00     0.000 HD 
HETATM    9  O   UNL     1      -9.977   9.082  71.257  1.00  0.00    -0.260 OA 
HETATM   10  C   UNL     1     -10.082   8.589  72.612  1.00  0.00    -0.183 C  
HETATM   11  O   UNL     1      -7.712   8.370  72.301  1.00  0.00    -0.123 OA 
HETATM   12  P   UNL     1     -10.649   5.949  71.691  1.00  0.00    -0.254 P  
HETATM   13  C   UNL     1     -11.120   7.465  72.694  1.00  0.00    -0.331 C  
HETATM   14  C   UNL     1      -8.730   8.167  73.181  1.00  0.00    -0.240 C  
ENDROOT
BRANCH   5  15
HETATM   15  O   UNL     1     -10.979  10.381  69.596  1.00  0.00    -0.239 OA 
BRANCH  15  16
HETATM   16  C   UNL     1      -9.627  10.327  69.066  1.00  0.00    -0.203 C  
HETATM   17  O   UNL     1      -9.539   7.859  68.842  1.00  0.00    -0.153 OA 
HETATM   18  C   UNL     1      -9.385   9.112  68.156  1.00  0.00    -0.138 C  
HETATM   19  C   UNL     1     -10.360   9.198  66.985  1.00  0.00    -0.263 C  
HETATM   20  O   UNL     1     -10.334   7.950  66.284  1.00  0.00    -0.461 OA 
HETATM   21  H   UNL     1      -9.389   7.108  68.280  1.00  0.00     0.000 HD 
HETATM   22  C   UNL     1      -9.994  10.443  66.149  1.00  0.00    -0.231 C  
HETATM   23  O   UNL     1     -10.022  11.638  66.951  1.00  0.00    -0.198 OA 
HETATM   24  O   UNL     1      -8.700  10.350  65.539  1.00  0.00    -0.163 OA 
HETATM   25  H   UNL     1     -10.942   8.003  65.555  1.00  0.00     0.000 HD 
HETATM   26  C   UNL     1      -9.367  11.604  68.232  1.00  0.00    -0.191 C  
HETATM   27  P   UNL     1      -8.497   9.398  64.238  1.00  0.00    -0.192 P  
HETATM   28  C   UNL     1      -7.855  11.892  68.204  1.00  0.00    -0.134 C  
HETATM   29  O   UNL     1      -7.386  12.260  66.994  1.00  0.00    -0.132 OA 
HETATM   30  O   UNL     1      -7.122  11.819  69.181  1.00  0.00    -0.109 OA 
ENDBRANCH  15  16
ENDBRANCH   5  15
TORSDOF 2
ENDMDL
MODEL       75
REMARK 921   NORMALIZED FREE ENERGY PREDICTED BY IDOCK:   -5.60 KCAL/MOL
REMARK 922        TOTAL FREE ENERGY PREDICTED BY IDOCK:   -6.97 KCAL/MOL
REMARK 923 INTER-LIGAND FREE ENERGY PREDICTED BY IDOCK:   -6.06 KCAL/MOL
REMARK 924 INTRA-LIGAND FREE ENERGY PREDICTED BY IDOCK:   -0.90 KCAL/MOL
REMARK 927      BINDING AFFINITY PREDICTED BY RF-SCORE:    0.00 PKD
ROOT
HETATM    1  O   UNL     1     -12.622  10.264  72.077  1.00  0.00    -0.371 OA 
HETATM    2  C   UNL     1     -12.338   9.122  71.244  1.00  0.00    -0.315 C  
HETATM    3  H   UNL     1     -12.954   9.946  72.908  1.00  0.00     0.000 HD 
HETATM    4  C   UNL     1     -11.802   9.637  69.899  1.00  0.00     0.124 C  
HETATM    5  C   UNL     1     -10.348  10.182  70.053  1.00  0.00    -0.250 C  
HETATM    6  O   UNL     1     -12.764  10.601  69.435  1.00  0.00    -0.671 OA 
HETATM    7  O   UNL     1      -9.138   7.849  74.054  1.00  0.00    -0.255 OA 
HETATM    8  H   UNL     1     -12.432  10.919  68.603  1.00  0.00     0.000 HD 
HETATM    9  O   UNL     1      -9.506   9.202  70.706  1.00  0.00    -0.229 OA 
HETATM   10  C   UNL     1      -9.993   8.939  72.041  1.00  0.00    -0.268 C  
HETATM   11  O   UNL     1      -7.817   7.945  72.218  1.00  0.00    -0.096 OA 
HETATM   12  P   UNL     1     -11.248   6.522  71.190  1.00  0.00    -0.330 P  
HETATM   13  C   UNL     1     -11.346   8.220  71.985  1.00  0.00    -0.325 C  
HETATM   14  C   UNL     1      -8.975   8.184  72.890  1.00  0.00    -0.260 C  
ENDROOT
BRANCH   5  15
HETATM   15  O   UNL     1      -9.726  10.538  68.802  1.00  0.00    -0.168 OA 
BRANCH  15  16
HETATM   16  C   UNL     1     -10.082   9.736  67.645  1.00  0.00    -0.190 C  
HETATM   17  O   UNL     1     -11.729  11.343  66.718  1.00  0.00    -0.474 OA 
HETATM   18  C   UNL     1     -10.541  10.581  66.445  1.00  0.00    -0.149 C  
HETATM   19  C   UNL     1      -9.394  11.509  66.056  1.00  0.00    -0.223 C  
HETATM   20  O   UNL     1      -9.893  12.480  65.129  1.00  0.00    -0.410 OA 
HETATM   21  H   UNL     1     -12.012  11.865  65.977  1.00  0.00     0.000 HD 
HETATM   22  C   UNL     1      -8.226  10.638  65.547  1.00  0.00    -0.141 C  
HETATM   23  O   UNL     1      -7.818   9.680  66.542  1.00  0.00    -0.106 OA 
HETATM   24  O   UNL     1      -8.539   9.923  64.346  1.00  0.00    -0.156 OA 
HETATM   25  H   UNL     1      -9.180  13.058  64.887  1.00  0.00     0.000 HD 
HETATM   26  C   UNL     1      -8.844   8.919  67.203  1.00  0.00    -0.123 C  
HETATM   27  P   UNL     1      -8.580  10.720  62.930  1.00  0.00    -0.143 P  
HETATM   28  C   UNL     1      -9.311   7.656  66.457  1.00  0.00    -0.189 C  
HETATM   29  O   UNL     1      -8.597   7.377  65.347  1.00  0.00    -0.127 OA 
HETATM   30  O   UNL     1     -10.232   6.939  66.824  1.00  0.00    -0.219 OA 
ENDBRANCH  15  16
ENDBRANCH   5  15
TORSDOF 2
ENDMDL
MODEL       76
REMARK 921   NORMALIZED FREE ENERGY PREDICTED BY IDOCK:   -5.60 KCAL/MOL
REMARK 922        TOTAL FREE ENERGY PREDICTED BY IDOCK:   -6.97 KCAL/MOL
REMARK 923 INTER-LIGAND FREE ENERGY PREDICTED BY IDOCK:   -6.71 KCAL/MOL
REMARK 924 INTRA-LIGAND FREE ENERGY PREDICTED BY IDOCK:   -0.25 KCAL/MOL
REMARK 927      BINDING AFFINITY PREDICTED BY RF-SCORE:    0.00 PKD
ROOT
HETATM    1  O   UNL     1     -11.427   8.839  70.130  1.00  0.00    -0.437 OA 
HETATM    2  C   UNL     1     -10.532   8.597  69.026  1.00  0.00    -0.199 C  
HETATM    3  H   UNL     1     -11.473   8.046  70.650  1.00  0.00     0.000 HD 
HETATM    4  C   UNL     1     -10.458   9.880  68.185  1.00  0.00    -0.215 C  
HETATM    5  C   UNL     1      -9.631  10.979  68.920  1.00  0.00    -0.163 C  
HETATM    6  O   UNL     1     -11.821  10.241  67.895  1.00  0.00    -0.647 OA 
HETATM    7  O   UNL     1      -7.138   8.141  71.859  1.00  0.00    -0.068 OA 
HETATM    8  H   UNL     1     -11.775  11.034  67.375  1.00  0.00     0.000 HD 
HETATM    9  O   UNL     1      -8.349  10.454  69.337  1.00  0.00    -0.160 OA 
HETATM   10  C   UNL     1      -8.537   9.376  70.282  1.00  0.00    -0.221 C  
HETATM   11  O   UNL     1      -6.199   9.794  70.630  1.00  0.00    -0.075 OA 
HETATM   12  P   UNL     1      -8.089   7.418  68.255  1.00  0.00    -0.126 P  
HETATM   13  C   UNL     1      -9.176   8.166  69.592  1.00  0.00    -0.155 C  
HETATM   14  C   UNL     1      -7.245   9.010  71.008  1.00  0.00    -0.106 C  
ENDROOT
BRANCH   5  15
HETATM   15  O   UNL     1      -9.389  12.155  68.122  1.00  0.00    -0.194 OA 
BRANCH  15  16
HETATM   16  C   UNL     1     -10.556  12.913  67.705  1.00  0.00    -0.222 C  
HETATM   17  O   UNL     1     -11.078  13.833  69.948  1.00  0.00    -0.466 OA 
HETATM   18  C   UNL     1     -10.810  14.155  68.574  1.00  0.00    -0.252 C  
HETATM   19  C   UNL     1      -9.585  15.060  68.472  1.00  0.00    -0.210 C  
HETATM   20  O   UNL     1      -9.689  16.076  69.475  1.00  0.00    -0.253 OA 
HETATM   21  H   UNL     1     -11.235  14.600  70.485  1.00  0.00     0.000 HD 
HETATM   22  C   UNL     1      -9.483  15.565  67.017  1.00  0.00    -0.225 C  
HETATM   23  O   UNL     1      -9.411  14.468  66.088  1.00  0.00    -0.277 OA 
HETATM   24  O   UNL     1     -10.584  16.398  66.633  1.00  0.00    -0.302 OA 
HETATM   25  H   UNL     1      -8.927  16.639  69.413  1.00  0.00     0.000 HD 
HETATM   26  C   UNL     1     -10.347  13.388  66.247  1.00  0.00    -0.291 C  
HETATM   27  P   UNL     1     -10.654  17.929  67.174  1.00  0.00    -0.175 P  
HETATM   28  C   UNL     1     -11.720  13.605  65.584  1.00  0.00    -0.342 C  
HETATM   29  O   UNL     1     -11.801  14.727  64.840  1.00  0.00    -0.382 OA 
HETATM   30  O   UNL     1     -12.666  12.836  65.690  1.00  0.00    -0.549 OA 
ENDBRANCH  15  16
ENDBRANCH   5  15
TORSDOF 2
ENDMDL
MODEL       77
REMARK 921   NORMALIZED FREE ENERGY PREDICTED BY IDOCK:   -5.55 KCAL/MOL
REMARK 922        TOTAL FREE ENERGY PREDICTED BY IDOCK:   -6.90 KCAL/MOL
REMARK 923 INTER-LIGAND FREE ENERGY PREDICTED BY IDOCK:   -6.01 KCAL/MOL
REMARK 924 INTRA-LIGAND FREE ENERGY PREDICTED BY IDOCK:   -0.89 KCAL/MOL
REMARK 927      BINDING AFFINITY PREDICTED BY RF-SCORE:    0.00 PKD
ROOT
HETATM    1  O   UNL     1     -12.407  11.078  68.405  1.00  0.00    -0.762 OA 
HETATM    2  C   UNL     1     -11.590  12.245  68.184  1.00  0.00    -0.339 C  
HETATM    3  H   UNL     1     -13.317  11.332  68.302  1.00  0.00     0.000 HD 
HETATM    4  C   UNL     1     -10.120  11.833  68.351  1.00  0.00    -0.201 C  
HETATM    5  C   UNL     1      -9.641  10.980  67.136  1.00  0.00    -0.169 C  
HETATM    6  O   UNL     1     -10.038  11.171  69.626  1.00  0.00    -0.432 OA 
HETATM    7  O   UNL     1     -12.918  12.392  63.945  1.00  0.00    -0.754 OA 
HETATM    8  H   UNL     1      -9.128  10.917  69.728  1.00  0.00     0.000 HD 
HETATM    9  O   UNL     1      -9.945  11.655  65.892  1.00  0.00    -0.216 OA 
HETATM   10  C   UNL     1     -11.374  11.814  65.749  1.00  0.00    -0.250 C  
HETATM   11  O   UNL     1     -10.701  12.294  63.496  1.00  0.00    -0.429 OA 
HETATM   12  P   UNL     1     -11.232  14.539  66.584  1.00  0.00    -0.359 P  
HETATM   13  C   UNL     1     -11.910  12.800  66.793  1.00  0.00    -0.382 C  
HETATM   14  C   UNL     1     -11.774  12.206  64.329  1.00  0.00    -0.373 C  
ENDROOT
BRANCH   5  15
HETATM   15  O   UNL     1      -8.229  10.691  67.150  1.00  0.00    -0.119 OA 
BRANCH  15  16
HETATM   16  C   UNL     1      -7.850   9.291  67.070  1.00  0.00    -0.098 C  
HETATM   17  O   UNL     1      -5.445   9.650  67.561  1.00  0.00    -0.036 OA 
HETATM   18  C   UNL     1      -6.636   8.945  67.948  1.00  0.00    -0.061 C  
HETATM   19  C   UNL     1      -6.995   9.267  69.396  1.00  0.00    -0.049 C  
HETATM   20  O   UNL     1      -5.799   9.208  70.181  1.00  0.00    -0.030 OA 
HETATM   21  H   UNL     1      -4.695   9.436  68.103  1.00  0.00     0.000 HD 
HETATM   22  C   UNL     1      -8.127   8.313  69.831  1.00  0.00    -0.117 C  
HETATM   23  O   UNL     1      -9.270   8.430  68.964  1.00  0.00    -0.147 OA 
HETATM   24  O   UNL     1      -7.727   6.938  69.853  1.00  0.00    -0.104 OA 
HETATM   25  H   UNL     1      -6.022   9.410  71.082  1.00  0.00     0.000 HD 
HETATM   26  C   UNL     1      -9.041   8.423  67.544  1.00  0.00    -0.134 C  
HETATM   27  P   UNL     1      -6.788   6.398  71.065  1.00  0.00    -0.069 P  
HETATM   28  C   UNL     1      -8.938   7.028  66.900  1.00  0.00    -0.126 C  
HETATM   29  O   UNL     1      -9.206   6.011  67.745  1.00  0.00    -0.111 OA 
HETATM   30  O   UNL     1      -8.659   6.829  65.726  1.00  0.00    -0.148 OA 
ENDBRANCH  15  16
ENDBRANCH   5  15
TORSDOF 2
ENDMDL
MODEL       78
REMARK 921   NORMALIZED FREE ENERGY PREDICTED BY IDOCK:   -5.52 KCAL/MOL
REMARK 922        TOTAL FREE ENERGY PREDICTED BY IDOCK:   -6.88 KCAL/MOL
REMARK 923 INTER-LIGAND FREE ENERGY PREDICTED BY IDOCK:   -7.16 KCAL/MOL
REMARK 924 INTRA-LIGAND FREE ENERGY PREDICTED BY IDOCK:    0.28 KCAL/MOL
REMARK 927      BINDING AFFINITY PREDICTED BY RF-SCORE:    0.00 PKD
ROOT
HETATM    1  O   UNL     1     -10.869  18.825  67.552  1.00  0.00    -0.435 OA 
HETATM    2  C   UNL     1      -9.802  18.622  68.499  1.00  0.00    -0.386 C  
HETATM    3  H   UNL     1     -10.794  19.709  67.210  1.00  0.00     0.000 HD 
HETATM    4  C   UNL     1      -9.923  17.193  69.051  1.00  0.00    -0.273 C  
HETATM    5  C   UNL     1      -9.489  16.146  67.981  1.00  0.00    -0.211 C  
HETATM    6  O   UNL     1     -11.281  17.062  69.510  1.00  0.00    -0.256 OA 
HETATM    7  O   UNL     1      -6.810  19.008  65.235  1.00  0.00    -0.451 OA 
HETATM    8  H   UNL     1     -11.356  16.179  69.852  1.00  0.00     0.000 HD 
HETATM    9  O   UNL     1      -8.187  16.479  67.445  1.00  0.00    -0.156 OA 
HETATM   10  C   UNL     1      -8.238  17.758  66.775  1.00  0.00    -0.250 C  
HETATM   11  O   UNL     1      -6.137  16.962  65.932  1.00  0.00     0.009 OA 
HETATM   12  P   UNL     1      -7.067  19.070  69.022  1.00  0.00    -0.265 P  
HETATM   13  C   UNL     1      -8.471  18.884  67.788  1.00  0.00    -0.284 C  
HETATM   14  C   UNL     1      -7.006  18.009  65.909  1.00  0.00    -0.284 C  
ENDROOT
BRANCH   5  15
HETATM   15  O   UNL     1      -9.429  14.795  68.481  1.00  0.00    -0.201 OA 
BRANCH  15  16
HETATM   16  C   UNL     1     -10.594  13.960  68.246  1.00  0.00    -0.257 C  
HETATM   17  O   UNL     1     -11.883  15.667  66.990  1.00  0.00     0.137 OA 
HETATM   18  C   UNL     1     -11.353  14.331  66.961  1.00  0.00    -0.341 C  
HETATM   19  C   UNL     1     -10.395  14.168  65.784  1.00  0.00    -0.325 C  
HETATM   20  O   UNL     1     -10.994  14.763  64.628  1.00  0.00    -0.533 OA 
HETATM   21  H   UNL     1     -12.351  15.897  66.196  1.00  0.00     0.000 HD 
HETATM   22  C   UNL     1     -10.044  12.670  65.659  1.00  0.00    -0.272 C  
HETATM   23  O   UNL     1      -9.474  12.164  66.880  1.00  0.00    -0.199 OA 
HETATM   24  O   UNL     1     -11.173  11.854  65.325  1.00  0.00    -0.317 OA 
HETATM   25  H   UNL     1     -10.398  14.662  63.895  1.00  0.00     0.000 HD 
HETATM   26  C   UNL     1     -10.135  12.488  68.116  1.00  0.00    -0.225 C  
HETATM   27  P   UNL     1     -11.742  11.862  63.803  1.00  0.00    -0.359 P  
HETATM   28  C   UNL     1     -11.300  11.558  68.502  1.00  0.00    -0.277 C  
HETATM   29  O   UNL     1     -11.451  10.495  67.684  1.00  0.00    -0.444 OA 
HETATM   30  O   UNL     1     -12.030  11.732  69.468  1.00  0.00    -0.302 OA 
ENDBRANCH  15  16
ENDBRANCH   5  15
TORSDOF 2
ENDMDL
MODEL       79
REMARK 921   NORMALIZED FREE ENERGY PREDICTED BY IDOCK:   -5.50 KCAL/MOL
REMARK 922        TOTAL FREE ENERGY PREDICTED BY IDOCK:   -6.85 KCAL/MOL
REMARK 923 INTER-LIGAND FREE ENERGY PREDICTED BY IDOCK:   -6.46 KCAL/MOL
REMARK 924 INTRA-LIGAND FREE ENERGY PREDICTED BY IDOCK:   -0.39 KCAL/MOL
REMARK 927      BINDING AFFINITY PREDICTED BY RF-SCORE:    0.00 PKD
ROOT
HETATM    1  O   UNL     1     -12.089  12.085  69.144  1.00  0.00    -0.274 OA 
HETATM    2  C   UNL     1     -10.863  12.470  68.491  1.00  0.00    -0.243 C  
HETATM    3  H   UNL     1     -12.604  12.870  69.288  1.00  0.00     0.000 HD 
HETATM    4  C   UNL     1     -10.031  11.200  68.257  1.00  0.00    -0.187 C  
HETATM    5  C   UNL     1     -10.645  10.337  67.112  1.00  0.00    -0.260 C  
HETATM    6  O   UNL     1      -9.950  10.541  69.534  1.00  0.00    -0.301 OA 
HETATM    7  O   UNL     1     -13.157  13.765  64.911  1.00  0.00    -0.716 OA 
HETATM    8  H   UNL     1      -9.435   9.756  69.390  1.00  0.00     0.000 HD 
HETATM    9  O   UNL     1     -10.863  11.143  65.931  1.00  0.00    -0.240 OA 
HETATM   10  C   UNL     1     -11.815  12.193  66.215  1.00  0.00    -0.246 C  
HETATM   11  O   UNL     1     -11.817  12.305  63.817  1.00  0.00    -0.413 OA 
HETATM   12  P   UNL     1      -9.728  14.117  66.503  1.00  0.00    -0.297 P  
HETATM   13  C   UNL     1     -11.217  13.207  67.196  1.00  0.00    -0.294 C  
HETATM   14  C   UNL     1     -12.338  12.859  64.946  1.00  0.00    -0.475 C  
ENDROOT
BRANCH   5  15
HETATM   15  O   UNL     1      -9.830   9.209  66.734  1.00  0.00    -0.187 OA 
BRANCH  15  16
HETATM   16  C   UNL     1      -9.718   8.131  67.701  1.00  0.00    -0.159 C  
HETATM   17  O   UNL     1     -11.427   6.670  66.655  1.00  0.00    -0.709 OA 
HETATM   18  C   UNL     1     -10.068   6.755  67.113  1.00  0.00    -0.190 C  
HETATM   19  C   UNL     1      -9.104   6.475  65.963  1.00  0.00    -0.086 C  
HETATM   20  O   UNL     1      -9.583   5.336  65.239  1.00  0.00    -0.354 OA 
HETATM   21  H   UNL     1     -11.644   5.820  66.291  1.00  0.00     0.000 HD 
HETATM   22  C   UNL     1      -7.683   6.343  66.552  1.00  0.00    -0.099 C  
HETATM   23  O   UNL     1      -7.309   7.527  67.281  1.00  0.00    -0.093 OA 
HETATM   24  O   UNL     1      -7.540   5.219  67.429  1.00  0.00    -0.086 OA 
HETATM   25  H   UNL     1      -8.983   5.162  64.523  1.00  0.00     0.000 HD 
HETATM   26  C   UNL     1      -8.259   8.071  68.214  1.00  0.00    -0.123 C  
HETATM   27  P   UNL     1      -7.433   3.725  66.800  1.00  0.00    -0.081 P  
HETATM   28  C   UNL     1      -8.241   7.436  69.617  1.00  0.00    -0.130 C  
HETATM   29  O   UNL     1      -7.246   6.545  69.805  1.00  0.00    -0.073 OA 
HETATM   30  O   UNL     1      -9.034   7.710  70.507  1.00  0.00    -0.148 OA 
ENDBRANCH  15  16
ENDBRANCH   5  15
TORSDOF 2
ENDMDL
MODEL       80
REMARK 921   NORMALIZED FREE ENERGY PREDICTED BY IDOCK:   -5.48 KCAL/MOL
REMARK 922        TOTAL FREE ENERGY PREDICTED BY IDOCK:   -6.83 KCAL/MOL
REMARK 923 INTER-LIGAND FREE ENERGY PREDICTED BY IDOCK:   -6.89 KCAL/MOL
REMARK 924 INTRA-LIGAND FREE ENERGY PREDICTED BY IDOCK:    0.06 KCAL/MOL
REMARK 927      BINDING AFFINITY PREDICTED BY RF-SCORE:    0.00 PKD
ROOT
HETATM    1  O   UNL     1      -6.155  17.761  70.210  1.00  0.00    -0.141 OA 
HETATM    2  C   UNL     1      -6.017  17.215  68.883  1.00  0.00    -0.163 C  
HETATM    3  H   UNL     1      -5.442  18.371  70.353  1.00  0.00     0.000 HD 
HETATM    4  C   UNL     1      -7.171  16.227  68.654  1.00  0.00    -0.166 C  
HETATM    5  C   UNL     1      -8.519  16.986  68.455  1.00  0.00    -0.239 C  
HETATM    6  O   UNL     1      -7.144  15.323  69.773  1.00  0.00    -0.186 OA 
HETATM    7  O   UNL     1      -6.753  21.234  67.136  1.00  0.00    -0.455 OA 
HETATM    8  H   UNL     1      -7.858  14.712  69.630  1.00  0.00     0.000 HD 
HETATM    9  O   UNL     1      -8.382  18.005  67.436  1.00  0.00    -0.228 OA 
HETATM   10  C   UNL     1      -7.409  18.991  67.848  1.00  0.00    -0.245 C  
HETATM   11  O   UNL     1      -8.433  20.188  66.038  1.00  0.00    -0.286 OA 
HETATM   12  P   UNL     1      -5.401  17.813  66.197  1.00  0.00    -0.195 P  
HETATM   13  C   UNL     1      -6.005  18.375  67.884  1.00  0.00    -0.179 C  
HETATM   14  C   UNL     1      -7.462  20.251  66.989  1.00  0.00    -0.292 C  
ENDROOT
BRANCH   5  15
HETATM   15  O   UNL     1      -9.617  16.130  68.080  1.00  0.00    -0.217 OA 
BRANCH  15  16
HETATM   16  C   UNL     1      -9.777  15.857  66.662  1.00  0.00    -0.253 C  
HETATM   17  O   UNL     1      -7.547  14.818  66.349  1.00  0.00    -0.016 OA 
HETATM   18  C   UNL     1      -8.964  14.642  66.188  1.00  0.00     0.025 C  
HETATM   19  C   UNL     1      -9.438  13.421  66.972  1.00  0.00    -0.247 C  
HETATM   20  O   UNL     1      -8.517  12.350  66.741  1.00  0.00    -0.297 OA 
HETATM   21  H   UNL     1      -7.044  14.067  66.056  1.00  0.00     0.000 HD 
HETATM   22  C   UNL     1     -10.904  13.140  66.577  1.00  0.00    -0.280 C  
HETATM   23  O   UNL     1     -11.740  14.286  66.823  1.00  0.00    -0.370 OA 
HETATM   24  O   UNL     1     -11.054  12.769  65.201  1.00  0.00    -0.282 OA 
HETATM   25  H   UNL     1      -8.812  11.591  67.229  1.00  0.00     0.000 HD 
HETATM   26  C   UNL     1     -11.270  15.570  66.375  1.00  0.00    -0.098 C  
HETATM   27  P   UNL     1     -10.624  11.276  64.725  1.00  0.00    -0.259 P  
HETATM   28  C   UNL     1     -11.576  15.905  64.904  1.00  0.00    -0.058 C  
HETATM   29  O   UNL     1     -12.354  14.995  64.282  1.00  0.00    -0.561 OA 
HETATM   30  O   UNL     1     -11.179  16.908  64.328  1.00  0.00    -1.204 OA 
ENDBRANCH  15  16
ENDBRANCH   5  15
TORSDOF 2
ENDMDL
MODEL       81
REMARK 921   NORMALIZED FREE ENERGY PREDICTED BY IDOCK:   -5.47 KCAL/MOL
REMARK 922        TOTAL FREE ENERGY PREDICTED BY IDOCK:   -6.82 KCAL/MOL
REMARK 923 INTER-LIGAND FREE ENERGY PREDICTED BY IDOCK:   -6.23 KCAL/MOL
REMARK 924 INTRA-LIGAND FREE ENERGY PREDICTED BY IDOCK:   -0.59 KCAL/MOL
REMARK 927      BINDING AFFINITY PREDICTED BY RF-SCORE:    0.00 PKD
ROOT
HETATM    1  O   UNL     1     -11.900  14.299  66.094  1.00  0.00    -0.378 OA 
HETATM    2  C   UNL     1     -12.088  13.970  67.485  1.00  0.00    -0.326 C  
HETATM    3  H   UNL     1     -12.246  15.171  65.948  1.00  0.00     0.000 HD 
HETATM    4  C   UNL     1     -11.528  12.559  67.719  1.00  0.00    -0.321 C  
HETATM    5  C   UNL     1      -9.969  12.568  67.690  1.00  0.00    -0.201 C  
HETATM    6  O   UNL     1     -12.148  11.720  66.728  1.00  0.00    -0.547 OA 
HETATM    7  O   UNL     1      -9.269  17.205  68.645  1.00  0.00    -0.257 OA 
HETATM    8  H   UNL     1     -11.802  10.847  66.873  1.00  0.00     0.000 HD 
HETATM    9  O   UNL     1      -9.451  13.581  68.584  1.00  0.00    -0.166 OA 
HETATM   10  C   UNL     1      -9.881  14.891  68.152  1.00  0.00    -0.218 C  
HETATM   11  O   UNL     1      -8.156  15.535  69.692  1.00  0.00    -0.218 OA 
HETATM   12  P   UNL     1     -11.942  14.951  70.125  1.00  0.00    -0.364 P  
HETATM   13  C   UNL     1     -11.395  15.043  68.330  1.00  0.00    -0.309 C  
HETATM   14  C   UNL     1      -9.105  16.011  68.840  1.00  0.00    -0.235 C  
ENDROOT
BRANCH   5  15
HETATM   15  O   UNL     1      -9.374  11.307  68.057  1.00  0.00    -0.156 OA 
BRANCH  15  16
HETATM   16  C   UNL     1     -10.254  10.320  68.658  1.00  0.00    -0.180 C  
HETATM   17  O   UNL     1     -10.471   8.904  66.633  1.00  0.00    -0.249 OA 
HETATM   18  C   UNL     1     -10.117   8.926  68.026  1.00  0.00    -0.195 C  
HETATM   19  C   UNL     1      -8.674   8.464  68.211  1.00  0.00    -0.143 C  
HETATM   20  O   UNL     1      -8.464   7.302  67.400  1.00  0.00    -0.118 OA 
HETATM   21  H   UNL     1     -10.387   8.043  66.242  1.00  0.00     0.000 HD 
HETATM   22  C   UNL     1      -8.423   8.278  69.723  1.00  0.00    -0.128 C  
HETATM   23  O   UNL     1      -8.688   9.492  70.449  1.00  0.00    -0.217 OA 
HETATM   24  O   UNL     1      -9.216   7.234  70.301  1.00  0.00    -0.155 OA 
HETATM   25  H   UNL     1      -7.566   7.015  67.515  1.00  0.00     0.000 HD 
HETATM   26  C   UNL     1      -9.910  10.195  70.161  1.00  0.00    -0.053 C  
HETATM   27  P   UNL     1      -8.815   5.683  70.029  1.00  0.00    -0.132 P  
HETATM   28  C   UNL     1     -11.151   9.696  70.925  1.00  0.00    -0.352 C  
HETATM   29  O   UNL     1     -10.885   8.752  71.851  1.00  0.00    -0.314 OA 
HETATM   30  O   UNL     1     -12.286  10.114  70.743  1.00  0.00    -0.298 OA 
ENDBRANCH  15  16
ENDBRANCH   5  15
TORSDOF 2
ENDMDL
MODEL       82
REMARK 921   NORMALIZED FREE ENERGY PREDICTED BY IDOCK:   -5.45 KCAL/MOL
REMARK 922        TOTAL FREE ENERGY PREDICTED BY IDOCK:   -6.79 KCAL/MOL
REMARK 923 INTER-LIGAND FREE ENERGY PREDICTED BY IDOCK:   -6.18 KCAL/MOL
REMARK 924 INTRA-LIGAND FREE ENERGY PREDICTED BY IDOCK:   -0.61 KCAL/MOL
REMARK 927      BINDING AFFINITY PREDICTED BY RF-SCORE:    0.00 PKD
ROOT
HETATM    1  O   UNL     1      -8.596   7.201  69.342  1.00  0.00    -0.132 OA 
HETATM    2  C   UNL     1      -9.582   6.682  68.427  1.00  0.00    -0.123 C  
HETATM    3  H   UNL     1      -8.086   6.471  69.671  1.00  0.00     0.000 HD 
HETATM    4  C   UNL     1     -10.406   7.865  67.896  1.00  0.00    -0.221 C  
HETATM    5  C   UNL     1      -9.574   8.713  66.887  1.00  0.00    -0.194 C  
HETATM    6  O   UNL     1     -10.861   8.581  69.058  1.00  0.00    -0.402 OA 
HETATM    7  O   UNL     1      -6.353   5.392  65.659  1.00  0.00    -0.033 OA 
HETATM    8  H   UNL     1     -11.371   9.312  68.730  1.00  0.00     0.000 HD 
HETATM    9  O   UNL     1      -9.002   7.865  65.863  1.00  0.00    -0.168 OA 
HETATM   10  C   UNL     1      -8.089   6.915  66.457  1.00  0.00    -0.111 C  
HETATM   11  O   UNL     1      -7.455   6.676  64.155  1.00  0.00    -0.081 OA 
HETATM   12  P   UNL     1     -10.047   4.843  66.341  1.00  0.00    -0.280 P  
HETATM   13  C   UNL     1      -8.854   5.909  67.324  1.00  0.00    -0.106 C  
HETATM   14  C   UNL     1      -7.210   6.227  65.416  1.00  0.00    -0.070 C  
ENDROOT
BRANCH   5  15
HETATM   15  O   UNL     1     -10.335   9.747  66.231  1.00  0.00    -0.235 OA 
BRANCH  15  16
HETATM   16  C   UNL     1      -9.852  11.108  66.383  1.00  0.00    -0.211 C  
HETATM   17  O   UNL     1      -8.953  11.320  64.081  1.00  0.00    -0.387 OA 
HETATM   18  C   UNL     1      -9.834  11.893  65.062  1.00  0.00    -0.209 C  
HETATM   19  C   UNL     1     -11.262  11.944  64.524  1.00  0.00    -0.319 C  
HETATM   20  O   UNL     1     -11.220  12.428  63.177  1.00  0.00    -0.673 OA 
HETATM   21  H   UNL     1      -8.942  11.805  63.265  1.00  0.00     0.000 HD 
HETATM   22  C   UNL     1     -12.113  12.775  65.508  1.00  0.00    -0.465 C  
HETATM   23  O   UNL     1     -12.066  12.222  66.836  1.00  0.00    -0.583 OA 
HETATM   24  O   UNL     1     -11.704  14.147  65.585  1.00  0.00    -0.338 OA 
HETATM   25  H   UNL     1     -12.109  12.459  62.843  1.00  0.00     0.000 HD 
HETATM   26  C   UNL     1     -10.779  11.860  67.368  1.00  0.00    -0.232 C  
HETATM   27  P   UNL     1     -12.084  15.162  64.375  1.00  0.00     0.046 P  
HETATM   28  C   UNL     1      -9.994  13.008  68.029  1.00  0.00    -0.233 C  
HETATM   29  O   UNL     1     -10.683  14.163  68.124  1.00  0.00    -0.237 OA 
HETATM   30  O   UNL     1      -8.852  12.906  68.454  1.00  0.00    -0.182 OA 
ENDBRANCH  15  16
ENDBRANCH   5  15
TORSDOF 2
ENDMDL
MODEL       83
REMARK 921   NORMALIZED FREE ENERGY PREDICTED BY IDOCK:   -5.44 KCAL/MOL
REMARK 922        TOTAL FREE ENERGY PREDICTED BY IDOCK:   -6.79 KCAL/MOL
REMARK 923 INTER-LIGAND FREE ENERGY PREDICTED BY IDOCK:   -6.16 KCAL/MOL
REMARK 924 INTRA-LIGAND FREE ENERGY PREDICTED BY IDOCK:   -0.63 KCAL/MOL
REMARK 927      BINDING AFFINITY PREDICTED BY RF-SCORE:    0.00 PKD
ROOT
HETATM    1  O   UNL     1      -6.728   7.587  70.675  1.00  0.00    -0.042 OA 
HETATM    2  C   UNL     1      -7.844   8.081  71.442  1.00  0.00    -0.094 C  
HETATM    3  H   UNL     1      -6.489   6.734  71.018  1.00  0.00     0.000 HD 
HETATM    4  C   UNL     1      -8.229   9.460  70.887  1.00  0.00    -0.051 C  
HETATM    5  C   UNL     1      -8.937   9.324  69.504  1.00  0.00    -0.152 C  
HETATM    6  O   UNL     1      -7.014  10.232  70.872  1.00  0.00    -0.368 OA 
HETATM    7  O   UNL     1     -10.385   4.779  69.894  1.00  0.00    -0.238 OA 
HETATM    8  H   UNL     1      -7.253  11.085  70.529  1.00  0.00     0.000 HD 
HETATM    9  O   UNL     1     -10.029   8.378  69.585  1.00  0.00    -0.185 OA 
HETATM   10  C   UNL     1      -9.525   7.066  69.923  1.00  0.00    -0.157 C  
HETATM   11  O   UNL     1     -11.731   6.460  69.196  1.00  0.00    -0.217 OA 
HETATM   12  P   UNL     1     -10.296   7.388  72.651  1.00  0.00    -0.303 P  
HETATM   13  C   UNL     1      -8.979   7.055  71.355  1.00  0.00    -0.139 C  
HETATM   14  C   UNL     1     -10.563   5.971  69.695  1.00  0.00    -0.300 C  
ENDROOT
BRANCH   5  15
HETATM   15  O   UNL     1      -9.465  10.566  68.997  1.00  0.00    -0.187 OA 
BRANCH  15  16
HETATM   16  C   UNL     1     -10.112  10.518  67.697  1.00  0.00    -0.179 C  
HETATM   17  O   UNL     1     -12.403  10.966  68.535  1.00  0.00    -0.807 OA 
HETATM   18  C   UNL     1     -11.377  11.388  67.621  1.00  0.00    -0.290 C  
HETATM   19  C   UNL     1     -10.975  12.832  67.908  1.00  0.00    -0.234 C  
HETATM   20  O   UNL     1     -12.165  13.602  68.107  1.00  0.00    -0.370 OA 
HETATM   21  H   UNL     1     -13.185  11.503  68.488  1.00  0.00     0.000 HD 
HETATM   22  C   UNL     1     -10.055  13.308  66.763  1.00  0.00    -0.258 C  
HETATM   23  O   UNL     1      -8.904  12.453  66.628  1.00  0.00    -0.208 OA 
HETATM   24  O   UNL     1     -10.719  13.360  65.494  1.00  0.00    -0.283 OA 
HETATM   25  H   UNL     1     -11.915  14.500  68.286  1.00  0.00     0.000 HD 
HETATM   26  C   UNL     1      -9.119  11.031  66.626  1.00  0.00    -0.166 C  
HETATM   27  P   UNL     1     -11.756  14.572  65.184  1.00  0.00    -0.364 P  
HETATM   28  C   UNL     1      -9.488  10.423  65.261  1.00  0.00    -0.237 C  
HETATM   29  O   UNL     1      -9.432  11.298  64.235  1.00  0.00    -0.225 OA 
HETATM   30  O   UNL     1      -9.791   9.251  65.088  1.00  0.00    -0.101 OA 
ENDBRANCH  15  16
ENDBRANCH   5  15
TORSDOF 2
ENDMDL
MODEL       84
REMARK 921   NORMALIZED FREE ENERGY PREDICTED BY IDOCK:   -5.43 KCAL/MOL
REMARK 922        TOTAL FREE ENERGY PREDICTED BY IDOCK:   -6.78 KCAL/MOL
REMARK 923 INTER-LIGAND FREE ENERGY PREDICTED BY IDOCK:   -5.85 KCAL/MOL
REMARK 924 INTRA-LIGAND FREE ENERGY PREDICTED BY IDOCK:   -0.93 KCAL/MOL
REMARK 927      BINDING AFFINITY PREDICTED BY RF-SCORE:    0.00 PKD
ROOT
HETATM    1  O   UNL     1      -8.538  12.251  66.136  1.00  0.00    -0.399 OA 
HETATM    2  C   UNL     1      -9.923  12.120  65.756  1.00  0.00    -0.249 C  
HETATM    3  H   UNL     1      -8.235  13.105  65.850  1.00  0.00     0.000 HD 
HETATM    4  C   UNL     1     -10.413  10.739  66.219  1.00  0.00    -0.226 C  
HETATM    5  C   UNL     1     -10.591  10.704  67.767  1.00  0.00    -0.236 C  
HETATM    6  O   UNL     1      -9.466   9.790  65.696  1.00  0.00    -0.205 OA 
HETATM    7  O   UNL     1     -11.014  15.408  68.540  1.00  0.00    -0.254 OA 
HETATM    8  H   UNL     1      -9.770   8.936  65.982  1.00  0.00     0.000 HD 
HETATM    9  O   UNL     1     -11.406  11.815  68.210  1.00  0.00    -0.236 OA 
HETATM   10  C   UNL     1     -10.752  13.066  67.897  1.00  0.00    -0.235 C  
HETATM   11  O   UNL     1     -12.411  13.868  69.435  1.00  0.00    -0.329 OA 
HETATM   12  P   UNL     1     -12.407  13.446  65.604  1.00  0.00    -0.443 P  
HETATM   13  C   UNL     1     -10.705  13.279  66.380  1.00  0.00    -0.285 C  
HETATM   14  C   UNL     1     -11.384  14.248  68.625  1.00  0.00    -0.275 C  
ENDROOT
BRANCH   5  15
HETATM   15  O   UNL     1     -11.196   9.489  68.255  1.00  0.00    -0.066 OA 
BRANCH  15  16
HETATM   16  C   UNL     1     -10.468   8.763  69.280  1.00  0.00    -0.219 C  
HETATM   17  O   UNL     1     -12.008   6.821  69.361  1.00  0.00    -0.573 OA 
HETATM   18  C   UNL     1     -10.645   7.239  69.181  1.00  0.00    -0.208 C  
HETATM   19  C   UNL     1     -10.132   6.793  67.814  1.00  0.00    -0.154 C  
HETATM   20  O   UNL     1     -10.535   5.436  67.602  1.00  0.00    -0.196 OA 
HETATM   21  H   UNL     1     -12.118   5.879  69.300  1.00  0.00     0.000 HD 
HETATM   22  C   UNL     1      -8.611   7.054  67.768  1.00  0.00    -0.122 C  
HETATM   23  O   UNL     1      -8.311   8.439  68.020  1.00  0.00    -0.125 OA 
HETATM   24  O   UNL     1      -7.875   6.263  68.709  1.00  0.00    -0.099 OA 
HETATM   25  H   UNL     1     -10.216   5.159  66.751  1.00  0.00     0.000 HD 
HETATM   26  C   UNL     1      -8.959   9.075  69.136  1.00  0.00    -0.140 C  
HETATM   27  P   UNL     1      -7.629   4.685  68.406  1.00  0.00    -0.069 P  
HETATM   28  C   UNL     1      -8.268   8.878  70.498  1.00  0.00    -0.145 C  
HETATM   29  O   UNL     1      -7.081   8.240  70.427  1.00  0.00    -0.037 OA 
HETATM   30  O   UNL     1      -8.722   9.270  71.564  1.00  0.00    -0.323 OA 
ENDBRANCH  15  16
ENDBRANCH   5  15
TORSDOF 2
ENDMDL
MODEL       85
REMARK 921   NORMALIZED FREE ENERGY PREDICTED BY IDOCK:   -5.40 KCAL/MOL
REMARK 922        TOTAL FREE ENERGY PREDICTED BY IDOCK:   -6.74 KCAL/MOL
REMARK 923 INTER-LIGAND FREE ENERGY PREDICTED BY IDOCK:   -5.93 KCAL/MOL
REMARK 924 INTRA-LIGAND FREE ENERGY PREDICTED BY IDOCK:   -0.81 KCAL/MOL
REMARK 927      BINDING AFFINITY PREDICTED BY RF-SCORE:    0.00 PKD
ROOT
HETATM    1  O   UNL     1     -12.218  10.896  68.376  1.00  0.00    -0.813 OA 
HETATM    2  C   UNL     1     -11.598  12.141  68.753  1.00  0.00    -0.327 C  
HETATM    3  H   UNL     1     -13.160  11.015  68.408  1.00  0.00     0.000 HD 
HETATM    4  C   UNL     1     -10.075  11.947  68.701  1.00  0.00    -0.177 C  
HETATM    5  C   UNL     1      -9.574  11.874  67.226  1.00  0.00    -0.177 C  
HETATM    6  O   UNL     1      -9.799  10.777  69.493  1.00  0.00    -0.406 OA 
HETATM    7  O   UNL     1     -13.258  14.087  65.118  1.00  0.00    -0.768 OA 
HETATM    8  H   UNL     1      -8.857  10.658  69.461  1.00  0.00     0.000 HD 
HETATM    9  O   UNL     1     -10.067  13.003  66.467  1.00  0.00    -0.258 OA 
HETATM   10  C   UNL     1     -11.511  12.975  66.416  1.00  0.00    -0.341 C  
HETATM   11  O   UNL     1     -11.092  14.581  64.683  1.00  0.00    -0.382 OA 
HETATM   12  P   UNL     1     -11.699  14.945  68.472  1.00  0.00    -0.251 P  
HETATM   13  C   UNL     1     -12.101  13.235  67.807  1.00  0.00    -0.237 C  
HETATM   14  C   UNL     1     -12.073  13.929  65.365  1.00  0.00    -0.408 C  
ENDROOT
BRANCH   5  15
HETATM   15  O   UNL     1      -8.138  11.849  67.100  1.00  0.00    -0.158 OA 
BRANCH  15  16
HETATM   16  C   UNL     1      -7.576  10.812  66.253  1.00  0.00    -0.142 C  
HETATM   17  O   UNL     1      -5.256  11.013  67.109  1.00  0.00    -0.039 OA 
HETATM   18  C   UNL     1      -6.356  10.117  66.880  1.00  0.00    -0.069 C  
HETATM   19  C   UNL     1      -6.801   9.480  68.194  1.00  0.00    -0.070 C  
HETATM   20  O   UNL     1      -5.634   9.068  68.914  1.00  0.00    -0.039 OA 
HETATM   21  H   UNL     1      -4.503  10.584  67.496  1.00  0.00     0.000 HD 
HETATM   22  C   UNL     1      -7.812   8.361  67.863  1.00  0.00    -0.107 C  
HETATM   23  O   UNL     1      -8.932   8.873  67.117  1.00  0.00    -0.125 OA 
HETATM   24  O   UNL     1      -7.236   7.285  67.114  1.00  0.00    -0.087 OA 
HETATM   25  H   UNL     1      -5.911   8.672  69.731  1.00  0.00     0.000 HD 
HETATM   26  C   UNL     1      -8.657   9.735  65.998  1.00  0.00    -0.135 C  
HETATM   27  P   UNL     1      -6.274   6.213  67.867  1.00  0.00    -0.034 P  
HETATM   28  C   UNL     1      -8.351   9.014  64.672  1.00  0.00    -0.172 C  
HETATM   29  O   UNL     1      -8.511   7.675  64.724  1.00  0.00    -0.080 OA 
HETATM   30  O   UNL     1      -8.010   9.580  63.643  1.00  0.00    -0.126 OA 
ENDBRANCH  15  16
ENDBRANCH   5  15
TORSDOF 2
ENDMDL
MODEL       86
REMARK 921   NORMALIZED FREE ENERGY PREDICTED BY IDOCK:   -5.36 KCAL/MOL
REMARK 922        TOTAL FREE ENERGY PREDICTED BY IDOCK:   -6.69 KCAL/MOL
REMARK 923 INTER-LIGAND FREE ENERGY PREDICTED BY IDOCK:   -6.00 KCAL/MOL
REMARK 924 INTRA-LIGAND FREE ENERGY PREDICTED BY IDOCK:   -0.70 KCAL/MOL
REMARK 927      BINDING AFFINITY PREDICTED BY RF-SCORE:    0.00 PKD
ROOT
HETATM    1  O   UNL     1      -8.156   5.969  65.719  1.00  0.00    -0.111 OA 
HETATM    2  C   UNL     1      -7.724   6.821  66.799  1.00  0.00    -0.106 C  
HETATM    3  H   UNL     1      -7.837   5.091  65.892  1.00  0.00     0.000 HD 
HETATM    4  C   UNL     1      -8.239   8.241  66.519  1.00  0.00    -0.106 C  
HETATM    5  C   UNL     1      -9.779   8.329  66.752  1.00  0.00    -0.239 C  
HETATM    6  O   UNL     1      -7.811   8.559  65.182  1.00  0.00    -0.103 OA 
HETATM    7  O   UNL     1     -10.274   4.541  69.636  1.00  0.00    -0.188 OA 
HETATM    8  H   UNL     1      -8.129   9.437  65.009  1.00  0.00     0.000 HD 
HETATM    9  O   UNL     1     -10.124   7.806  68.057  1.00  0.00    -0.171 OA 
HETATM   10  C   UNL     1      -9.772   6.406  68.140  1.00  0.00    -0.122 C  
HETATM   11  O   UNL     1     -11.191   6.566  70.069  1.00  0.00    -0.326 OA 
HETATM   12  P   UNL     1      -7.392   7.012  69.593  1.00  0.00    -0.089 P  
HETATM   13  C   UNL     1      -8.249   6.236  68.113  1.00  0.00    -0.115 C  
HETATM   14  C   UNL     1     -10.407   5.720  69.346  1.00  0.00    -0.262 C  
ENDROOT
BRANCH   5  15
HETATM   15  O   UNL     1     -10.305   9.668  66.659  1.00  0.00    -0.239 OA 
BRANCH  15  16
HETATM   16  C   UNL     1     -10.181  10.502  67.842  1.00  0.00    -0.183 C  
HETATM   17  O   UNL     1      -8.042  11.568  67.180  1.00  0.00    -0.144 OA 
HETATM   18  C   UNL     1      -9.401  11.801  67.584  1.00  0.00    -0.180 C  
HETATM   19  C   UNL     1     -10.144  12.592  66.511  1.00  0.00    -0.238 C  
HETATM   20  O   UNL     1      -9.297  13.660  66.070  1.00  0.00    -0.480 OA 
HETATM   21  H   UNL     1      -7.559  12.370  67.021  1.00  0.00     0.000 HD 
HETATM   22  C   UNL     1     -11.510  13.017  67.090  1.00  0.00    -0.331 C  
HETATM   23  O   UNL     1     -12.269  11.876  67.528  1.00  0.00    -0.510 OA 
HETATM   24  O   UNL     1     -11.395  13.923  68.195  1.00  0.00    -0.266 OA 
HETATM   25  H   UNL     1      -9.759  14.151  65.401  1.00  0.00     0.000 HD 
HETATM   26  C   UNL     1     -11.598  10.888  68.330  1.00  0.00    -0.276 C  
HETATM   27  P   UNL     1     -11.012  15.477  67.917  1.00  0.00    -0.317 P  
HETATM   28  C   UNL     1     -11.548  11.190  69.839  1.00  0.00    -0.337 C  
HETATM   29  O   UNL     1     -12.256  12.279  70.207  1.00  0.00    -0.319 OA 
HETATM   30  O   UNL     1     -10.945  10.511  70.659  1.00  0.00    -0.237 OA 
ENDBRANCH  15  16
ENDBRANCH   5  15
TORSDOF 2
ENDMDL
MODEL       87
REMARK 921   NORMALIZED FREE ENERGY PREDICTED BY IDOCK:   -5.35 KCAL/MOL
REMARK 922        TOTAL FREE ENERGY PREDICTED BY IDOCK:   -6.68 KCAL/MOL
REMARK 923 INTER-LIGAND FREE ENERGY PREDICTED BY IDOCK:   -5.94 KCAL/MOL
REMARK 924 INTRA-LIGAND FREE ENERGY PREDICTED BY IDOCK:   -0.74 KCAL/MOL
REMARK 927      BINDING AFFINITY PREDICTED BY RF-SCORE:    0.00 PKD
ROOT
HETATM    1  O   UNL     1      -6.990  12.503  67.052  1.00  0.00    -0.341 OA 
HETATM    2  C   UNL     1      -7.578  11.274  66.579  1.00  0.00    -0.111 C  
HETATM    3  H   UNL     1      -6.982  13.121  66.332  1.00  0.00     0.000 HD 
HETATM    4  C   UNL     1      -7.590  10.274  67.745  1.00  0.00    -0.089 C  
HETATM    5  C   UNL     1      -8.673  10.662  68.798  1.00  0.00    -0.157 C  
HETATM    6  O   UNL     1      -6.242  10.239  68.248  1.00  0.00    -0.048 OA 
HETATM    7  O   UNL     1     -11.465  13.346  65.985  1.00  0.00    -0.312 OA 
HETATM    8  H   UNL     1      -6.250   9.621  68.969  1.00  0.00     0.000 HD 
HETATM    9  O   UNL     1      -9.955  10.860  68.157  1.00  0.00    -0.165 OA 
HETATM   10  C   UNL     1      -9.878  11.957  67.219  1.00  0.00    -0.187 C  
HETATM   11  O   UNL     1     -12.263  11.735  67.362  1.00  0.00    -0.501 OA 
HETATM   12  P   UNL     1      -9.643  10.159  65.016  1.00  0.00    -0.315 P  
HETATM   13  C   UNL     1      -8.976  11.587  66.037  1.00  0.00    -0.176 C  
HETATM   14  C   UNL     1     -11.256  12.430  66.766  1.00  0.00    -0.310 C  
ENDROOT
BRANCH   5  15
HETATM   15  O   UNL     1      -8.847   9.682  69.841  1.00  0.00    -0.187 OA 
BRANCH  15  16
HETATM   16  C   UNL     1     -10.186   9.148  70.019  1.00  0.00    -0.204 C  
HETATM   17  O   UNL     1      -9.888   7.202  68.509  1.00  0.00    -0.148 OA 
HETATM   18  C   UNL     1     -10.256   7.623  69.833  1.00  0.00    -0.215 C  
HETATM   19  C   UNL     1      -9.337   6.980  70.868  1.00  0.00    -0.157 C  
HETATM   20  O   UNL     1      -9.183   5.595  70.536  1.00  0.00    -0.145 OA 
HETATM   21  H   UNL     1      -9.931   6.261  68.394  1.00  0.00     0.000 HD 
HETATM   22  C   UNL     1      -9.918   7.270  72.268  1.00  0.00    -0.169 C  
HETATM   23  O   UNL     1     -10.058   8.685  72.492  1.00  0.00    -0.280 OA 
HETATM   24  O   UNL     1     -11.196   6.659  72.485  1.00  0.00    -0.253 OA 
HETATM   25  H   UNL     1      -8.611   5.195  71.179  1.00  0.00     0.000 HD 
HETATM   26  C   UNL     1     -10.667   9.474  71.453  1.00  0.00    -0.278 C  
HETATM   27  P   UNL     1     -11.279   5.061  72.767  1.00  0.00    -0.130 P  
HETATM   28  C   UNL     1     -12.206   9.514  71.474  1.00  0.00    -0.386 C  
HETATM   29  O   UNL     1     -12.758   8.905  72.544  1.00  0.00    -0.390 OA 
HETATM   30  O   UNL     1     -12.892  10.058  70.621  1.00  0.00    -0.282 OA 
ENDBRANCH  15  16
ENDBRANCH   5  15
TORSDOF 2
ENDMDL
MODEL       88
REMARK 921   NORMALIZED FREE ENERGY PREDICTED BY IDOCK:   -5.32 KCAL/MOL
REMARK 922        TOTAL FREE ENERGY PREDICTED BY IDOCK:   -6.65 KCAL/MOL
REMARK 923 INTER-LIGAND FREE ENERGY PREDICTED BY IDOCK:   -5.86 KCAL/MOL
REMARK 924 INTRA-LIGAND FREE ENERGY PREDICTED BY IDOCK:   -0.79 KCAL/MOL
REMARK 927      BINDING AFFINITY PREDICTED BY RF-SCORE:    0.00 PKD
ROOT
HETATM    1  O   UNL     1     -12.859  10.867  69.309  1.00  0.00    -0.517 OA 
HETATM    2  C   UNL     1     -11.663  11.669  69.249  1.00  0.00    -0.331 C  
HETATM    3  H   UNL     1     -13.599  11.452  69.422  1.00  0.00     0.000 HD 
HETATM    4  C   UNL     1     -10.466  10.723  69.065  1.00  0.00    -0.215 C  
HETATM    5  C   UNL     1     -10.433  10.144  67.618  1.00  0.00    -0.245 C  
HETATM    6  O   UNL     1     -10.579   9.738  70.109  1.00  0.00    -0.243 OA 
HETATM    7  O   UNL     1     -13.064  13.504  65.451  1.00  0.00    -0.663 OA 
HETATM    8  H   UNL     1      -9.839   9.153  69.995  1.00  0.00     0.000 HD 
HETATM    9  O   UNL     1     -10.516  11.210  66.643  1.00  0.00    -0.232 OA 
HETATM   10  C   UNL     1     -11.773  11.911  66.780  1.00  0.00    -0.202 C  
HETATM   11  O   UNL     1     -11.095  12.743  64.633  1.00  0.00    -0.294 OA 
HETATM   12  P   UNL     1     -10.521  14.033  68.220  1.00  0.00    -0.253 P  
HETATM   13  C   UNL     1     -11.816  12.678  68.107  1.00  0.00    -0.315 C  
HETATM   14  C   UNL     1     -12.066  12.813  65.585  1.00  0.00    -0.459 C  
ENDROOT
BRANCH   5  15
HETATM   15  O   UNL     1      -9.251   9.371  67.328  1.00  0.00    -0.129 OA 
BRANCH  15  16
HETATM   16  C   UNL     1      -9.423   8.212  66.469  1.00  0.00    -0.221 C  
HETATM   17  O   UNL     1      -9.267   9.455  64.328  1.00  0.00    -0.412 OA 
HETATM   18  C   UNL     1      -8.736   8.367  65.103  1.00  0.00    -0.083 C  
HETATM   19  C   UNL     1      -7.243   8.571  65.346  1.00  0.00    -0.083 C  
HETATM   20  O   UNL     1      -6.637   8.984  64.116  1.00  0.00    -0.082 OA 
HETATM   21  H   UNL     1      -8.843   9.551  63.484  1.00  0.00     0.000 HD 
HETATM   22  C   UNL     1      -6.679   7.276  65.967  1.00  0.00    -0.053 C  
HETATM   23  O   UNL     1      -7.372   6.934  67.182  1.00  0.00    -0.085 OA 
HETATM   24  O   UNL     1      -6.753   6.150  65.084  1.00  0.00    -0.042 OA 
HETATM   25  H   UNL     1      -5.708   9.112  64.268  1.00  0.00     0.000 HD 
HETATM   26  C   UNL     1      -8.810   6.976  67.170  1.00  0.00    -0.121 C  
HETATM   27  P   UNL     1      -5.703   6.033  63.850  1.00  0.00    -0.022 P  
HETATM   28  C   UNL     1      -9.501   5.703  66.647  1.00  0.00    -0.147 C  
HETATM   29  O   UNL     1      -8.656   4.682  66.394  1.00  0.00    -0.113 OA 
HETATM   30  O   UNL     1     -10.708   5.592  66.484  1.00  0.00    -0.296 OA 
ENDBRANCH  15  16
ENDBRANCH   5  15
TORSDOF 2
ENDMDL
MODEL       89
REMARK 921   NORMALIZED FREE ENERGY PREDICTED BY IDOCK:   -5.32 KCAL/MOL
REMARK 922        TOTAL FREE ENERGY PREDICTED BY IDOCK:   -6.65 KCAL/MOL
REMARK 923 INTER-LIGAND FREE ENERGY PREDICTED BY IDOCK:   -6.77 KCAL/MOL
REMARK 924 INTRA-LIGAND FREE ENERGY PREDICTED BY IDOCK:    0.12 KCAL/MOL
REMARK 927      BINDING AFFINITY PREDICTED BY RF-SCORE:    0.00 PKD
ROOT
HETATM    1  O   UNL     1      -6.682  17.203  69.180  1.00  0.00    -0.219 OA 
HETATM    2  C   UNL     1      -6.800  17.636  67.811  1.00  0.00    -0.180 C  
HETATM    3  H   UNL     1      -6.392  17.944  69.699  1.00  0.00     0.000 HD 
HETATM    4  C   UNL     1      -7.268  16.437  66.972  1.00  0.00    -0.222 C  
HETATM    5  C   UNL     1      -8.770  16.120  67.247  1.00  0.00    -0.183 C  
HETATM    6  O   UNL     1      -6.357  15.365  67.275  1.00  0.00    -0.305 OA 
HETATM    7  O   UNL     1     -10.095  20.391  68.951  1.00  0.00    -0.165 OA 
HETATM    8  H   UNL     1      -6.647  14.624  66.756  1.00  0.00     0.000 HD 
HETATM    9  O   UNL     1      -9.575  17.313  67.100  1.00  0.00    -0.246 OA 
HETATM   10  C   UNL     1      -9.177  18.305  68.073  1.00  0.00    -0.290 C  
HETATM   11  O   UNL     1     -11.268  19.256  67.382  1.00  0.00    -0.344 OA 
HETATM   12  P   UNL     1      -7.657  19.724  66.119  1.00  0.00    -0.312 P  
HETATM   13  C   UNL     1      -7.768  18.822  67.763  1.00  0.00    -0.237 C  
HETATM   14  C   UNL     1     -10.192  19.437  68.195  1.00  0.00    -0.431 C  
ENDROOT
BRANCH   5  15
HETATM   15  O   UNL     1      -9.318  15.106  66.381  1.00  0.00    -0.261 OA 
BRANCH  15  16
HETATM   16  C   UNL     1      -9.136  13.726  66.795  1.00  0.00    -0.221 C  
HETATM   17  O   UNL     1      -8.550  14.240  69.149  1.00  0.00    -0.356 OA 
HETATM   18  C   UNL     1      -9.430  13.500  68.287  1.00  0.00    -0.212 C  
HETATM   19  C   UNL     1     -10.881  13.897  68.546  1.00  0.00    -0.259 C  
HETATM   20  O   UNL     1     -11.088  13.951  69.962  1.00  0.00    -0.467 OA 
HETATM   21  H   UNL     1      -8.731  14.101  70.071  1.00  0.00     0.000 HD 
HETATM   22  C   UNL     1     -11.789  12.915  67.776  1.00  0.00    -0.339 C  
HETATM   23  O   UNL     1     -11.483  12.916  66.369  1.00  0.00    -0.308 OA 
HETATM   24  O   UNL     1     -11.690  11.566  68.249  1.00  0.00    -0.385 OA 
HETATM   25  H   UNL     1     -11.990  14.198  70.124  1.00  0.00     0.000 HD 
HETATM   26  C   UNL     1     -10.101  12.830  65.981  1.00  0.00    -0.268 C  
HETATM   27  P   UNL     1     -12.409  11.156  69.647  1.00  0.00     0.012 P  
HETATM   28  C   UNL     1      -9.526  11.403  65.907  1.00  0.00    -0.228 C  
HETATM   29  O   UNL     1     -10.442  10.430  66.095  1.00  0.00    -0.225 OA 
HETATM   30  O   UNL     1      -8.352  11.144  65.682  1.00  0.00    -0.118 OA 
ENDBRANCH  15  16
ENDBRANCH   5  15
TORSDOF 2
ENDMDL
MODEL       90
REMARK 921   NORMALIZED FREE ENERGY PREDICTED BY IDOCK:   -5.29 KCAL/MOL
REMARK 922        TOTAL FREE ENERGY PREDICTED BY IDOCK:   -6.62 KCAL/MOL
REMARK 923 INTER-LIGAND FREE ENERGY PREDICTED BY IDOCK:   -6.01 KCAL/MOL
REMARK 924 INTRA-LIGAND FREE ENERGY PREDICTED BY IDOCK:   -0.61 KCAL/MOL
REMARK 927      BINDING AFFINITY PREDICTED BY RF-SCORE:    0.00 PKD
ROOT
HETATM    1  O   UNL     1     -10.464   9.054  72.176  1.00  0.00    -0.321 OA 
HETATM    2  C   UNL     1     -10.085   8.183  71.090  1.00  0.00    -0.184 C  
HETATM    3  H   UNL     1     -10.270   8.607  72.991  1.00  0.00     0.000 HD 
HETATM    4  C   UNL     1     -10.399   8.906  69.771  1.00  0.00    -0.207 C  
HETATM    5  C   UNL     1      -9.380  10.058  69.513  1.00  0.00    -0.229 C  
HETATM    6  O   UNL     1     -11.773   9.323  69.867  1.00  0.00    -0.455 OA 
HETATM    7  O   UNL     1      -5.822   8.495  72.308  1.00  0.00    -0.050 OA 
HETATM    8  H   UNL     1     -11.966   9.769  69.051  1.00  0.00     0.000 HD 
HETATM    9  O   UNL     1      -8.022   9.569  69.629  1.00  0.00    -0.095 OA 
HETATM   10  C   UNL     1      -7.778   9.093  70.972  1.00  0.00    -0.100 C  
HETATM   11  O   UNL     1      -5.514   9.214  70.184  1.00  0.00    -0.027 OA 
HETATM   12  P   UNL     1      -8.128   6.381  70.157  1.00  0.00    -0.123 P  
HETATM   13  C   UNL     1      -8.603   7.832  71.250  1.00  0.00    -0.120 C  
HETATM   14  C   UNL     1      -6.293   8.883  71.250  1.00  0.00    -0.063 C  
ENDROOT
BRANCH   5  15
HETATM   15  O   UNL     1      -9.519  10.678  68.219  1.00  0.00    -0.149 OA 
BRANCH  15  16
HETATM   16  C   UNL     1      -9.705  12.118  68.202  1.00  0.00    -0.208 C  
HETATM   17  O   UNL     1      -7.950  12.584  66.513  1.00  0.00    -0.393 OA 
HETATM   18  C   UNL     1      -9.335  12.758  66.854  1.00  0.00    -0.234 C  
HETATM   19  C   UNL     1     -10.227  12.142  65.780  1.00  0.00    -0.254 C  
HETATM   20  O   UNL     1      -9.716  12.522  64.497  1.00  0.00    -0.505 OA 
HETATM   21  H   UNL     1      -7.721  12.979  65.680  1.00  0.00     0.000 HD 
HETATM   22  C   UNL     1     -11.684  12.561  66.070  1.00  0.00    -0.417 C  
HETATM   23  O   UNL     1     -12.090  12.157  67.391  1.00  0.00    -0.553 OA 
HETATM   24  O   UNL     1     -11.897  13.973  65.954  1.00  0.00    -0.352 OA 
HETATM   25  H   UNL     1     -10.271  12.138  63.828  1.00  0.00     0.000 HD 
HETATM   26  C   UNL     1     -11.195  12.431  68.483  1.00  0.00    -0.279 C  
HETATM   27  P   UNL     1     -11.981  14.649  64.479  1.00  0.00    -0.337 P  
HETATM   28  C   UNL     1     -11.310  13.842  69.090  1.00  0.00    -0.281 C  
HETATM   29  O   UNL     1     -12.325  14.576  68.589  1.00  0.00    -0.176 OA 
HETATM   30  O   UNL     1     -10.572  14.279  69.962  1.00  0.00     0.107 OA 
ENDBRANCH  15  16
ENDBRANCH   5  15
TORSDOF 2
ENDMDL
MODEL       91
REMARK 921   NORMALIZED FREE ENERGY PREDICTED BY IDOCK:   -5.29 KCAL/MOL
REMARK 922        TOTAL FREE ENERGY PREDICTED BY IDOCK:   -6.61 KCAL/MOL
REMARK 923 INTER-LIGAND FREE ENERGY PREDICTED BY IDOCK:   -5.91 KCAL/MOL
REMARK 924 INTRA-LIGAND FREE ENERGY PREDICTED BY IDOCK:   -0.70 KCAL/MOL
REMARK 927      BINDING AFFINITY PREDICTED BY RF-SCORE:    0.00 PKD
ROOT
HETATM    1  O   UNL     1      -9.791   8.579  72.085  1.00  0.00    -0.268 OA 
HETATM    2  C   UNL     1     -10.469   8.329  70.837  1.00  0.00    -0.196 C  
HETATM    3  H   UNL     1      -9.685   7.748  72.533  1.00  0.00     0.000 HD 
HETATM    4  C   UNL     1     -10.640   9.672  70.112  1.00  0.00    -0.272 C  
HETATM    5  C   UNL     1      -9.278  10.172  69.541  1.00  0.00    -0.204 C  
HETATM    6  O   UNL     1     -11.260  10.557  71.063  1.00  0.00    -0.314 OA 
HETATM    7  O   UNL     1      -6.986   5.972  69.399  1.00  0.00    -0.059 OA 
HETATM    8  H   UNL     1     -11.365  11.387  70.614  1.00  0.00     0.000 HD 
HETATM    9  O   UNL     1      -8.647   9.135  68.754  1.00  0.00    -0.128 OA 
HETATM   10  C   UNL     1      -8.352   7.989  69.585  1.00  0.00    -0.126 C  
HETATM   11  O   UNL     1      -7.006   7.440  67.676  1.00  0.00    -0.074 OA 
HETATM   12  P   UNL     1     -10.648   6.599  68.618  1.00  0.00    -0.261 P  
HETATM   13  C   UNL     1      -9.649   7.310  70.039  1.00  0.00    -0.167 C  
HETATM   14  C   UNL     1      -7.398   7.011  68.907  1.00  0.00    -0.093 C  
ENDROOT
BRANCH   5  15
HETATM   15  O   UNL     1      -9.390  11.348  68.715  1.00  0.00    -0.179 OA 
BRANCH  15  16
HETATM   16  C   UNL     1     -10.014  11.175  67.415  1.00  0.00    -0.179 C  
HETATM   17  O   UNL     1     -12.343  11.507  68.203  1.00  0.00    -0.473 OA 
HETATM   18  C   UNL     1     -11.337  11.945  67.274  1.00  0.00    -0.329 C  
HETATM   19  C   UNL     1     -11.043  13.429  67.476  1.00  0.00    -0.274 C  
HETATM   20  O   UNL     1     -12.288  14.122  67.617  1.00  0.00    -0.567 OA 
HETATM   21  H   UNL     1     -13.160  11.982  68.116  1.00  0.00     0.000 HD 
HETATM   22  C   UNL     1     -10.144  13.900  66.312  1.00  0.00    -0.300 C  
HETATM   23  O   UNL     1      -8.934  13.124  66.241  1.00  0.00    -0.063 OA 
HETATM   24  O   UNL     1     -10.793  13.827  65.036  1.00  0.00    -0.329 OA 
HETATM   25  H   UNL     1     -12.105  15.045  67.743  1.00  0.00     0.000 HD 
HETATM   26  C   UNL     1      -9.046  11.692  66.324  1.00  0.00    -0.214 C  
HETATM   27  P   UNL     1     -11.909  14.941  64.644  1.00  0.00    -0.265 P  
HETATM   28  C   UNL     1      -9.353  10.978  64.995  1.00  0.00    -0.221 C  
HETATM   29  O   UNL     1      -9.346  11.791  63.918  1.00  0.00    -0.067 OA 
HETATM   30  O   UNL     1      -9.569   9.779  64.891  1.00  0.00    -0.290 OA 
ENDBRANCH  15  16
ENDBRANCH   5  15
TORSDOF 2
ENDMDL
MODEL       92
REMARK 921   NORMALIZED FREE ENERGY PREDICTED BY IDOCK:   -5.25 KCAL/MOL
REMARK 922        TOTAL FREE ENERGY PREDICTED BY IDOCK:   -6.57 KCAL/MOL
REMARK 923 INTER-LIGAND FREE ENERGY PREDICTED BY IDOCK:   -5.65 KCAL/MOL
REMARK 924 INTRA-LIGAND FREE ENERGY PREDICTED BY IDOCK:   -0.93 KCAL/MOL
REMARK 927      BINDING AFFINITY PREDICTED BY RF-SCORE:    0.00 PKD
ROOT
HETATM    1  O   UNL     1     -10.410  10.683  66.831  1.00  0.00    -0.217 OA 
HETATM    2  C   UNL     1      -8.995  10.635  66.558  1.00  0.00    -0.156 C  
HETATM    3  H   UNL     1     -10.735   9.790  66.857  1.00  0.00     0.000 HD 
HETATM    4  C   UNL     1      -8.471  12.078  66.516  1.00  0.00    -0.065 C  
HETATM    5  C   UNL     1      -8.412  12.690  67.949  1.00  0.00    -0.173 C  
HETATM    6  O   UNL     1      -9.323  12.780  65.593  1.00  0.00    -0.459 OA 
HETATM    7  O   UNL     1      -8.297   8.612  70.454  1.00  0.00    -0.112 OA 
HETATM    8  H   UNL     1      -8.999  13.673  65.567  1.00  0.00     0.000 HD 
HETATM    9  O   UNL     1      -7.694  11.811  68.846  1.00  0.00    -0.116 OA 
HETATM   10  C   UNL     1      -8.385  10.547  68.963  1.00  0.00    -0.154 C  
HETATM   11  O   UNL     1      -6.896  10.349  70.835  1.00  0.00    -0.317 OA 
HETATM   12  P   UNL     1      -6.580   9.301  67.139  1.00  0.00    -0.068 P  
HETATM   13  C   UNL     1      -8.325   9.780  67.638  1.00  0.00    -0.114 C  
HETATM   14  C   UNL     1      -7.874   9.713  70.134  1.00  0.00    -0.174 C  
ENDROOT
BRANCH   5  15
HETATM   15  O   UNL     1      -7.784  13.986  68.003  1.00  0.00    -0.121 OA 
BRANCH  15  16
HETATM   16  C   UNL     1      -8.527  15.044  68.665  1.00  0.00    -0.168 C  
HETATM   17  O   UNL     1      -6.694  16.714  68.614  1.00  0.00    -0.149 OA 
HETATM   18  C   UNL     1      -8.062  16.452  68.259  1.00  0.00    -0.171 C  
HETATM   19  C   UNL     1      -8.254  16.596  66.752  1.00  0.00    -0.239 C  
HETATM   20  O   UNL     1      -7.582  17.785  66.322  1.00  0.00    -0.256 OA 
HETATM   21  H   UNL     1      -6.406  17.584  68.363  1.00  0.00     0.000 HD 
HETATM   22  C   UNL     1      -9.769  16.541  66.457  1.00  0.00    -0.272 C  
HETATM   23  O   UNL     1     -10.353  15.322  66.952  1.00  0.00    -0.267 OA 
HETATM   24  O   UNL     1     -10.492  17.641  67.023  1.00  0.00    -0.336 OA 
HETATM   25  H   UNL     1      -7.701  17.874  65.384  1.00  0.00     0.000 HD 
HETATM   26  C   UNL     1     -10.023  14.913  68.291  1.00  0.00    -0.222 C  
HETATM   27  P   UNL     1     -10.395  19.105  66.325  1.00  0.00    -0.465 P  
HETATM   28  C   UNL     1     -10.880  15.547  69.402  1.00  0.00    -0.261 C  
HETATM   29  O   UNL     1     -11.903  16.299  68.947  1.00  0.00    -0.284 OA 
HETATM   30  O   UNL     1     -10.686  15.385  70.599  1.00  0.00    -0.312 OA 
ENDBRANCH  15  16
ENDBRANCH   5  15
TORSDOF 2
ENDMDL
MODEL       93
REMARK 921   NORMALIZED FREE ENERGY PREDICTED BY IDOCK:   -5.24 KCAL/MOL
REMARK 922        TOTAL FREE ENERGY PREDICTED BY IDOCK:   -6.57 KCAL/MOL
REMARK 923 INTER-LIGAND FREE ENERGY PREDICTED BY IDOCK:   -6.29 KCAL/MOL
REMARK 924 INTRA-LIGAND FREE ENERGY PREDICTED BY IDOCK:   -0.28 KCAL/MOL
REMARK 927      BINDING AFFINITY PREDICTED BY RF-SCORE:    0.00 PKD
ROOT
HETATM    1  O   UNL     1     -12.445  12.784  66.039  1.00  0.00    -0.540 OA 
HETATM    2  C   UNL     1     -12.196  13.375  67.330  1.00  0.00    -0.214 C  
HETATM    3  H   UNL     1     -12.898  13.426  65.505  1.00  0.00     0.000 HD 
HETATM    4  C   UNL     1     -11.463  12.337  68.194  1.00  0.00    -0.316 C  
HETATM    5  C   UNL     1      -9.985  12.169  67.725  1.00  0.00    -0.198 C  
HETATM    6  O   UNL     1     -12.258  11.139  68.130  1.00  0.00    -0.708 OA 
HETATM    7  O   UNL     1      -9.481  16.356  65.462  1.00  0.00    -0.467 OA 
HETATM    8  H   UNL     1     -11.805  10.497  68.664  1.00  0.00     0.000 HD 
HETATM    9  O   UNL     1      -9.331  13.457  67.640  1.00  0.00    -0.201 OA 
HETATM   10  C   UNL     1      -9.987  14.284  66.653  1.00  0.00    -0.275 C  
HETATM   11  O   UNL     1      -7.964  15.543  66.932  1.00  0.00    -0.224 OA 
HETATM   12  P   UNL     1     -11.396  15.719  68.678  1.00  0.00    -0.375 P  
HETATM   13  C   UNL     1     -11.396  14.664  67.124  1.00  0.00    -0.356 C  
HETATM   14  C   UNL     1      -9.157  15.507  66.277  1.00  0.00    -0.334 C  
ENDROOT
BRANCH   5  15
HETATM   15  O   UNL     1      -9.194  11.327  68.587  1.00  0.00    -0.179 OA 
BRANCH  15  16
HETATM   16  C   UNL     1      -9.020   9.946  68.169  1.00  0.00    -0.118 C  
HETATM   17  O   UNL     1      -6.548  10.041  67.997  1.00  0.00    -0.062 OA 
HETATM   18  C   UNL     1      -7.664   9.356  68.589  1.00  0.00    -0.084 C  
HETATM   19  C   UNL     1      -7.574   9.416  70.111  1.00  0.00    -0.130 C  
HETATM   20  O   UNL     1      -6.226   9.126  70.496  1.00  0.00    -0.039 OA 
HETATM   21  H   UNL     1      -5.710   9.677  68.255  1.00  0.00     0.000 HD 
HETATM   22  C   UNL     1      -8.652   8.474  70.690  1.00  0.00    -0.148 C  
HETATM   23  O   UNL     1      -9.965   8.833  70.222  1.00  0.00    -0.177 OA 
HETATM   24  O   UNL     1      -8.427   7.097  70.366  1.00  0.00    -0.136 OA 
HETATM   25  H   UNL     1      -6.170   9.164  71.443  1.00  0.00     0.000 HD 
HETATM   26  C   UNL     1     -10.132   9.086  68.816  1.00  0.00    -0.199 C  
HETATM   27  P   UNL     1      -7.266   6.272  71.148  1.00  0.00    -0.081 P  
HETATM   28  C   UNL     1     -10.376   7.837  67.948  1.00  0.00    -0.217 C  
HETATM   29  O   UNL     1     -10.523   6.697  68.653  1.00  0.00    -0.180 OA 
HETATM   30  O   UNL     1     -10.451   7.851  66.727  1.00  0.00    -0.327 OA 
ENDBRANCH  15  16
ENDBRANCH   5  15
TORSDOF 2
ENDMDL
MODEL       94
REMARK 921   NORMALIZED FREE ENERGY PREDICTED BY IDOCK:   -5.22 KCAL/MOL
REMARK 922        TOTAL FREE ENERGY PREDICTED BY IDOCK:   -6.54 KCAL/MOL
REMARK 923 INTER-LIGAND FREE ENERGY PREDICTED BY IDOCK:   -6.02 KCAL/MOL
REMARK 924 INTRA-LIGAND FREE ENERGY PREDICTED BY IDOCK:   -0.52 KCAL/MOL
REMARK 927      BINDING AFFINITY PREDICTED BY RF-SCORE:    0.00 PKD
ROOT
HETATM    1  O   UNL     1      -8.720   9.983  70.084  1.00  0.00    -0.329 OA 
HETATM    2  C   UNL     1     -10.144  10.038  69.866  1.00  0.00    -0.246 C  
HETATM    3  H   UNL     1      -8.526  10.465  70.879  1.00  0.00     0.000 HD 
HETATM    4  C   UNL     1     -10.459   9.258  68.581  1.00  0.00    -0.209 C  
HETATM    5  C   UNL     1     -10.318   7.723  68.815  1.00  0.00    -0.204 C  
HETATM    6  O   UNL     1      -9.589   9.798  67.569  1.00  0.00    -0.145 OA 
HETATM    7  O   UNL     1     -10.821   7.685  73.575  1.00  0.00    -0.340 OA 
HETATM    8  H   UNL     1      -9.784   9.315  66.775  1.00  0.00     0.000 HD 
HETATM    9  O   UNL     1     -11.084   7.315  69.974  1.00  0.00    -0.262 OA 
HETATM   10  C   UNL     1     -10.573   7.963  71.160  1.00  0.00    -0.213 C  
HETATM   11  O   UNL     1     -11.926   6.272  72.194  1.00  0.00    -0.329 OA 
HETATM   12  P   UNL     1     -12.674   9.893  71.104  1.00  0.00    -0.360 P  
HETATM   13  C   UNL     1     -10.844   9.471  71.105  1.00  0.00    -0.355 C  
HETATM   14  C   UNL     1     -11.106   7.330  72.442  1.00  0.00    -0.275 C  
ENDROOT
BRANCH   5  15
HETATM   15  O   UNL     1     -10.749   6.922  67.696  1.00  0.00    -0.230 OA 
BRANCH  15  16
HETATM   16  C   UNL     1     -10.366   5.521  67.711  1.00  0.00    -0.189 C  
HETATM   17  O   UNL     1     -11.460   4.935  65.563  1.00  0.00    -0.914 OA 
HETATM   18  C   UNL     1     -10.227   4.919  66.303  1.00  0.00    -0.279 C  
HETATM   19  C   UNL     1      -9.153   5.706  65.558  1.00  0.00    -0.059 C  
HETATM   20  O   UNL     1      -9.203   5.340  64.175  1.00  0.00    -0.355 OA 
HETATM   21  H   UNL     1     -11.374   4.563  64.693  1.00  0.00     0.000 HD 
HETATM   22  C   UNL     1      -7.804   5.461  66.266  1.00  0.00    -0.100 C  
HETATM   23  O   UNL     1      -7.867   5.835  67.655  1.00  0.00    -0.096 OA 
HETATM   24  O   UNL     1      -7.371   4.097  66.195  1.00  0.00    -0.077 OA 
HETATM   25  H   UNL     1      -8.534   5.830  63.711  1.00  0.00     0.000 HD 
HETATM   26  C   UNL     1      -8.998   5.385  68.422  1.00  0.00    -0.108 C  
HETATM   27  P   UNL     1      -6.760   3.524  64.802  1.00  0.00    -0.049 P  
HETATM   28  C   UNL     1      -8.872   3.967  69.010  1.00  0.00    -0.100 C  
HETATM   29  O   UNL     1      -7.662   3.400  68.826  1.00  0.00    -0.052 OA 
HETATM   30  O   UNL     1      -9.766   3.389  69.611  1.00  0.00    -0.144 OA 
ENDBRANCH  15  16
ENDBRANCH   5  15
TORSDOF 2
ENDMDL
MODEL       95
REMARK 921   NORMALIZED FREE ENERGY PREDICTED BY IDOCK:   -5.22 KCAL/MOL
REMARK 922        TOTAL FREE ENERGY PREDICTED BY IDOCK:   -6.54 KCAL/MOL
REMARK 923 INTER-LIGAND FREE ENERGY PREDICTED BY IDOCK:   -6.36 KCAL/MOL
REMARK 924 INTRA-LIGAND FREE ENERGY PREDICTED BY IDOCK:   -0.18 KCAL/MOL
REMARK 927      BINDING AFFINITY PREDICTED BY RF-SCORE:    0.00 PKD
ROOT
HETATM    1  O   UNL     1      -9.317  17.194  69.668  1.00  0.00     0.242 OA 
HETATM    2  C   UNL     1      -8.409  16.932  68.580  1.00  0.00    -0.257 C  
HETATM    3  H   UNL     1      -9.259  18.117  69.884  1.00  0.00     0.000 HD 
HETATM    4  C   UNL     1      -8.503  15.439  68.231  1.00  0.00    -0.159 C  
HETATM    5  C   UNL     1      -9.842  15.124  67.497  1.00  0.00    -0.220 C  
HETATM    6  O   UNL     1      -8.310  14.732  69.470  1.00  0.00    -0.380 OA 
HETATM    7  O   UNL     1     -10.833  19.529  65.910  1.00  0.00    -0.436 OA 
HETATM    8  H   UNL     1      -8.368  13.809  69.254  1.00  0.00     0.000 HD 
HETATM    9  O   UNL     1     -10.030  16.020  66.377  1.00  0.00    -0.262 OA 
HETATM   10  C   UNL     1     -10.124  17.385  66.843  1.00  0.00    -0.314 C  
HETATM   11  O   UNL     1     -10.947  17.680  64.608  1.00  0.00    -0.803 OA 
HETATM   12  P   UNL     1      -7.411  17.900  66.126  1.00  0.00    -0.233 P  
HETATM   13  C   UNL     1      -8.779  17.851  67.412  1.00  0.00    -0.237 C  
HETATM   14  C   UNL     1     -10.652  18.330  65.767  1.00  0.00    -0.186 C  
ENDROOT
BRANCH   5  15
HETATM   15  O   UNL     1      -9.930  13.772  67.002  1.00  0.00    -0.242 OA 
BRANCH  15  16
HETATM   16  C   UNL     1      -9.104  12.779  67.667  1.00  0.00    -0.193 C  
HETATM   17  O   UNL     1     -10.731  12.256  69.465  1.00  0.00    -0.449 OA 
HETATM   18  C   UNL     1      -9.925  11.711  68.407  1.00  0.00    -0.201 C  
HETATM   19  C   UNL     1     -10.807  11.001  67.383  1.00  0.00    -0.274 C  
HETATM   20  O   UNL     1     -11.763  10.201  68.088  1.00  0.00    -0.694 OA 
HETATM   21  H   UNL     1     -11.239  11.597  69.922  1.00  0.00     0.000 HD 
HETATM   22  C   UNL     1      -9.885  10.237  66.408  1.00  0.00    -0.217 C  
HETATM   23  O   UNL     1      -8.946  11.125  65.774  1.00  0.00    -0.198 OA 
HETATM   24  O   UNL     1      -9.144   9.187  67.041  1.00  0.00    -0.121 OA 
HETATM   25  H   UNL     1     -12.312   9.759  67.451  1.00  0.00     0.000 HD 
HETATM   26  C   UNL     1      -8.237  12.060  66.606  1.00  0.00    -0.056 C  
HETATM   27  P   UNL     1      -9.898   7.802  67.435  1.00  0.00    -0.218 P  
HETATM   28  C   UNL     1      -6.966  11.510  67.279  1.00  0.00    -0.125 C  
HETATM   29  O   UNL     1      -6.632  10.262  66.887  1.00  0.00    -0.072 OA 
HETATM   30  O   UNL     1      -6.290  12.132  68.086  1.00  0.00    -0.050 OA 
ENDBRANCH  15  16
ENDBRANCH   5  15
TORSDOF 2
ENDMDL
MODEL       96
REMARK 921   NORMALIZED FREE ENERGY PREDICTED BY IDOCK:   -5.18 KCAL/MOL
REMARK 922        TOTAL FREE ENERGY PREDICTED BY IDOCK:   -6.49 KCAL/MOL
REMARK 923 INTER-LIGAND FREE ENERGY PREDICTED BY IDOCK:   -6.01 KCAL/MOL
REMARK 924 INTRA-LIGAND FREE ENERGY PREDICTED BY IDOCK:   -0.48 KCAL/MOL
REMARK 927      BINDING AFFINITY PREDICTED BY RF-SCORE:    0.00 PKD
ROOT
HETATM    1  O   UNL     1      -7.204  15.572  69.527  1.00  0.00    -0.190 OA 
HETATM    2  C   UNL     1      -8.058  15.913  68.416  1.00  0.00    -0.149 C  
HETATM    3  H   UNL     1      -7.156  16.326  70.102  1.00  0.00     0.000 HD 
HETATM    4  C   UNL     1      -8.135  14.693  67.485  1.00  0.00    -0.184 C  
HETATM    5  C   UNL     1      -9.010  13.567  68.117  1.00  0.00    -0.187 C  
HETATM    6  O   UNL     1      -6.772  14.320  67.212  1.00  0.00    -0.364 OA 
HETATM    7  O   UNL     1     -11.528  16.256  71.172  1.00  0.00    -0.420 OA 
HETATM    8  H   UNL     1      -6.820  13.566  66.636  1.00  0.00     0.000 HD 
HETATM    9  O   UNL     1     -10.292  14.094  68.532  1.00  0.00    -0.238 OA 
HETATM   10  C   UNL     1     -10.109  15.099  69.555  1.00  0.00    -0.214 C  
HETATM   11  O   UNL     1     -12.465  14.716  69.803  1.00  0.00    -0.291 OA 
HETATM   12  P   UNL     1     -10.448  17.203  67.658  1.00  0.00    -0.315 P  
HETATM   13  C   UNL     1      -9.421  16.338  68.970  1.00  0.00    -0.258 C  
HETATM   14  C   UNL     1     -11.413  15.446  70.266  1.00  0.00    -0.316 C  
ENDROOT
BRANCH   5  15
HETATM   15  O   UNL     1      -9.253  12.456  67.232  1.00  0.00    -0.176 OA 
BRANCH  15  16
HETATM   16  C   UNL     1      -8.503  11.239  67.490  1.00  0.00    -0.131 C  
HETATM   17  O   UNL     1      -9.451  10.828  69.745  1.00  0.00    -0.397 OA 
HETATM   18  C   UNL     1      -9.231  10.272  68.438  1.00  0.00    -0.136 C  
HETATM   19  C   UNL     1     -10.561   9.892  67.794  1.00  0.00    -0.261 C  
HETATM   20  O   UNL     1     -11.360   9.217  68.772  1.00  0.00    -0.441 OA 
HETATM   21  H   UNL     1      -9.900  10.231  70.331  1.00  0.00     0.000 HD 
HETATM   22  C   UNL     1     -10.258   9.090  66.510  1.00  0.00    -0.248 C  
HETATM   23  O   UNL     1      -9.428   9.845  65.607  1.00  0.00    -0.196 OA 
HETATM   24  O   UNL     1      -9.608   7.840  66.768  1.00  0.00    -0.183 OA 
HETATM   25  H   UNL     1     -12.188   8.982  68.371  1.00  0.00     0.000 HD 
HETATM   26  C   UNL     1      -8.270  10.503  66.149  1.00  0.00    -0.151 C  
HETATM   27  P   UNL     1     -10.474   6.597  67.357  1.00  0.00    -0.350 P  
HETATM   28  C   UNL     1      -7.010   9.625  66.266  1.00  0.00    -0.092 C  
HETATM   29  O   UNL     1      -7.141   8.397  65.722  1.00  0.00    -0.070 OA 
HETATM   30  O   UNL     1      -5.963   9.989  66.783  1.00  0.00    -0.053 OA 
ENDBRANCH  15  16
ENDBRANCH   5  15
TORSDOF 2
ENDMDL
MODEL       97
REMARK 921   NORMALIZED FREE ENERGY PREDICTED BY IDOCK:   -5.15 KCAL/MOL
REMARK 922        TOTAL FREE ENERGY PREDICTED BY IDOCK:   -6.46 KCAL/MOL
REMARK 923 INTER-LIGAND FREE ENERGY PREDICTED BY IDOCK:   -6.11 KCAL/MOL
REMARK 924 INTRA-LIGAND FREE ENERGY PREDICTED BY IDOCK:   -0.35 KCAL/MOL
REMARK 927      BINDING AFFINITY PREDICTED BY RF-SCORE:    0.00 PKD
ROOT
HETATM    1  O   UNL     1     -10.262  16.188  65.239  1.00  0.00    -0.520 OA 
HETATM    2  C   UNL     1      -9.836  14.853  65.576  1.00  0.00    -0.313 C  
HETATM    3  H   UNL     1     -10.022  16.354  64.335  1.00  0.00     0.000 HD 
HETATM    4  C   UNL     1     -10.225  14.585  67.038  1.00  0.00    -0.262 C  
HETATM    5  C   UNL     1     -11.765  14.380  67.173  1.00  0.00    -0.400 C  
HETATM    6  O   UNL     1      -9.692  15.686  67.796  1.00  0.00    -0.217 OA 
HETATM    7  O   UNL     1     -12.720  13.174  62.641  1.00  0.00     0.027 OA 
HETATM    8  H   UNL     1      -9.933  15.520  68.699  1.00  0.00     0.000 HD 
HETATM    9  O   UNL     1     -12.229  13.384  66.231  1.00  0.00    -0.414 OA 
HETATM   10  C   UNL     1     -11.988  13.831  64.877  1.00  0.00    -0.390 C  
HETATM   11  O   UNL     1     -13.508  12.029  64.428  1.00  0.00    -0.591 OA 
HETATM   12  P   UNL     1      -9.664  12.190  64.666  1.00  0.00     0.137 P  
HETATM   13  C   UNL     1     -10.484  13.877  64.589  1.00  0.00    -0.396 C  
HETATM   14  C   UNL     1     -12.746  12.997  63.849  1.00  0.00    -0.086 C  
ENDROOT
BRANCH   5  15
HETATM   15  O   UNL     1     -12.183  13.970  68.491  1.00  0.00    -0.333 OA 
BRANCH  15  16
HETATM   16  C   UNL     1     -11.290  13.079  69.211  1.00  0.00    -0.251 C  
HETATM   17  O   UNL     1     -11.654  14.100  71.442  1.00  0.00    -0.409 OA 
HETATM   18  C   UNL     1     -11.693  12.881  70.681  1.00  0.00     0.254 C  
HETATM   19  C   UNL     1     -13.098  12.285  70.709  1.00  0.00     0.265 C  
HETATM   20  O   UNL     1     -13.588  12.348  72.053  1.00  0.00    -0.421 OA 
HETATM   21  H   UNL     1     -11.902  13.978  72.350  1.00  0.00     0.000 HD 
HETATM   22  C   UNL     1     -13.030  10.874  70.088  1.00  0.00     0.028 C  
HETATM   23  O   UNL     1     -12.499  10.917  68.750  1.00  0.00    -0.431 OA 
HETATM   24  O   UNL     1     -12.232   9.961  70.851  1.00  0.00    -0.300 OA 
HETATM   25  H   UNL     1     -14.462  11.977  72.070  1.00  0.00     0.000 HD 
HETATM   26  C   UNL     1     -11.308  11.692  68.524  1.00  0.00    -0.274 C  
HETATM   27  P   UNL     1     -12.826   9.340  72.230  1.00  0.00    -0.307 P  
HETATM   28  C   UNL     1      -9.984  10.964  68.817  1.00  0.00    -0.195 C  
HETATM   29  O   UNL     1     -10.130   9.658  69.125  1.00  0.00    -0.173 OA 
HETATM   30  O   UNL     1      -8.882  11.492  68.767  1.00  0.00    -0.138 OA 
ENDBRANCH  15  16
ENDBRANCH   5  15
TORSDOF 2
ENDMDL
MODEL       98
REMARK 921   NORMALIZED FREE ENERGY PREDICTED BY IDOCK:   -5.15 KCAL/MOL
REMARK 922        TOTAL FREE ENERGY PREDICTED BY IDOCK:   -6.46 KCAL/MOL
REMARK 923 INTER-LIGAND FREE ENERGY PREDICTED BY IDOCK:   -5.80 KCAL/MOL
REMARK 924 INTRA-LIGAND FREE ENERGY PREDICTED BY IDOCK:   -0.65 KCAL/MOL
REMARK 927      BINDING AFFINITY PREDICTED BY RF-SCORE:    0.00 PKD
ROOT
HETATM    1  O   UNL     1     -11.197   6.957  68.457  1.00  0.00    -0.490 OA 
HETATM    2  C   UNL     1      -9.870   7.509  68.348  1.00  0.00    -0.164 C  
HETATM    3  H   UNL     1     -11.115   6.026  68.627  1.00  0.00     0.000 HD 
HETATM    4  C   UNL     1     -10.004   9.014  68.073  1.00  0.00    -0.176 C  
HETATM    5  C   UNL     1     -10.469   9.774  69.353  1.00  0.00    -0.223 C  
HETATM    6  O   UNL     1     -10.889   9.132  66.944  1.00  0.00    -0.178 OA 
HETATM    7  O   UNL     1      -9.106   6.553  72.621  1.00  0.00    -0.133 OA 
HETATM    8  H   UNL     1     -10.971  10.062  66.774  1.00  0.00     0.000 HD 
HETATM    9  O   UNL     1      -9.623   9.437  70.478  1.00  0.00    -0.239 OA 
HETATM   10  C   UNL     1      -9.727   8.026  70.773  1.00  0.00    -0.165 C  
HETATM   11  O   UNL     1      -8.660   8.766  72.790  1.00  0.00    -0.412 OA 
HETATM   12  P   UNL     1      -7.267   7.484  69.433  1.00  0.00    -0.086 P  
HETATM   13  C   UNL     1      -9.111   7.196  69.641  1.00  0.00    -0.140 C  
HETATM   14  C   UNL     1      -9.135   7.673  72.134  1.00  0.00    -0.140 C  
ENDROOT
BRANCH   5  15
HETATM   15  O   UNL     1     -10.466  11.209  69.211  1.00  0.00    -0.214 OA 
BRANCH  15  16
HETATM   16  C   UNL     1      -9.805  11.746  68.035  1.00  0.00    -0.183 C  
HETATM   17  O   UNL     1     -11.847  11.881  66.634  1.00  0.00    -0.591 OA 
HETATM   18  C   UNL     1     -10.731  12.613  67.167  1.00  0.00    -0.241 C  
HETATM   19  C   UNL     1     -11.223  13.779  68.021  1.00  0.00    -0.267 C  
HETATM   20  O   UNL     1     -12.286  14.435  67.321  1.00  0.00    -0.617 OA 
HETATM   21  H   UNL     1     -12.419  12.416  66.097  1.00  0.00     0.000 HD 
HETATM   22  C   UNL     1     -10.006  14.663  68.368  1.00  0.00    -0.227 C  
HETATM   23  O   UNL     1      -8.986  13.905  69.044  1.00  0.00     0.037 OA 
HETATM   24  O   UNL     1      -9.412  15.279  67.219  1.00  0.00    -0.203 OA 
HETATM   25  H   UNL     1     -12.593  15.159  67.852  1.00  0.00     0.000 HD 
HETATM   26  C   UNL     1      -8.618  12.629  68.489  1.00  0.00    -0.051 C  
HETATM   27  P   UNL     1     -10.152  16.546  66.520  1.00  0.00    -0.320 P  
HETATM   28  C   UNL     1      -7.565  12.679  67.367  1.00  0.00    -0.150 C  
HETATM   29  O   UNL     1      -7.046  13.906  67.153  1.00  0.00    -0.093 OA 
HETATM   30  O   UNL     1      -7.199  11.706  66.722  1.00  0.00    -0.137 OA 
ENDBRANCH  15  16
ENDBRANCH   5  15
TORSDOF 2
ENDMDL
MODEL       99
REMARK 921   NORMALIZED FREE ENERGY PREDICTED BY IDOCK:   -5.15 KCAL/MOL
REMARK 922        TOTAL FREE ENERGY PREDICTED BY IDOCK:   -6.46 KCAL/MOL
REMARK 923 INTER-LIGAND FREE ENERGY PREDICTED BY IDOCK:   -6.43 KCAL/MOL
REMARK 924 INTRA-LIGAND FREE ENERGY PREDICTED BY IDOCK:   -0.03 KCAL/MOL
REMARK 927      BINDING AFFINITY PREDICTED BY RF-SCORE:    0.00 PKD
ROOT
HETATM    1  O   UNL     1      -8.162  10.867  64.683  1.00  0.00    -0.371 OA 
HETATM    2  C   UNL     1      -9.600  10.857  64.578  1.00  0.00    -0.264 C  
HETATM    3  H   UNL     1      -7.823  11.442  64.007  1.00  0.00     0.000 HD 
HETATM    4  C   UNL     1     -10.149   9.928  65.671  1.00  0.00    -0.237 C  
HETATM    5  C   UNL     1     -10.022  10.588  67.078  1.00  0.00    -0.201 C  
HETATM    6  O   UNL     1      -9.443   8.683  65.521  1.00  0.00    -0.430 OA 
HETATM    7  O   UNL     1      -9.726  15.159  65.688  1.00  0.00    -0.336 OA 
HETATM    8  H   UNL     1      -9.783   8.108  66.196  1.00  0.00     0.000 HD 
HETATM    9  O   UNL     1     -10.596  11.917  67.068  1.00  0.00    -0.215 OA 
HETATM   10  C   UNL     1      -9.874  12.764  66.145  1.00  0.00    -0.267 C  
HETATM   11  O   UNL     1     -11.091  14.447  67.348  1.00  0.00    -0.290 OA 
HETATM   12  P   UNL     1     -11.891  12.445  64.152  1.00  0.00    -0.479 P  
HETATM   13  C   UNL     1     -10.102  12.299  64.703  1.00  0.00    -0.250 C  
HETATM   14  C   UNL     1     -10.207  14.241  66.334  1.00  0.00    -0.291 C  
ENDROOT
BRANCH   5  15
HETATM   15  O   UNL     1     -10.659   9.839  68.132  1.00  0.00    -0.207 OA 
BRANCH  15  16
HETATM   16  C   UNL     1     -10.017   8.598  68.529  1.00  0.00    -0.183 C  
HETATM   17  O   UNL     1      -7.696   9.362  68.103  1.00  0.00    -0.083 OA 
HETATM   18  C   UNL     1      -8.595   8.803  69.076  1.00  0.00    -0.132 C  
HETATM   19  C   UNL     1      -8.686   9.713  70.297  1.00  0.00    -0.208 C  
HETATM   20  O   UNL     1      -7.362  10.128  70.650  1.00  0.00    -0.388 OA 
HETATM   21  H   UNL     1      -6.817   9.488  68.441  1.00  0.00     0.000 HD 
HETATM   22  C   UNL     1      -9.465   8.960  71.397  1.00  0.00    -0.274 C  
HETATM   23  O   UNL     1     -10.769   8.563  70.933  1.00  0.00    -0.212 OA 
HETATM   24  O   UNL     1      -8.787   7.788  71.865  1.00  0.00    -0.112 OA 
HETATM   25  H   UNL     1      -7.418  10.695  71.410  1.00  0.00     0.000 HD 
HETATM   26  C   UNL     1     -10.862   7.934  69.643  1.00  0.00    -0.176 C  
HETATM   27  P   UNL     1      -7.512   7.948  72.859  1.00  0.00    -0.126 P  
HETATM   28  C   UNL     1     -10.610   6.415  69.632  1.00  0.00    -0.254 C  
HETATM   29  O   UNL     1     -10.463   5.873  70.859  1.00  0.00    -0.220 OA 
HETATM   30  O   UNL     1     -10.560   5.732  68.619  1.00  0.00    -0.223 OA 
ENDBRANCH  15  16
ENDBRANCH   5  15
TORSDOF 2
ENDMDL
MODEL      100
REMARK 921   NORMALIZED FREE ENERGY PREDICTED BY IDOCK:   -5.15 KCAL/MOL
REMARK 922        TOTAL FREE ENERGY PREDICTED BY IDOCK:   -6.45 KCAL/MOL
REMARK 923 INTER-LIGAND FREE ENERGY PREDICTED BY IDOCK:   -5.80 KCAL/MOL
REMARK 924 INTRA-LIGAND FREE ENERGY PREDICTED BY IDOCK:   -0.65 KCAL/MOL
REMARK 927      BINDING AFFINITY PREDICTED BY RF-SCORE:    0.00 PKD
ROOT
HETATM    1  O   UNL     1      -9.370   5.556  68.361  1.00  0.00    -0.108 OA 
HETATM    2  C   UNL     1      -8.759   5.814  67.081  1.00  0.00    -0.108 C  
HETATM    3  H   UNL     1      -8.830   4.925  68.822  1.00  0.00     0.000 HD 
HETATM    4  C   UNL     1      -9.632   6.835  66.336  1.00  0.00    -0.095 C  
HETATM    5  C   UNL     1      -9.478   8.256  66.958  1.00  0.00    -0.176 C  
HETATM    6  O   UNL     1     -10.969   6.304  66.362  1.00  0.00    -0.601 OA 
HETATM    7  O   UNL     1      -5.246   7.634  69.106  1.00  0.00    -0.018 OA 
HETATM    8  H   UNL     1     -11.509   6.935  65.901  1.00  0.00     0.000 HD 
HETATM    9  O   UNL     1      -8.080   8.616  67.062  1.00  0.00    -0.099 OA 
HETATM   10  C   UNL     1      -7.396   7.700  67.946  1.00  0.00    -0.102 C  
HETATM   11  O   UNL     1      -5.743   9.436  67.829  1.00  0.00    -0.041 OA 
HETATM   12  P   UNL     1      -6.319   6.250  65.737  1.00  0.00    -0.040 P  
HETATM   13  C   UNL     1      -7.327   6.303  67.320  1.00  0.00    -0.083 C  
HETATM   14  C   UNL     1      -6.020   8.213  68.359  1.00  0.00    -0.041 C  
ENDROOT
BRANCH   5  15
HETATM   15  O   UNL     1     -10.148   9.293  66.213  1.00  0.00    -0.278 OA 
BRANCH  15  16
HETATM   16  C   UNL     1      -9.642  10.645  66.377  1.00  0.00    -0.190 C  
HETATM   17  O   UNL     1      -8.809  10.889  64.053  1.00  0.00    -0.299 OA 
HETATM   18  C   UNL     1      -9.653  11.455  65.070  1.00  0.00    -0.221 C  
HETATM   19  C   UNL     1     -11.095  11.534  64.576  1.00  0.00    -0.273 C  
HETATM   20  O   UNL     1     -11.087  12.043  63.238  1.00  0.00    -0.614 OA 
HETATM   21  H   UNL     1      -8.815  11.389  63.246  1.00  0.00     0.000 HD 
HETATM   22  C   UNL     1     -11.905  12.358  65.600  1.00  0.00    -0.409 C  
HETATM   23  O   UNL     1     -11.826  11.778  66.916  1.00  0.00    -0.591 OA 
HETATM   24  O   UNL     1     -11.476  13.722  65.691  1.00  0.00    -0.304 OA 
HETATM   25  H   UNL     1     -11.984  12.092  62.931  1.00  0.00     0.000 HD 
HETATM   26  C   UNL     1     -10.530  11.389  67.403  1.00  0.00    -0.205 C  
HETATM   27  P   UNL     1     -11.877  14.765  64.512  1.00  0.00    -0.286 P  
HETATM   28  C   UNL     1      -9.709  12.514  68.061  1.00  0.00    -0.215 C  
HETATM   29  O   UNL     1     -10.380  13.676  68.198  1.00  0.00    -0.232 OA 
HETATM   30  O   UNL     1      -8.557  12.389  68.450  1.00  0.00    -0.173 OA 
ENDBRANCH  15  16
ENDBRANCH   5  15
TORSDOF 2
ENDMDL
MODEL      101
REMARK 921   NORMALIZED FREE ENERGY PREDICTED BY IDOCK:   -5.14 KCAL/MOL
REMARK 922        TOTAL FREE ENERGY PREDICTED BY IDOCK:   -6.45 KCAL/MOL
REMARK 923 INTER-LIGAND FREE ENERGY PREDICTED BY IDOCK:   -6.18 KCAL/MOL
REMARK 924 INTRA-LIGAND FREE ENERGY PREDICTED BY IDOCK:   -0.27 KCAL/MOL
REMARK 927      BINDING AFFINITY PREDICTED BY RF-SCORE:    0.00 PKD
ROOT
HETATM    1  O   UNL     1     -12.161  12.396  69.403  1.00  0.00    -0.202 OA 
HETATM    2  C   UNL     1     -10.857  12.429  68.790  1.00  0.00    -0.226 C  
HETATM    3  H   UNL     1     -12.516  13.277  69.388  1.00  0.00     0.000 HD 
HETATM    4  C   UNL     1     -10.284  11.004  68.814  1.00  0.00    -0.198 C  
HETATM    5  C   UNL     1     -11.009  10.097  67.773  1.00  0.00    -0.277 C  
HETATM    6  O   UNL     1     -10.388  10.561  70.180  1.00  0.00    -0.438 OA 
HETATM    7  O   UNL     1     -12.699  13.529  64.898  1.00  0.00    -0.632 OA 
HETATM    8  H   UNL     1     -10.034   9.680  70.194  1.00  0.00     0.000 HD 
HETATM    9  O   UNL     1     -11.014  10.725  66.470  1.00  0.00    -0.192 OA 
HETATM   10  C   UNL     1     -11.751  11.968  66.520  1.00  0.00    -0.256 C  
HETATM   11  O   UNL     1     -11.631  11.682  64.140  1.00  0.00    -0.333 OA 
HETATM   12  P   UNL     1      -9.337  13.483  66.661  1.00  0.00    -0.164 P  
HETATM   13  C   UNL     1     -11.005  12.998  67.375  1.00  0.00    -0.260 C  
HETATM   14  C   UNL     1     -12.079  12.503  65.129  1.00  0.00    -0.446 C  
ENDROOT
BRANCH   5  15
HETATM   15  O   UNL     1     -10.420   8.789  67.632  1.00  0.00    -0.241 OA 
BRANCH  15  16
HETATM   16  C   UNL     1     -11.101   7.691  68.295  1.00  0.00     0.293 C  
HETATM   17  O   UNL     1     -11.345   6.281  66.268  1.00  0.00    -0.561 OA 
HETATM   18  C   UNL     1     -10.855   6.332  67.618  1.00  0.00    -0.346 C  
HETATM   19  C   UNL     1      -9.354   6.057  67.646  1.00  0.00    -0.112 C  
HETATM   20  O   UNL     1      -9.083   4.942  66.790  1.00  0.00    -0.116 OA 
HETATM   21  H   UNL     1     -11.193   5.442  65.850  1.00  0.00     0.000 HD 
HETATM   22  C   UNL     1      -8.926   5.888  69.119  1.00  0.00    -0.119 C  
HETATM   23  O   UNL     1      -9.267   7.050  69.898  1.00  0.00    -0.145 OA 
HETATM   24  O   UNL     1      -9.518   4.745  69.749  1.00  0.00    -0.131 OA 
HETATM   25  H   UNL     1      -8.149   4.771  66.807  1.00  0.00     0.000 HD 
HETATM   26  C   UNL     1     -10.591   7.594  69.752  1.00  0.00    -0.244 C  
HETATM   27  P   UNL     1      -8.954   3.261  69.401  1.00  0.00    -0.141 P  
HETATM   28  C   UNL     1     -11.673   6.931  70.625  1.00  0.00    -0.367 C  
HETATM   29  O   UNL     1     -11.196   6.018  71.496  1.00  0.00    -0.277 OA 
HETATM   30  O   UNL     1     -12.865   7.202  70.568  1.00  0.00    -0.052 OA 
ENDBRANCH  15  16
ENDBRANCH   5  15
TORSDOF 2
ENDMDL
MODEL      102
REMARK 921   NORMALIZED FREE ENERGY PREDICTED BY IDOCK:   -5.14 KCAL/MOL
REMARK 922        TOTAL FREE ENERGY PREDICTED BY IDOCK:   -6.45 KCAL/MOL
REMARK 923 INTER-LIGAND FREE ENERGY PREDICTED BY IDOCK:   -5.92 KCAL/MOL
REMARK 924 INTRA-LIGAND FREE ENERGY PREDICTED BY IDOCK:   -0.53 KCAL/MOL
REMARK 927      BINDING AFFINITY PREDICTED BY RF-SCORE:    0.00 PKD
ROOT
HETATM    1  O   UNL     1      -8.179  12.164  66.175  1.00  0.00    -0.376 OA 
HETATM    2  C   UNL     1      -9.438  12.002  65.492  1.00  0.00    -0.104 C  
HETATM    3  H   UNL     1      -8.083  13.081  66.401  1.00  0.00     0.000 HD 
HETATM    4  C   UNL     1      -9.593  10.518  65.126  1.00  0.00    -0.260 C  
HETATM    5  C   UNL     1      -9.903   9.663  66.394  1.00  0.00    -0.244 C  
HETATM    6  O   UNL     1      -8.385  10.155  64.432  1.00  0.00    -0.158 OA 
HETATM    7  O   UNL     1     -11.612  13.148  69.195  1.00  0.00    -0.278 OA 
HETATM    8  H   UNL     1      -8.481   9.238  64.206  1.00  0.00     0.000 HD 
HETATM    9  O   UNL     1     -11.018  10.226  67.124  1.00  0.00    -0.251 OA 
HETATM   10  C   UNL     1     -10.687  11.554  67.590  1.00  0.00    -0.211 C  
HETATM   11  O   UNL     1     -12.637  11.146  68.929  1.00  0.00    -0.358 OA 
HETATM   12  P   UNL     1     -12.156  12.753  65.458  1.00  0.00    -0.412 P  
HETATM   13  C   UNL     1     -10.552  12.519  66.407  1.00  0.00    -0.247 C  
HETATM   14  C   UNL     1     -11.673  12.062  68.638  1.00  0.00    -0.326 C  
ENDROOT
BRANCH   5  15
HETATM   15  O   UNL     1     -10.214   8.286  66.104  1.00  0.00    -0.097 OA 
BRANCH  15  16
HETATM   16  C   UNL     1     -10.606   7.455  67.229  1.00  0.00    -0.323 C  
HETATM   17  O   UNL     1     -11.456   5.564  65.867  1.00  0.00    -0.632 OA 
HETATM   18  C   UNL     1     -10.552   5.951  66.915  1.00  0.00    -0.315 C  
HETATM   19  C   UNL     1      -9.116   5.601  66.532  1.00  0.00    -0.138 C  
HETATM   20  O   UNL     1      -9.106   4.279  65.981  1.00  0.00    -0.122 OA 
HETATM   21  H   UNL     1     -11.423   4.635  65.673  1.00  0.00     0.000 HD 
HETATM   22  C   UNL     1      -8.225   5.814  67.774  1.00  0.00    -0.101 C  
HETATM   23  O   UNL     1      -8.328   7.163  68.265  1.00  0.00    -0.123 OA 
HETATM   24  O   UNL     1      -8.541   4.925  68.852  1.00  0.00    -0.085 OA 
HETATM   25  H   UNL     1      -8.213   4.061  65.742  1.00  0.00     0.000 HD 
HETATM   26  C   UNL     1      -9.643   7.728  68.410  1.00  0.00    -0.152 C  
HETATM   27  P   UNL     1      -8.076   3.370  68.768  1.00  0.00    -0.061 P  
HETATM   28  C   UNL     1     -10.359   7.398  69.733  1.00  0.00    -0.222 C  
HETATM   29  O   UNL     1      -9.594   6.729  70.621  1.00  0.00    -0.169 OA 
HETATM   30  O   UNL     1     -11.511   7.717  69.991  1.00  0.00    -0.149 OA 
ENDBRANCH  15  16
ENDBRANCH   5  15
TORSDOF 2
ENDMDL
MODEL      103
REMARK 921   NORMALIZED FREE ENERGY PREDICTED BY IDOCK:   -5.14 KCAL/MOL
REMARK 922        TOTAL FREE ENERGY PREDICTED BY IDOCK:   -6.44 KCAL/MOL
REMARK 923 INTER-LIGAND FREE ENERGY PREDICTED BY IDOCK:   -5.69 KCAL/MOL
REMARK 924 INTRA-LIGAND FREE ENERGY PREDICTED BY IDOCK:   -0.76 KCAL/MOL
REMARK 927      BINDING AFFINITY PREDICTED BY RF-SCORE:    0.00 PKD
ROOT
HETATM    1  O   UNL     1     -10.009  12.237  66.124  1.00  0.00    -0.233 OA 
HETATM    2  C   UNL     1      -8.735  11.963  66.740  1.00  0.00    -0.193 C  
HETATM    3  H   UNL     1      -9.854  12.453  65.212  1.00  0.00     0.000 HD 
HETATM    4  C   UNL     1      -8.986  11.614  68.215  1.00  0.00    -0.185 C  
HETATM    5  C   UNL     1      -9.621  10.196  68.350  1.00  0.00    -0.143 C  
HETATM    6  O   UNL     1      -9.785  12.688  68.744  1.00  0.00    -0.405 OA 
HETATM    7  O   UNL     1      -8.229   8.395  64.139  1.00  0.00    -0.159 OA 
HETATM    8  H   UNL     1      -9.940  12.472  69.656  1.00  0.00     0.000 HD 
HETATM    9  O   UNL     1      -8.840   9.220  67.621  1.00  0.00    -0.120 OA 
HETATM   10  C   UNL     1      -8.835   9.539  66.211  1.00  0.00    -0.149 C  
HETATM   11  O   UNL     1      -8.006   7.290  66.102  1.00  0.00    -0.103 OA 
HETATM   12  P   UNL     1      -6.236  10.700  66.403  1.00  0.00    -0.131 P  
HETATM   13  C   UNL     1      -8.056  10.834  65.959  1.00  0.00    -0.158 C  
HETATM   14  C   UNL     1      -8.323   8.383  65.357  1.00  0.00    -0.157 C  
ENDROOT
BRANCH   5  15
HETATM   15  O   UNL     1      -9.740   9.739  69.712  1.00  0.00    -0.202 OA 
BRANCH  15  16
HETATM   16  C   UNL     1     -10.993   9.104  70.080  1.00  0.00    -0.220 C  
HETATM   17  O   UNL     1     -10.789   7.202  68.501  1.00  0.00    -0.352 OA 
HETATM   18  C   UNL     1     -10.979   7.580  69.874  1.00  0.00    -0.211 C  
HETATM   19  C   UNL     1      -9.868   6.997  70.743  1.00  0.00    -0.185 C  
HETATM   20  O   UNL     1      -9.666   5.632  70.361  1.00  0.00    -0.166 OA 
HETATM   21  H   UNL     1     -10.780   6.261  68.373  1.00  0.00     0.000 HD 
HETATM   22  C   UNL     1     -10.246   7.229  72.221  1.00  0.00    -0.196 C  
HETATM   23  O   UNL     1     -10.453   8.627  72.494  1.00  0.00    -0.299 OA 
HETATM   24  O   UNL     1     -11.427   6.521  72.618  1.00  0.00    -0.251 OA 
HETATM   25  H   UNL     1      -8.974   5.269  70.901  1.00  0.00     0.000 HD 
HETATM   26  C   UNL     1     -11.270   9.378  71.578  1.00  0.00    -0.386 C  
HETATM   27  P   UNL     1     -11.349   4.918  72.874  1.00  0.00    -0.088 P  
HETATM   28  C   UNL     1     -12.786   9.302  71.834  1.00  0.00    -0.404 C  
HETATM   29  O   UNL     1     -13.122   8.642  72.962  1.00  0.00    -0.251 OA 
HETATM   30  O   UNL     1     -13.634   9.801  71.108  1.00  0.00    -0.340 OA 
ENDBRANCH  15  16
ENDBRANCH   5  15
TORSDOF 2
ENDMDL
MODEL      104
REMARK 921   NORMALIZED FREE ENERGY PREDICTED BY IDOCK:   -5.12 KCAL/MOL
REMARK 922        TOTAL FREE ENERGY PREDICTED BY IDOCK:   -6.43 KCAL/MOL
REMARK 923 INTER-LIGAND FREE ENERGY PREDICTED BY IDOCK:   -6.56 KCAL/MOL
REMARK 924 INTRA-LIGAND FREE ENERGY PREDICTED BY IDOCK:    0.13 KCAL/MOL
REMARK 927      BINDING AFFINITY PREDICTED BY RF-SCORE:    0.00 PKD
ROOT
HETATM    1  O   UNL     1     -13.035  13.601  64.969  1.00  0.00    -0.724 OA 
HETATM    2  C   UNL     1     -11.860  13.394  64.161  1.00  0.00    -0.442 C  
HETATM    3  H   UNL     1     -13.634  12.882  64.808  1.00  0.00     0.000 HD 
HETATM    4  C   UNL     1     -10.892  14.559  64.423  1.00  0.00    -0.055 C  
HETATM    5  C   UNL     1     -10.234  14.428  65.831  1.00  0.00    -0.325 C  
HETATM    6  O   UNL     1     -11.659  15.760  64.222  1.00  0.00    -0.712 OA 
HETATM    7  O   UNL     1     -10.890   9.731  66.484  1.00  0.00    -0.045 OA 
HETATM    8  H   UNL     1     -11.060  16.480  64.384  1.00  0.00     0.000 HD 
HETATM    9  O   UNL     1      -9.658  13.111  66.000  1.00  0.00    -0.244 OA 
HETATM   10  C   UNL     1     -10.691  12.103  65.931  1.00  0.00    -0.266 C  
HETATM   11  O   UNL     1      -8.918  10.779  66.861  1.00  0.00    -0.138 OA 
HETATM   12  P   UNL     1     -10.010  11.480  63.231  1.00  0.00    -0.337 P  
HETATM   13  C   UNL     1     -11.269  12.026  64.513  1.00  0.00    -0.332 C  
HETATM   14  C   UNL     1     -10.209  10.744  66.431  1.00  0.00    -0.240 C  
ENDROOT
BRANCH   5  15
HETATM   15  O   UNL     1      -9.200  15.400  66.082  1.00  0.00    -0.298 OA 
BRANCH  15  16
HETATM   16  C   UNL     1      -9.143  15.962  67.420  1.00  0.00    -0.196 C  
HETATM   17  O   UNL     1     -10.258  14.054  68.546  1.00  0.00    -0.229 OA 
HETATM   18  C   UNL     1      -9.090  14.891  68.521  1.00  0.00    -0.191 C  
HETATM   19  C   UNL     1      -7.838  14.046  68.298  1.00  0.00    -0.140 C  
HETATM   20  O   UNL     1      -7.917  12.891  69.140  1.00  0.00    -0.312 OA 
HETATM   21  H   UNL     1     -10.225  13.392  69.226  1.00  0.00     0.000 HD 
HETATM   22  C   UNL     1      -6.607  14.950  68.516  1.00  0.00    -0.093 C  
HETATM   23  O   UNL     1      -6.637  16.094  67.643  1.00  0.00    -0.127 OA 
HETATM   24  O   UNL     1      -6.489  15.425  69.863  1.00  0.00    -0.161 OA 
HETATM   25  H   UNL     1      -7.138  12.365  69.000  1.00  0.00     0.000 HD 
HETATM   26  C   UNL     1      -7.868  16.831  67.542  1.00  0.00    -0.168 C  
HETATM   27  P   UNL     1      -5.970  14.413  71.024  1.00  0.00     0.020 P  
HETATM   28  C   UNL     1      -8.086  17.899  68.629  1.00  0.00    -0.278 C  
HETATM   29  O   UNL     1      -7.028  18.076  69.448  1.00  0.00    -0.204 OA 
HETATM   30  O   UNL     1      -9.109  18.557  68.753  1.00  0.00    -0.318 OA 
ENDBRANCH  15  16
ENDBRANCH   5  15
TORSDOF 2
ENDMDL
MODEL      105
REMARK 921   NORMALIZED FREE ENERGY PREDICTED BY IDOCK:   -5.10 KCAL/MOL
REMARK 922        TOTAL FREE ENERGY PREDICTED BY IDOCK:   -6.40 KCAL/MOL
REMARK 923 INTER-LIGAND FREE ENERGY PREDICTED BY IDOCK:   -6.00 KCAL/MOL
REMARK 924 INTRA-LIGAND FREE ENERGY PREDICTED BY IDOCK:   -0.41 KCAL/MOL
REMARK 927      BINDING AFFINITY PREDICTED BY RF-SCORE:    0.00 PKD
ROOT
HETATM    1  O   UNL     1     -11.379  11.683  69.586  1.00  0.00    -0.327 OA 
HETATM    2  C   UNL     1     -10.228  11.987  68.772  1.00  0.00    -0.129 C  
HETATM    3  H   UNL     1     -11.776  12.503  69.852  1.00  0.00     0.000 HD 
HETATM    4  C   UNL     1      -9.586  10.659  68.342  1.00  0.00    -0.168 C  
HETATM    5  C   UNL     1     -10.456   9.948  67.260  1.00  0.00    -0.258 C  
HETATM    6  O   UNL     1      -9.390   9.906  69.552  1.00  0.00    -0.193 OA 
HETATM    7  O   UNL     1     -12.871  13.762  65.671  1.00  0.00    -0.521 OA 
HETATM    8  H   UNL     1      -8.993   9.085  69.286  1.00  0.00     0.000 HD 
HETATM    9  O   UNL     1     -10.756  10.855  66.174  1.00  0.00    -0.235 OA 
HETATM   10  C   UNL     1     -11.533  11.973  66.660  1.00  0.00    -0.346 C  
HETATM   11  O   UNL     1     -11.879  12.256  64.303  1.00  0.00    -0.364 OA 
HETATM   12  P   UNL     1      -9.226  13.649  66.727  1.00  0.00    -0.165 P  
HETATM   13  C   UNL     1     -10.687  12.848  67.592  1.00  0.00    -0.223 C  
HETATM   14  C   UNL     1     -12.162  12.778  65.527  1.00  0.00    -0.463 C  
ENDROOT
BRANCH   5  15
HETATM   15  O   UNL     1      -9.837   8.773  66.698  1.00  0.00    -0.218 OA 
BRANCH  15  16
HETATM   16  C   UNL     1      -9.501   7.706  67.623  1.00  0.00    -0.142 C  
HETATM   17  O   UNL     1     -11.729   6.617  67.577  1.00  0.00    -0.601 OA 
HETATM   18  C   UNL     1     -10.317   6.425  67.388  1.00  0.00    -0.205 C  
HETATM   19  C   UNL     1     -10.036   5.941  65.968  1.00  0.00     0.102 C  
HETATM   20  O   UNL     1     -10.983   4.917  65.643  1.00  0.00    -0.698 OA 
HETATM   21  H   UNL     1     -12.234   5.826  67.432  1.00  0.00     0.000 HD 
HETATM   22  C   UNL     1      -8.551   5.525  65.891  1.00  0.00    -0.141 C  
HETATM   23  O   UNL     1      -7.685   6.614  66.261  1.00  0.00    -0.094 OA 
HETATM   24  O   UNL     1      -8.236   4.405  66.727  1.00  0.00    -0.102 OA 
HETATM   25  H   UNL     1     -10.808   4.617  64.760  1.00  0.00     0.000 HD 
HETATM   26  C   UNL     1      -8.004   7.352  67.454  1.00  0.00    -0.112 C  
HETATM   27  P   UNL     1      -8.692   2.914  66.269  1.00  0.00    -0.145 P  
HETATM   28  C   UNL     1      -7.477   6.741  68.766  1.00  0.00    -0.096 C  
HETATM   29  O   UNL     1      -6.681   5.666  68.592  1.00  0.00    -0.053 OA 
HETATM   30  O   UNL     1      -7.726   7.181  69.880  1.00  0.00    -0.102 OA 
ENDBRANCH  15  16
ENDBRANCH   5  15
TORSDOF 2
ENDMDL
MODEL      106
REMARK 921   NORMALIZED FREE ENERGY PREDICTED BY IDOCK:   -5.10 KCAL/MOL
REMARK 922        TOTAL FREE ENERGY PREDICTED BY IDOCK:   -6.40 KCAL/MOL
REMARK 923 INTER-LIGAND FREE ENERGY PREDICTED BY IDOCK:   -5.49 KCAL/MOL
REMARK 924 INTRA-LIGAND FREE ENERGY PREDICTED BY IDOCK:   -0.91 KCAL/MOL
REMARK 927      BINDING AFFINITY PREDICTED BY RF-SCORE:    0.00 PKD
ROOT
HETATM    1  O   UNL     1      -7.134  14.040  69.582  1.00  0.00    -0.316 OA 
HETATM    2  C   UNL     1      -7.407  14.895  68.455  1.00  0.00    -0.114 C  
HETATM    3  H   UNL     1      -6.959  14.592  70.335  1.00  0.00     0.000 HD 
HETATM    4  C   UNL     1      -7.689  14.002  67.237  1.00  0.00    -0.098 C  
HETATM    5  C   UNL     1      -9.087  13.323  67.359  1.00  0.00    -0.216 C  
HETATM    6  O   UNL     1      -6.579  13.091  67.152  1.00  0.00    -0.406 OA 
HETATM    7  O   UNL     1     -11.090  16.377  70.453  1.00  0.00    -0.356 OA 
HETATM    8  H   UNL     1      -6.753  12.538  66.399  1.00  0.00     0.000 HD 
HETATM    9  O   UNL     1     -10.108  14.310  67.635  1.00  0.00    -0.227 OA 
HETATM   10  C   UNL     1      -9.848  14.954  68.903  1.00  0.00    -0.230 C  
HETATM   11  O   UNL     1     -12.116  15.662  68.566  1.00  0.00    -0.242 OA 
HETATM   12  P   UNL     1      -8.731  17.236  67.605  1.00  0.00    -0.224 P  
HETATM   13  C   UNL     1      -8.580  15.810  68.818  1.00  0.00    -0.203 C  
HETATM   14  C   UNL     1     -11.049  15.750  69.406  1.00  0.00    -0.314 C  
ENDROOT
BRANCH   5  15
HETATM   15  O   UNL     1      -9.484  12.593  66.181  1.00  0.00    -0.239 OA 
BRANCH  15  16
HETATM   16  C   UNL     1      -9.883  11.210  66.373  1.00  0.00    -0.211 C  
HETATM   17  O   UNL     1     -10.806  10.891  64.093  1.00  0.00    -0.428 OA 
HETATM   18  C   UNL     1      -9.876  10.394  65.070  1.00  0.00    -0.319 C  
HETATM   19  C   UNL     1      -8.457  10.414  64.508  1.00  0.00    -0.169 C  
HETATM   20  O   UNL     1      -8.492   9.897  63.174  1.00  0.00    -0.148 OA 
HETATM   21  H   UNL     1     -10.802  10.387  63.288  1.00  0.00     0.000 HD 
HETATM   22  C   UNL     1      -7.543   9.658  65.495  1.00  0.00    -0.109 C  
HETATM   23  O   UNL     1      -7.600  10.239  66.811  1.00  0.00    -0.102 OA 
HETATM   24  O   UNL     1      -7.868   8.268  65.611  1.00  0.00    -0.094 OA 
HETATM   25  H   UNL     1      -7.610   9.910  62.824  1.00  0.00     0.000 HD 
HETATM   26  C   UNL     1      -8.896  10.538  67.358  1.00  0.00    -0.132 C  
HETATM   27  P   UNL     1      -7.449   7.247  64.418  1.00  0.00    -0.109 P  
HETATM   28  C   UNL     1      -9.602   9.362  68.059  1.00  0.00    -0.138 C  
HETATM   29  O   UNL     1      -8.844   8.252  68.168  1.00  0.00    -0.138 OA 
HETATM   30  O   UNL     1     -10.741   9.408  68.502  1.00  0.00    -0.214 OA 
ENDBRANCH  15  16
ENDBRANCH   5  15
TORSDOF 2
ENDMDL
MODEL      107
REMARK 921   NORMALIZED FREE ENERGY PREDICTED BY IDOCK:   -5.09 KCAL/MOL
REMARK 922        TOTAL FREE ENERGY PREDICTED BY IDOCK:   -6.39 KCAL/MOL
REMARK 923 INTER-LIGAND FREE ENERGY PREDICTED BY IDOCK:   -5.52 KCAL/MOL
REMARK 924 INTRA-LIGAND FREE ENERGY PREDICTED BY IDOCK:   -0.87 KCAL/MOL
REMARK 927      BINDING AFFINITY PREDICTED BY RF-SCORE:    0.00 PKD
ROOT
HETATM    1  O   UNL     1      -7.426  15.882  68.645  1.00  0.00    -0.142 OA 
HETATM    2  C   UNL     1      -8.017  15.414  67.417  1.00  0.00    -0.188 C  
HETATM    3  H   UNL     1      -7.689  16.786  68.773  1.00  0.00     0.000 HD 
HETATM    4  C   UNL     1      -7.590  13.953  67.210  1.00  0.00    -0.057 C  
HETATM    5  C   UNL     1      -8.339  13.011  68.203  1.00  0.00    -0.164 C  
HETATM    6  O   UNL     1      -6.156  13.941  67.329  1.00  0.00    -0.369 OA 
HETATM    7  O   UNL     1     -12.071  15.841  69.187  1.00  0.00    -0.353 OA 
HETATM    8  H   UNL     1      -5.893  13.037  67.201  1.00  0.00     0.000 HD 
HETATM    9  O   UNL     1      -9.766  13.240  68.140  1.00  0.00    -0.217 OA 
HETATM   10  C   UNL     1     -10.071  14.594  68.545  1.00  0.00    -0.238 C  
HETATM   11  O   UNL     1     -12.274  13.649  68.657  1.00  0.00    -0.339 OA 
HETATM   12  P   UNL     1     -10.348  15.425  65.830  1.00  0.00    -0.421 P  
HETATM   13  C   UNL     1      -9.535  15.593  67.514  1.00  0.00    -0.214 C  
HETATM   14  C   UNL     1     -11.558  14.795  68.823  1.00  0.00    -0.320 C  
ENDROOT
BRANCH   5  15
HETATM   15  O   UNL     1      -8.104  11.609  67.962  1.00  0.00    -0.124 OA 
BRANCH  15  16
HETATM   16  C   UNL     1      -8.202  10.725  69.111  1.00  0.00    -0.120 C  
HETATM   17  O   UNL     1     -10.639  11.028  69.460  1.00  0.00    -0.356 OA 
HETATM   18  C   UNL     1      -9.586  10.071  69.252  1.00  0.00    -0.216 C  
HETATM   19  C   UNL     1      -9.854   9.256  67.989  1.00  0.00    -0.163 C  
HETATM   20  O   UNL     1     -11.232   8.868  67.986  1.00  0.00    -0.441 OA 
HETATM   21  H   UNL     1     -11.494  10.624  69.547  1.00  0.00     0.000 HD 
HETATM   22  C   UNL     1      -8.833   8.099  67.943  1.00  0.00    -0.131 C  
HETATM   23  O   UNL     1      -7.482   8.593  67.979  1.00  0.00    -0.093 OA 
HETATM   24  O   UNL     1      -8.992   7.166  69.019  1.00  0.00    -0.135 OA 
HETATM   25  H   UNL     1     -11.398   8.362  67.200  1.00  0.00     0.000 HD 
HETATM   26  C   UNL     1      -7.157   9.594  68.959  1.00  0.00    -0.066 C  
HETATM   27  P   UNL     1     -10.221   6.103  68.980  1.00  0.00    -0.240 P  
HETATM   28  C   UNL     1      -6.790   9.053  70.354  1.00  0.00    -0.055 C  
HETATM   29  O   UNL     1      -6.703   7.708  70.418  1.00  0.00    -0.042 OA 
HETATM   30  O   UNL     1      -6.573   9.757  71.330  1.00  0.00    -0.312 OA 
ENDBRANCH  15  16
ENDBRANCH   5  15
TORSDOF 2
ENDMDL
MODEL      108
REMARK 921   NORMALIZED FREE ENERGY PREDICTED BY IDOCK:   -5.09 KCAL/MOL
REMARK 922        TOTAL FREE ENERGY PREDICTED BY IDOCK:   -6.39 KCAL/MOL
REMARK 923 INTER-LIGAND FREE ENERGY PREDICTED BY IDOCK:   -5.54 KCAL/MOL
REMARK 924 INTRA-LIGAND FREE ENERGY PREDICTED BY IDOCK:   -0.85 KCAL/MOL
REMARK 927      BINDING AFFINITY PREDICTED BY RF-SCORE:    0.00 PKD
ROOT
HETATM    1  O   UNL     1      -9.998  12.506  65.444  1.00  0.00    -0.288 OA 
HETATM    2  C   UNL     1     -10.293  13.119  66.715  1.00  0.00    -0.252 C  
HETATM    3  H   UNL     1      -9.612  13.167  64.882  1.00  0.00     0.000 HD 
HETATM    4  C   UNL     1     -10.919  12.050  67.624  1.00  0.00    -0.238 C  
HETATM    5  C   UNL     1      -9.842  11.028  68.101  1.00  0.00    -0.176 C  
HETATM    6  O   UNL     1     -12.004  11.479  66.871  1.00  0.00    -0.516 OA 
HETATM    7  O   UNL     1      -5.951  13.736  67.440  1.00  0.00    -0.348 OA 
HETATM    8  H   UNL     1     -12.391  10.819  67.433  1.00  0.00     0.000 HD 
HETATM    9  O   UNL     1      -8.705  11.718  68.672  1.00  0.00    -0.143 OA 
HETATM   10  C   UNL     1      -8.074  12.547  67.671  1.00  0.00    -0.171 C  
HETATM   11  O   UNL     1      -6.342  12.555  69.332  1.00  0.00    -0.103 OA 
HETATM   12  P   UNL     1      -9.344  14.887  68.696  1.00  0.00    -0.193 P  
HETATM   13  C   UNL     1      -8.995  13.707  67.278  1.00  0.00    -0.225 C  
HETATM   14  C   UNL     1      -6.693  13.031  68.106  1.00  0.00    -0.103 C  
ENDROOT
BRANCH   5  15
HETATM   15  O   UNL     1     -10.327  10.088  69.081  1.00  0.00    -0.191 OA 
BRANCH  15  16
HETATM   16  C   UNL     1      -9.684   8.786  69.111  1.00  0.00    -0.175 C  
HETATM   17  O   UNL     1      -7.668   9.525  70.353  1.00  0.00    -0.136 OA 
HETATM   18  C   UNL     1      -8.764   8.596  70.328  1.00  0.00    -0.147 C  
HETATM   19  C   UNL     1      -9.612   8.746  71.588  1.00  0.00    -0.293 C  
HETATM   20  O   UNL     1      -8.734   8.842  72.715  1.00  0.00    -0.398 OA 
HETATM   21  H   UNL     1      -7.099   9.408  71.104  1.00  0.00     0.000 HD 
HETATM   22  C   UNL     1     -10.622   7.579  71.625  1.00  0.00    -0.205 C  
HETATM   23  O   UNL     1     -11.436   7.555  70.438  1.00  0.00    -0.269 OA 
HETATM   24  O   UNL     1      -9.996   6.297  71.758  1.00  0.00    -0.171 OA 
HETATM   25  H   UNL     1      -9.262   8.935  73.499  1.00  0.00     0.000 HD 
HETATM   26  C   UNL     1     -10.776   7.691  69.167  1.00  0.00    -0.141 C  
HETATM   27  P   UNL     1      -9.399   5.845  73.200  1.00  0.00    -0.137 P  
HETATM   28  C   UNL     1     -10.215   6.385  68.574  1.00  0.00    -0.175 C  
HETATM   29  O   UNL     1     -10.536   5.279  69.276  1.00  0.00    -0.225 OA 
HETATM   30  O   UNL     1      -9.549   6.324  67.549  1.00  0.00    -0.115 OA 
ENDBRANCH  15  16
ENDBRANCH   5  15
TORSDOF 2
ENDMDL
MODEL      109
REMARK 921   NORMALIZED FREE ENERGY PREDICTED BY IDOCK:   -5.09 KCAL/MOL
REMARK 922        TOTAL FREE ENERGY PREDICTED BY IDOCK:   -6.39 KCAL/MOL
REMARK 923 INTER-LIGAND FREE ENERGY PREDICTED BY IDOCK:   -5.56 KCAL/MOL
REMARK 924 INTRA-LIGAND FREE ENERGY PREDICTED BY IDOCK:   -0.83 KCAL/MOL
REMARK 927      BINDING AFFINITY PREDICTED BY RF-SCORE:    0.00 PKD
ROOT
HETATM    1  O   UNL     1      -7.571  13.452  68.848  1.00  0.00    -0.249 OA 
HETATM    2  C   UNL     1      -8.072  12.988  67.579  1.00  0.00    -0.179 C  
HETATM    3  H   UNL     1      -7.851  14.352  68.963  1.00  0.00     0.000 HD 
HETATM    4  C   UNL     1      -7.618  11.532  67.393  1.00  0.00    -0.135 C  
HETATM    5  C   UNL     1      -8.423  10.576  68.326  1.00  0.00    -0.123 C  
HETATM    6  O   UNL     1      -6.195  11.532  67.608  1.00  0.00    -0.053 OA 
HETATM    7  O   UNL     1     -12.242  13.363  69.072  1.00  0.00    -0.295 OA 
HETATM    8  H   UNL     1      -5.915  10.632  67.493  1.00  0.00     0.000 HD 
HETATM    9  O   UNL     1      -9.845  10.792  68.168  1.00  0.00    -0.152 OA 
HETATM   10  C   UNL     1     -10.190  12.140  68.559  1.00  0.00    -0.207 C  
HETATM   11  O   UNL     1     -12.386  11.173  68.515  1.00  0.00    -0.561 OA 
HETATM   12  P   UNL     1     -10.290  12.988  65.837  1.00  0.00    -0.292 P  
HETATM   13  C   UNL     1      -9.595  13.151  67.574  1.00  0.00    -0.208 C  
HETATM   14  C   UNL     1     -11.694  12.324  68.737  1.00  0.00    -0.340 C  
ENDROOT
BRANCH   5  15
HETATM   15  O   UNL     1      -8.158   9.178  68.093  1.00  0.00    -0.103 OA 
BRANCH  15  16
HETATM   16  C   UNL     1      -9.311   8.295  68.047  1.00  0.00    -0.132 C  
HETATM   17  O   UNL     1     -10.027   8.930  65.759  1.00  0.00    -0.459 OA 
HETATM   18  C   UNL     1      -9.664   7.840  66.621  1.00  0.00    -0.222 C  
HETATM   19  C   UNL     1      -8.459   7.094  66.053  1.00  0.00    -0.145 C  
HETATM   20  O   UNL     1      -8.668   6.904  64.649  1.00  0.00    -0.349 OA 
HETATM   21  H   UNL     1     -10.245   8.650  64.878  1.00  0.00     0.000 HD 
HETATM   22  C   UNL     1      -8.261   5.806  66.879  1.00  0.00    -0.101 C  
HETATM   23  O   UNL     1      -8.088   6.104  68.277  1.00  0.00    -0.109 OA 
HETATM   24  O   UNL     1      -9.352   4.885  66.755  1.00  0.00    -0.126 OA 
HETATM   25  H   UNL     1      -7.918   6.441  64.295  1.00  0.00     0.000 HD 
HETATM   26  C   UNL     1      -9.005   7.031  68.886  1.00  0.00    -0.129 C  
HETATM   27  P   UNL     1      -9.504   4.006  65.397  1.00  0.00    -0.192 P  
HETATM   28  C   UNL     1     -10.329   6.419  69.380  1.00  0.00    -0.209 C  
HETATM   29  O   UNL     1     -10.383   5.074  69.283  1.00  0.00    -0.213 OA 
HETATM   30  O   UNL     1     -11.258   7.067  69.840  1.00  0.00    -0.272 OA 
ENDBRANCH  15  16
ENDBRANCH   5  15
TORSDOF 2
ENDMDL
MODEL      110
REMARK 921   NORMALIZED FREE ENERGY PREDICTED BY IDOCK:   -5.08 KCAL/MOL
REMARK 922        TOTAL FREE ENERGY PREDICTED BY IDOCK:   -6.38 KCAL/MOL
REMARK 923 INTER-LIGAND FREE ENERGY PREDICTED BY IDOCK:   -5.51 KCAL/MOL
REMARK 924 INTRA-LIGAND FREE ENERGY PREDICTED BY IDOCK:   -0.88 KCAL/MOL
REMARK 927      BINDING AFFINITY PREDICTED BY RF-SCORE:    0.00 PKD
ROOT
HETATM    1  O   UNL     1      -6.619   7.156  72.399  1.00  0.00    -0.055 OA 
HETATM    2  C   UNL     1      -7.858   7.887  72.486  1.00  0.00    -0.117 C  
HETATM    3  H   UNL     1      -6.620   6.494  73.080  1.00  0.00     0.000 HD 
HETATM    4  C   UNL     1      -7.856   8.958  71.385  1.00  0.00    -0.097 C  
HETATM    5  C   UNL     1      -8.065   8.311  69.981  1.00  0.00    -0.116 C  
HETATM    6  O   UNL     1      -6.621   9.681  71.540  1.00  0.00    -0.306 OA 
HETATM    7  O   UNL     1     -10.117   4.222  71.386  1.00  0.00    -0.179 OA 
HETATM    8  H   UNL     1      -6.621  10.343  70.859  1.00  0.00     0.000 HD 
HETATM    9  O   UNL     1      -9.229   7.451  69.988  1.00  0.00    -0.148 OA 
HETATM   10  C   UNL     1      -9.038   6.364  70.921  1.00  0.00    -0.151 C  
HETATM   11  O   UNL     1     -10.925   5.509  69.709  1.00  0.00    -0.310 OA 
HETATM   12  P   UNL     1     -10.640   7.669  72.889  1.00  0.00    -0.379 P  
HETATM   13  C   UNL     1      -9.015   6.892  72.360  1.00  0.00    -0.133 C  
HETATM   14  C   UNL     1     -10.066   5.252  70.733  1.00  0.00    -0.224 C  
ENDROOT
BRANCH   5  15
HETATM   15  O   UNL     1      -8.230   9.270  68.918  1.00  0.00    -0.108 OA 
BRANCH  15  16
HETATM   16  C   UNL     1      -9.164  10.357  69.158  1.00  0.00    -0.191 C  
HETATM   17  O   UNL     1      -7.439  12.079  69.617  1.00  0.00    -0.294 OA 
HETATM   18  C   UNL     1      -8.582  11.738  68.815  1.00  0.00     0.017 C  
HETATM   19  C   UNL     1      -8.209  11.739  67.335  1.00  0.00    -0.160 C  
HETATM   20  O   UNL     1      -7.426  12.907  67.068  1.00  0.00    -0.364 OA 
HETATM   21  H   UNL     1      -7.080  12.933  69.406  1.00  0.00     0.000 HD 
HETATM   22  C   UNL     1      -9.509  11.603  66.515  1.00  0.00    -0.206 C  
HETATM   23  O   UNL     1     -10.234  10.414  66.878  1.00  0.00    -0.209 OA 
HETATM   24  O   UNL     1     -10.390  12.723  66.668  1.00  0.00    -0.238 OA 
HETATM   25  H   UNL     1      -7.193  12.907  66.147  1.00  0.00     0.000 HD 
HETATM   26  C   UNL     1     -10.418  10.139  68.278  1.00  0.00    -0.211 C  
HETATM   27  P   UNL     1     -10.044  14.121  65.916  1.00  0.00    -0.309 P  
HETATM   28  C   UNL     1     -11.623  10.839  68.933  1.00  0.00    -0.291 C  
HETATM   29  O   UNL     1     -12.408  11.511  68.065  1.00  0.00    -0.445 OA 
HETATM   30  O   UNL     1     -11.881  10.793  70.127  1.00  0.00    -0.282 OA 
ENDBRANCH  15  16
ENDBRANCH   5  15
TORSDOF 2
ENDMDL
MODEL      111
REMARK 921   NORMALIZED FREE ENERGY PREDICTED BY IDOCK:   -5.08 KCAL/MOL
REMARK 922        TOTAL FREE ENERGY PREDICTED BY IDOCK:   -6.38 KCAL/MOL
REMARK 923 INTER-LIGAND FREE ENERGY PREDICTED BY IDOCK:   -5.46 KCAL/MOL
REMARK 924 INTRA-LIGAND FREE ENERGY PREDICTED BY IDOCK:   -0.92 KCAL/MOL
REMARK 927      BINDING AFFINITY PREDICTED BY RF-SCORE:    0.00 PKD
ROOT
HETATM    1  O   UNL     1      -9.770   8.564  69.894  1.00  0.00    -0.176 OA 
HETATM    2  C   UNL     1     -10.427   8.071  68.709  1.00  0.00    -0.173 C  
HETATM    3  H   UNL     1      -9.574   7.821  70.453  1.00  0.00     0.000 HD 
HETATM    4  C   UNL     1     -10.743   9.274  67.807  1.00  0.00    -0.207 C  
HETATM    5  C   UNL     1      -9.445   9.826  67.143  1.00  0.00    -0.154 C  
HETATM    6  O   UNL     1     -11.446  10.215  68.638  1.00  0.00    -0.476 OA 
HETATM    7  O   UNL     1      -6.725   5.907  67.539  1.00  0.00    -0.054 OA 
HETATM    8  H   UNL     1     -11.641  10.959  68.080  1.00  0.00     0.000 HD 
HETATM    9  O   UNL     1      -8.714   8.758  66.494  1.00  0.00    -0.113 OA 
HETATM   10  C   UNL     1      -8.295   7.778  67.471  1.00  0.00    -0.120 C  
HETATM   11  O   UNL     1      -6.912   7.107  65.628  1.00  0.00    -0.058 OA 
HETATM   12  P   UNL     1     -10.438   6.036  66.758  1.00  0.00    -0.232 P  
HETATM   13  C   UNL     1      -9.510   7.040  68.044  1.00  0.00    -0.125 C  
HETATM   14  C   UNL     1      -7.247   6.818  66.916  1.00  0.00    -0.081 C  
ENDROOT
BRANCH   5  15
HETATM   15  O   UNL     1      -9.687  10.855  66.163  1.00  0.00    -0.195 OA 
BRANCH  15  16
HETATM   16  C   UNL     1      -8.967  12.105  66.338  1.00  0.00    -0.138 C  
HETATM   17  O   UNL     1     -10.156  13.338  64.545  1.00  0.00    -0.586 OA 
HETATM   18  C   UNL     1      -9.793  13.337  65.935  1.00  0.00    -0.231 C  
HETATM   19  C   UNL     1     -11.044  13.372  66.809  1.00  0.00    -0.292 C  
HETATM   20  O   UNL     1     -11.945  14.346  66.269  1.00  0.00    -0.396 OA 
HETATM   21  H   UNL     1     -10.666  14.100  64.295  1.00  0.00     0.000 HD 
HETATM   22  C   UNL     1     -10.601  13.609  68.268  1.00  0.00    -0.253 C  
HETATM   23  O   UNL     1      -9.678  12.594  68.705  1.00  0.00    -0.160 OA 
HETATM   24  O   UNL     1      -9.982  14.886  68.468  1.00  0.00    -0.211 OA 
HETATM   25  H   UNL     1     -12.723  14.367  66.812  1.00  0.00     0.000 HD 
HETATM   26  C   UNL     1      -8.587  12.256  67.831  1.00  0.00    -0.169 C  
HETATM   27  P   UNL     1     -10.904  16.222  68.517  1.00  0.00    -0.357 P  
HETATM   28  C   UNL     1      -7.346  13.160  67.948  1.00  0.00    -0.131 C  
HETATM   29  O   UNL     1      -7.415  14.064  68.948  1.00  0.00    -0.120 OA 
HETATM   30  O   UNL     1      -6.363  13.077  67.226  1.00  0.00    -0.248 OA 
ENDBRANCH  15  16
ENDBRANCH   5  15
TORSDOF 2
ENDMDL
MODEL      112
REMARK 921   NORMALIZED FREE ENERGY PREDICTED BY IDOCK:   -5.07 KCAL/MOL
REMARK 922        TOTAL FREE ENERGY PREDICTED BY IDOCK:   -6.37 KCAL/MOL
REMARK 923 INTER-LIGAND FREE ENERGY PREDICTED BY IDOCK:   -6.07 KCAL/MOL
REMARK 924 INTRA-LIGAND FREE ENERGY PREDICTED BY IDOCK:   -0.31 KCAL/MOL
REMARK 927      BINDING AFFINITY PREDICTED BY RF-SCORE:    0.00 PKD
ROOT
HETATM    1  O   UNL     1     -12.439  10.948  68.629  1.00  0.00    -0.772 OA 
HETATM    2  C   UNL     1     -11.587  12.107  68.533  1.00  0.00    -0.315 C  
HETATM    3  H   UNL     1     -13.341  11.246  68.642  1.00  0.00     0.000 HD 
HETATM    4  C   UNL     1     -10.129  11.625  68.513  1.00  0.00    -0.206 C  
HETATM    5  C   UNL     1      -9.782  10.965  67.143  1.00  0.00    -0.174 C  
HETATM    6  O   UNL     1      -9.984  10.761  69.655  1.00  0.00    -0.426 OA 
HETATM    7  O   UNL     1     -13.216  12.987  64.493  1.00  0.00    -0.568 OA 
HETATM    8  H   UNL     1      -9.082  10.463  69.642  1.00  0.00     0.000 HD 
HETATM    9  O   UNL     1     -10.144  11.843  66.051  1.00  0.00    -0.219 OA 
HETATM   10  C   UNL     1     -11.571  12.072  66.051  1.00  0.00    -0.305 C  
HETATM   11  O   UNL     1     -11.046  12.890  63.856  1.00  0.00    -0.394 OA 
HETATM   12  P   UNL     1     -11.243  14.618  67.296  1.00  0.00    -0.356 P  
HETATM   13  C   UNL     1     -11.982  12.892  67.279  1.00  0.00    -0.309 C  
HETATM   14  C   UNL     1     -12.056  12.703  64.749  1.00  0.00    -0.436 C  
ENDROOT
BRANCH   5  15
HETATM   15  O   UNL     1      -8.387  10.630  66.996  1.00  0.00    -0.123 OA 
BRANCH  15  16
HETATM   16  C   UNL     1      -8.059   9.216  66.934  1.00  0.00    -0.112 C  
HETATM   17  O   UNL     1     -10.001   8.565  65.535  1.00  0.00    -0.309 OA 
HETATM   18  C   UNL     1      -8.569   8.535  65.653  1.00  0.00    -0.177 C  
HETATM   19  C   UNL     1      -7.925   9.235  64.459  1.00  0.00    -0.128 C  
HETATM   20  O   UNL     1      -8.589   8.798  63.268  1.00  0.00    -0.358 OA 
HETATM   21  H   UNL     1     -10.316   8.144  64.744  1.00  0.00     0.000 HD 
HETATM   22  C   UNL     1      -6.405   8.969  64.513  1.00  0.00    -0.071 C  
HETATM   23  O   UNL     1      -5.840   9.418  65.759  1.00  0.00    -0.052 OA 
HETATM   24  O   UNL     1      -6.070   7.585  64.349  1.00  0.00    -0.037 OA 
HETATM   25  H   UNL     1      -8.188   9.234  62.525  1.00  0.00     0.000 HD 
HETATM   26  C   UNL     1      -6.520   9.059  66.974  1.00  0.00    -0.061 C  
HETATM   27  P   UNL     1      -6.150   6.914  62.871  1.00  0.00    -0.041 P  
HETATM   28  C   UNL     1      -6.168   7.670  67.539  1.00  0.00    -0.050 C  
HETATM   29  O   UNL     1      -5.174   7.042  66.877  1.00  0.00    -0.016 OA 
HETATM   30  O   UNL     1      -6.711   7.164  68.511  1.00  0.00    -0.056 OA 
ENDBRANCH  15  16
ENDBRANCH   5  15
TORSDOF 2
ENDMDL
MODEL      113
REMARK 921   NORMALIZED FREE ENERGY PREDICTED BY IDOCK:   -5.07 KCAL/MOL
REMARK 922        TOTAL FREE ENERGY PREDICTED BY IDOCK:   -6.37 KCAL/MOL
REMARK 923 INTER-LIGAND FREE ENERGY PREDICTED BY IDOCK:   -5.78 KCAL/MOL
REMARK 924 INTRA-LIGAND FREE ENERGY PREDICTED BY IDOCK:   -0.59 KCAL/MOL
REMARK 927      BINDING AFFINITY PREDICTED BY RF-SCORE:    0.00 PKD
ROOT
HETATM    1  O   UNL     1      -9.537   5.084  69.472  1.00  0.00    -0.136 OA 
HETATM    2  C   UNL     1     -10.250   5.100  68.219  1.00  0.00    -0.111 C  
HETATM    3  H   UNL     1      -9.092   4.249  69.546  1.00  0.00     0.000 HD 
HETATM    4  C   UNL     1     -10.971   6.451  68.099  1.00  0.00    -0.307 C  
HETATM    5  C   UNL     1      -9.955   7.597  67.804  1.00  0.00    -0.174 C  
HETATM    6  O   UNL     1     -11.722   6.606  69.316  1.00  0.00    -0.645 OA 
HETATM    7  O   UNL     1      -6.397   4.946  66.008  1.00  0.00    -0.037 OA 
HETATM    8  H   UNL     1     -12.168   7.442  69.241  1.00  0.00     0.000 HD 
HETATM    9  O   UNL     1      -9.118   7.255  66.674  1.00  0.00    -0.141 OA 
HETATM   10  C   UNL     1      -8.337   6.076  66.973  1.00  0.00    -0.105 C  
HETATM   11  O   UNL     1      -7.156   6.841  65.029  1.00  0.00    -0.059 OA 
HETATM   12  P   UNL     1     -10.121   4.420  65.485  1.00  0.00    -0.146 P  
HETATM   13  C   UNL     1      -9.245   4.847  67.090  1.00  0.00    -0.123 C  
HETATM   14  C   UNL     1      -7.205   5.862  65.973  1.00  0.00    -0.075 C  
ENDROOT
BRANCH   5  15
HETATM   15  O   UNL     1     -10.577   8.867  67.525  1.00  0.00    -0.271 OA 
BRANCH  15  16
HETATM   16  C   UNL     1     -10.411   9.909  68.523  1.00  0.00    -0.196 C  
HETATM   17  O   UNL     1      -8.054  10.432  67.957  1.00  0.00    -0.108 OA 
HETATM   18  C   UNL     1      -9.376  10.972  68.119  1.00  0.00    -0.173 C  
HETATM   19  C   UNL     1      -9.847  11.618  66.819  1.00  0.00    -0.200 C  
HETATM   20  O   UNL     1      -8.774  12.407  66.293  1.00  0.00    -0.406 OA 
HETATM   21  H   UNL     1      -7.414  11.089  67.707  1.00  0.00     0.000 HD 
HETATM   22  C   UNL     1     -11.156  12.382  67.113  1.00  0.00    -0.280 C  
HETATM   23  O   UNL     1     -12.158  11.507  67.663  1.00  0.00    -0.623 OA 
HETATM   24  O   UNL     1     -10.977  13.476  68.020  1.00  0.00    -0.239 OA 
HETATM   25  H   UNL     1      -9.067  12.809  65.484  1.00  0.00     0.000 HD 
HETATM   26  C   UNL     1     -11.768  10.623  68.729  1.00  0.00    -0.188 C  
HETATM   27  P   UNL     1     -10.280  14.846  67.492  1.00  0.00    -0.234 P  
HETATM   28  C   UNL     1     -11.807  11.238  70.141  1.00  0.00    -0.364 C  
HETATM   29  O   UNL     1     -12.326  12.483  70.185  1.00  0.00    -0.239 OA 
HETATM   30  O   UNL     1     -11.427  10.666  71.152  1.00  0.00    -0.196 OA 
ENDBRANCH  15  16
ENDBRANCH   5  15
TORSDOF 2
ENDMDL
MODEL      114
REMARK 921   NORMALIZED FREE ENERGY PREDICTED BY IDOCK:   -5.03 KCAL/MOL
REMARK 922        TOTAL FREE ENERGY PREDICTED BY IDOCK:   -6.33 KCAL/MOL
REMARK 923 INTER-LIGAND FREE ENERGY PREDICTED BY IDOCK:   -5.96 KCAL/MOL
REMARK 924 INTRA-LIGAND FREE ENERGY PREDICTED BY IDOCK:   -0.37 KCAL/MOL
REMARK 927      BINDING AFFINITY PREDICTED BY RF-SCORE:    0.00 PKD
ROOT
HETATM    1  O   UNL     1      -8.626   8.411  70.116  1.00  0.00    -0.125 OA 
HETATM    2  C   UNL     1      -9.805   8.012  69.389  1.00  0.00    -0.181 C  
HETATM    3  H   UNL     1      -8.062   7.652  70.202  1.00  0.00     0.000 HD 
HETATM    4  C   UNL     1     -10.716   9.241  69.250  1.00  0.00    -0.196 C  
HETATM    5  C   UNL     1     -10.134  10.251  68.215  1.00  0.00    -0.154 C  
HETATM    6  O   UNL     1     -10.877   9.764  70.581  1.00  0.00    -0.285 OA 
HETATM    7  O   UNL     1      -7.332   7.228  65.780  1.00  0.00    -0.071 OA 
HETATM    8  H   UNL     1     -11.441  10.524  70.496  1.00  0.00     0.000 HD 
HETATM    9  O   UNL     1      -9.828   9.580  66.969  1.00  0.00    -0.168 OA 
HETATM   10  C   UNL     1      -8.814   8.573  67.183  1.00  0.00    -0.129 C  
HETATM   11  O   UNL     1      -8.741   8.697  64.787  1.00  0.00    -0.159 OA 
HETATM   12  P   UNL     1     -10.770   6.496  67.215  1.00  0.00    -0.410 P  
HETATM   13  C   UNL     1      -9.366   7.430  68.042  1.00  0.00    -0.135 C  
HETATM   14  C   UNL     1      -8.212   8.070  65.873  1.00  0.00    -0.127 C  
ENDROOT
BRANCH   5  15
HETATM   15  O   UNL     1     -11.014  11.353  67.919  1.00  0.00    -0.208 OA 
BRANCH  15  16
HETATM   16  C   UNL     1     -10.740  12.607  68.599  1.00  0.00    -0.242 C  
HETATM   17  O   UNL     1      -8.367  12.766  67.894  1.00  0.00    -0.149 OA 
HETATM   18  C   UNL     1      -9.639  13.435  67.915  1.00  0.00    -0.216 C  
HETATM   19  C   UNL     1     -10.097  13.746  66.493  1.00  0.00    -0.286 C  
HETATM   20  O   UNL     1      -8.983  14.274  65.765  1.00  0.00    -0.358 OA 
HETATM   21  H   UNL     1      -7.687  13.277  67.472  1.00  0.00     0.000 HD 
HETATM   22  C   UNL     1     -11.335  14.664  66.580  1.00  0.00    -0.353 C  
HETATM   23  O   UNL     1     -12.385  14.053  67.353  1.00  0.00    -0.322 OA 
HETATM   24  O   UNL     1     -11.047  15.943  67.157  1.00  0.00    -0.270 OA 
HETATM   25  H   UNL     1      -9.268  14.467  64.879  1.00  0.00     0.000 HD 
HETATM   26  C   UNL     1     -12.032  13.459  68.615  1.00  0.00    -0.327 C  
HETATM   27  P   UNL     1     -10.264  17.059  66.274  1.00  0.00    -0.263 P  
HETATM   28  C   UNL     1     -11.983  14.431  69.809  1.00  0.00    -0.332 C  
HETATM   29  O   UNL     1     -12.403  15.680  69.520  1.00  0.00    -0.294 OA 
HETATM   30  O   UNL     1     -11.617  14.121  70.934  1.00  0.00    -0.200 OA 
ENDBRANCH  15  16
ENDBRANCH   5  15
TORSDOF 2
ENDMDL
MODEL      115
REMARK 921   NORMALIZED FREE ENERGY PREDICTED BY IDOCK:   -5.03 KCAL/MOL
REMARK 922        TOTAL FREE ENERGY PREDICTED BY IDOCK:   -6.32 KCAL/MOL
REMARK 923 INTER-LIGAND FREE ENERGY PREDICTED BY IDOCK:   -5.42 KCAL/MOL
REMARK 924 INTRA-LIGAND FREE ENERGY PREDICTED BY IDOCK:   -0.90 KCAL/MOL
REMARK 927      BINDING AFFINITY PREDICTED BY RF-SCORE:    0.00 PKD
ROOT
HETATM    1  O   UNL     1     -11.865  11.918  66.715  1.00  0.00    -0.598 OA 
HETATM    2  C   UNL     1     -10.799  12.495  67.495  1.00  0.00    -0.232 C  
HETATM    3  H   UNL     1     -11.803  12.264  65.832  1.00  0.00     0.000 HD 
HETATM    4  C   UNL     1     -10.899  11.936  68.923  1.00  0.00    -0.221 C  
HETATM    5  C   UNL     1     -10.442  10.445  68.968  1.00  0.00    -0.219 C  
HETATM    6  O   UNL     1     -12.256  12.166  69.342  1.00  0.00    -0.207 OA 
HETATM    7  O   UNL     1      -7.799  10.393  64.978  1.00  0.00    -0.147 OA 
HETATM    8  H   UNL     1     -12.318  11.820  70.224  1.00  0.00     0.000 HD 
HETATM    9  O   UNL     1      -9.143  10.294  68.348  1.00  0.00    -0.129 OA 
HETATM   10  C   UNL     1      -9.213  10.664  66.953  1.00  0.00    -0.155 C  
HETATM   11  O   UNL     1      -7.095   9.535  66.952  1.00  0.00    -0.084 OA 
HETATM   12  P   UNL     1      -8.074  13.223  67.493  1.00  0.00    -0.175 P  
HETATM   13  C   UNL     1      -9.469  12.168  66.810  1.00  0.00    -0.212 C  
HETATM   14  C   UNL     1      -7.981  10.212  66.172  1.00  0.00    -0.125 C  
ENDROOT
BRANCH   5  15
HETATM   15  O   UNL     1     -10.362   9.903  70.301  1.00  0.00    -0.265 OA 
BRANCH  15  16
HETATM   16  C   UNL     1     -10.220   8.461  70.412  1.00  0.00    -0.197 C  
HETATM   17  O   UNL     1      -7.775   8.412  70.000  1.00  0.00    -0.085 OA 
HETATM   18  C   UNL     1      -8.828   8.028  70.899  1.00  0.00    -0.139 C  
HETATM   19  C   UNL     1      -8.598   8.644  72.277  1.00  0.00    -0.105 C  
HETATM   20  O   UNL     1      -7.219   8.477  72.621  1.00  0.00    -0.223 OA 
HETATM   21  H   UNL     1      -6.915   8.145  70.300  1.00  0.00     0.000 HD 
HETATM   22  C   UNL     1      -9.612   8.014  73.256  1.00  0.00    -0.252 C  
HETATM   23  O   UNL     1     -10.965   8.213  72.805  1.00  0.00    -0.369 OA 
HETATM   24  O   UNL     1      -9.412   6.609  73.447  1.00  0.00    -0.135 OA 
HETATM   25  H   UNL     1      -7.075   8.860  73.478  1.00  0.00     0.000 HD 
HETATM   26  C   UNL     1     -11.263   7.934  71.426  1.00  0.00    -0.247 C  
HETATM   27  P   UNL     1      -8.179   6.097  74.373  1.00  0.00    -0.120 P  
HETATM   28  C   UNL     1     -11.580   6.461  71.107  1.00  0.00    -0.318 C  
HETATM   29  O   UNL     1     -11.656   5.666  72.195  1.00  0.00    -0.240 OA 
HETATM   30  O   UNL     1     -11.768   6.025  69.980  1.00  0.00    -0.221 OA 
ENDBRANCH  15  16
ENDBRANCH   5  15
TORSDOF 2
ENDMDL
MODEL      116
REMARK 921   NORMALIZED FREE ENERGY PREDICTED BY IDOCK:   -5.01 KCAL/MOL
REMARK 922        TOTAL FREE ENERGY PREDICTED BY IDOCK:   -6.31 KCAL/MOL
REMARK 923 INTER-LIGAND FREE ENERGY PREDICTED BY IDOCK:   -5.61 KCAL/MOL
REMARK 924 INTRA-LIGAND FREE ENERGY PREDICTED BY IDOCK:   -0.70 KCAL/MOL
REMARK 927      BINDING AFFINITY PREDICTED BY RF-SCORE:    0.00 PKD
ROOT
HETATM    1  O   UNL     1      -7.326   6.469  72.883  1.00  0.00    -0.085 OA 
HETATM    2  C   UNL     1      -8.751   6.633  73.030  1.00  0.00    -0.120 C  
HETATM    3  H   UNL     1      -7.098   5.596  73.181  1.00  0.00     0.000 HD 
HETATM    4  C   UNL     1      -9.118   8.044  72.547  1.00  0.00    -0.209 C  
HETATM    5  C   UNL     1      -9.031   8.140  70.993  1.00  0.00    -0.151 C  
HETATM    6  O   UNL     1      -8.249   8.943  73.259  1.00  0.00    -0.342 OA 
HETATM    7  O   UNL     1      -9.444   3.481  69.974  1.00  0.00    -0.170 OA 
HETATM    8  H   UNL     1      -8.476   9.816  72.960  1.00  0.00     0.000 HD 
HETATM    9  O   UNL     1      -9.789   7.072  70.376  1.00  0.00    -0.179 OA 
HETATM   10  C   UNL     1      -9.232   5.790  70.745  1.00  0.00    -0.152 C  
HETATM   11  O   UNL     1     -10.627   5.098  68.919  1.00  0.00    -0.133 OA 
HETATM   12  P   UNL     1     -11.260   5.386  72.711  1.00  0.00    -0.236 P  
HETATM   13  C   UNL     1      -9.447   5.522  72.238  1.00  0.00    -0.145 C  
HETATM   14  C   UNL     1      -9.764   4.656  69.874  1.00  0.00    -0.209 C  
ENDROOT
BRANCH   5  15
HETATM   15  O   UNL     1      -9.513   9.389  70.459  1.00  0.00    -0.240 OA 
BRANCH  15  16
HETATM   16  C   UNL     1     -10.352   9.314  69.277  1.00  0.00    -0.215 C  
HETATM   17  O   UNL     1     -12.432  10.080  70.390  1.00  0.00    -0.465 OA 
HETATM   18  C   UNL     1     -11.521  10.312  69.303  1.00  0.00    -0.160 C  
HETATM   19  C   UNL     1     -10.937  11.719  69.392  1.00  0.00    -0.125 C  
HETATM   20  O   UNL     1     -12.001  12.631  69.689  1.00  0.00    -0.315 OA 
HETATM   21  H   UNL     1     -13.154  10.697  70.407  1.00  0.00     0.000 HD 
HETATM   22  C   UNL     1     -10.162  11.998  68.087  1.00  0.00    -0.201 C  
HETATM   23  O   UNL     1      -9.136  11.012  67.869  1.00  0.00    -0.141 OA 
HETATM   24  O   UNL     1     -11.003  12.026  66.928  1.00  0.00    -0.253 OA 
HETATM   25  H   UNL     1     -11.637  13.507  69.745  1.00  0.00     0.000 HD 
HETATM   26  C   UNL     1      -9.489   9.627  68.031  1.00  0.00    -0.132 C  
HETATM   27  P   UNL     1     -11.949  13.320  66.659  1.00  0.00    -0.325 P  
HETATM   28  C   UNL     1     -10.122   8.960  66.796  1.00  0.00    -0.280 C  
HETATM   29  O   UNL     1     -10.137   9.741  65.696  1.00  0.00    -0.296 OA 
HETATM   30  O   UNL     1     -10.564   7.820  66.779  1.00  0.00    -0.331 OA 
ENDBRANCH  15  16
ENDBRANCH   5  15
TORSDOF 2
ENDMDL
MODEL      117
REMARK 921   NORMALIZED FREE ENERGY PREDICTED BY IDOCK:   -5.01 KCAL/MOL
REMARK 922        TOTAL FREE ENERGY PREDICTED BY IDOCK:   -6.31 KCAL/MOL
REMARK 923 INTER-LIGAND FREE ENERGY PREDICTED BY IDOCK:   -5.40 KCAL/MOL
REMARK 924 INTRA-LIGAND FREE ENERGY PREDICTED BY IDOCK:   -0.91 KCAL/MOL
REMARK 927      BINDING AFFINITY PREDICTED BY RF-SCORE:    0.00 PKD
ROOT
HETATM    1  O   UNL     1      -9.777   9.158  64.639  1.00  0.00    -0.299 OA 
HETATM    2  C   UNL     1      -8.517   8.861  65.272  1.00  0.00    -0.169 C  
HETATM    3  H   UNL     1     -10.084   8.368  64.211  1.00  0.00     0.000 HD 
HETATM    4  C   UNL     1      -8.020  10.139  65.964  1.00  0.00    -0.124 C  
HETATM    5  C   UNL     1      -8.859  10.440  67.244  1.00  0.00    -0.132 C  
HETATM    6  O   UNL     1      -8.055  11.170  64.961  1.00  0.00    -0.359 OA 
HETATM    7  O   UNL     1     -10.554   6.033  68.031  1.00  0.00    -0.211 OA 
HETATM    8  H   UNL     1      -7.748  11.960  65.389  1.00  0.00     0.000 HD 
HETATM    9  O   UNL     1      -8.918   9.273  68.097  1.00  0.00    -0.129 OA 
HETATM   10  C   UNL     1      -9.583   8.188  67.411  1.00  0.00    -0.160 C  
HETATM   11  O   UNL     1      -9.638   7.324  69.649  1.00  0.00    -0.156 OA 
HETATM   12  P   UNL     1      -7.089   6.954  66.782  1.00  0.00    -0.078 P  
HETATM   13  C   UNL     1      -8.728   7.692  66.240  1.00  0.00    -0.152 C  
HETATM   14  C   UNL     1      -9.974   7.057  68.358  1.00  0.00    -0.154 C  
ENDROOT
BRANCH   5  15
HETATM   15  O   UNL     1      -8.350  11.537  68.028  1.00  0.00    -0.132 OA 
BRANCH  15  16
HETATM   16  C   UNL     1      -9.310  12.548  68.436  1.00  0.00    -0.149 C  
HETATM   17  O   UNL     1      -7.665  14.021  69.567  1.00  0.00    -0.337 OA 
HETATM   18  C   UNL     1      -8.692  13.950  68.563  1.00  0.00    -0.134 C  
HETATM   19  C   UNL     1      -8.126  14.341  67.200  1.00  0.00    -0.129 C  
HETATM   20  O   UNL     1      -7.318  15.511  67.366  1.00  0.00    -0.173 OA 
HETATM   21  H   UNL     1      -7.283  14.886  69.646  1.00  0.00     0.000 HD 
HETATM   22  C   UNL     1      -9.307  14.479  66.216  1.00  0.00    -0.247 C  
HETATM   23  O   UNL     1     -10.071  13.261  66.143  1.00  0.00    -0.282 OA 
HETATM   24  O   UNL     1     -10.203  15.543  66.557  1.00  0.00    -0.265 OA 
HETATM   25  H   UNL     1      -6.965  15.754  66.518  1.00  0.00     0.000 HD 
HETATM   26  C   UNL     1     -10.437  12.621  67.378  1.00  0.00    -0.224 C  
HETATM   27  P   UNL     1      -9.764  17.081  66.268  1.00  0.00    -0.236 P  
HETATM   28  C   UNL     1     -11.720  13.157  68.041  1.00  0.00    -0.355 C  
HETATM   29  O   UNL     1     -12.385  14.066  67.298  1.00  0.00    -0.351 OA 
HETATM   30  O   UNL     1     -12.133  12.796  69.134  1.00  0.00    -0.261 OA 
ENDBRANCH  15  16
ENDBRANCH   5  15
TORSDOF 2
ENDMDL
MODEL      118
REMARK 921   NORMALIZED FREE ENERGY PREDICTED BY IDOCK:   -5.01 KCAL/MOL
REMARK 922        TOTAL FREE ENERGY PREDICTED BY IDOCK:   -6.30 KCAL/MOL
REMARK 923 INTER-LIGAND FREE ENERGY PREDICTED BY IDOCK:   -5.89 KCAL/MOL
REMARK 924 INTRA-LIGAND FREE ENERGY PREDICTED BY IDOCK:   -0.41 KCAL/MOL
REMARK 927      BINDING AFFINITY PREDICTED BY RF-SCORE:    0.00 PKD
ROOT
HETATM    1  O   UNL     1     -10.451  11.265  65.324  1.00  0.00    -0.270 OA 
HETATM    2  C   UNL     1     -11.114  11.730  66.517  1.00  0.00    -0.310 C  
HETATM    3  H   UNL     1     -10.638  11.880  64.625  1.00  0.00     0.000 HD 
HETATM    4  C   UNL     1     -10.812  10.735  67.647  1.00  0.00    -0.279 C  
HETATM    5  C   UNL     1      -9.335  10.874  68.130  1.00  0.00    -0.165 C  
HETATM    6  O   UNL     1     -11.160   9.437  67.133  1.00  0.00    -0.275 OA 
HETATM    7  O   UNL     1      -8.502  15.326  66.581  1.00  0.00    -0.259 OA 
HETATM    8  H   UNL     1     -10.973   8.822  67.832  1.00  0.00     0.000 HD 
HETATM    9  O   UNL     1      -9.032  12.255  68.442  1.00  0.00    -0.188 OA 
HETATM   10  C   UNL     1      -9.159  13.071  67.256  1.00  0.00    -0.209 C  
HETATM   11  O   UNL     1      -7.970  14.610  68.662  1.00  0.00    -0.129 OA 
HETATM   12  P   UNL     1     -11.730  13.999  68.075  1.00  0.00    -0.364 P  
HETATM   13  C   UNL     1     -10.625  13.151  66.815  1.00  0.00    -0.263 C  
HETATM   14  C   UNL     1      -8.536  14.453  67.434  1.00  0.00    -0.203 C  
ENDROOT
BRANCH   5  15
HETATM   15  O   UNL     1      -9.026  10.080  69.293  1.00  0.00    -0.155 OA 
BRANCH  15  16
HETATM   16  C   UNL     1     -10.070   9.191  69.772  1.00  0.00    -0.199 C  
HETATM   17  O   UNL     1      -9.526   7.312  68.246  1.00  0.00    -0.141 OA 
HETATM   18  C   UNL     1      -9.713   7.704  69.616  1.00  0.00    -0.171 C  
HETATM   19  C   UNL     1      -8.444   7.437  70.421  1.00  0.00    -0.142 C  
HETATM   20  O   UNL     1      -7.952   6.138  70.071  1.00  0.00    -0.106 OA 
HETATM   21  H   UNL     1      -9.306   6.394  68.149  1.00  0.00     0.000 HD 
HETATM   22  C   UNL     1      -8.773   7.647  71.914  1.00  0.00    -0.113 C  
HETATM   23  O   UNL     1      -9.284   8.971  72.155  1.00  0.00    -0.365 OA 
HETATM   24  O   UNL     1      -9.728   6.705  72.418  1.00  0.00    -0.156 OA 
HETATM   25  H   UNL     1      -7.162   5.973  70.571  1.00  0.00     0.000 HD 
HETATM   26  C   UNL     1     -10.309   9.466  71.276  1.00  0.00    -0.292 C  
HETATM   27  P   UNL     1      -9.260   5.179  72.721  1.00  0.00    -0.135 P  
HETATM   28  C   UNL     1     -11.747   9.054  71.644  1.00  0.00    -0.361 C  
HETATM   29  O   UNL     1     -11.847   8.391  72.814  1.00  0.00    -0.371 OA 
HETATM   30  O   UNL     1     -12.731   9.308  70.964  1.00  0.00    -0.270 OA 
ENDBRANCH  15  16
ENDBRANCH   5  15
TORSDOF 2
ENDMDL
MODEL      119
REMARK 921   NORMALIZED FREE ENERGY PREDICTED BY IDOCK:   -4.99 KCAL/MOL
REMARK 922        TOTAL FREE ENERGY PREDICTED BY IDOCK:   -6.28 KCAL/MOL
REMARK 923 INTER-LIGAND FREE ENERGY PREDICTED BY IDOCK:   -5.40 KCAL/MOL
REMARK 924 INTRA-LIGAND FREE ENERGY PREDICTED BY IDOCK:   -0.88 KCAL/MOL
REMARK 927      BINDING AFFINITY PREDICTED BY RF-SCORE:    0.00 PKD
ROOT
HETATM    1  O   UNL     1     -11.954   5.506  72.927  1.00  0.00    -0.537 OA 
HETATM    2  C   UNL     1     -10.705   6.107  72.532  1.00  0.00    -0.224 C  
HETATM    3  H   UNL     1     -12.195   5.859  73.775  1.00  0.00     0.000 HD 
HETATM    4  C   UNL     1     -10.316   5.535  71.160  1.00  0.00    -0.234 C  
HETATM    5  C   UNL     1     -11.223   6.123  70.036  1.00  0.00    -0.401 C  
HETATM    6  O   UNL     1     -10.374   4.104  71.298  1.00  0.00    -0.065 OA 
HETATM    7  O   UNL     1     -12.675  10.084  72.298  1.00  0.00    -0.318 OA 
HETATM    8  H   UNL     1     -10.133   3.751  70.450  1.00  0.00     0.000 HD 
HETATM    9  O   UNL     1     -11.245   7.568  70.106  1.00  0.00    -0.259 OA 
HETATM   10  C   UNL     1     -11.814   7.997  71.364  1.00  0.00    -0.295 C  
HETATM   11  O   UNL     1     -11.906  10.075  70.168  1.00  0.00    -0.238 OA 
HETATM   12  P   UNL     1      -9.225   8.506  72.450  1.00  0.00    -0.083 P  
HETATM   13  C   UNL     1     -10.883   7.628  72.525  1.00  0.00    -0.314 C  
HETATM   14  C   UNL     1     -12.173   9.480  71.363  1.00  0.00    -0.371 C  
ENDROOT
BRANCH   5  15
HETATM   15  O   UNL     1     -10.815   5.751  68.705  1.00  0.00    -0.256 OA 
BRANCH  15  16
HETATM   16  C   UNL     1      -9.394   5.536  68.495  1.00  0.00    -0.121 C  
HETATM   17  O   UNL     1      -9.494   3.059  68.576  1.00  0.00    -0.188 OA 
HETATM   18  C   UNL     1      -9.082   4.199  67.803  1.00  0.00    -0.136 C  
HETATM   19  C   UNL     1      -9.778   4.197  66.445  1.00  0.00    -0.208 C  
HETATM   20  O   UNL     1      -9.724   2.869  65.912  1.00  0.00    -0.383 OA 
HETATM   21  H   UNL     1      -9.302   2.233  68.149  1.00  0.00     0.000 HD 
HETATM   22  C   UNL     1      -9.128   5.293  65.574  1.00  0.00    -0.139 C  
HETATM   23  O   UNL     1      -9.211   6.582  66.210  1.00  0.00    -0.159 OA 
HETATM   24  O   UNL     1      -7.751   5.034  65.278  1.00  0.00    -0.084 OA 
HETATM   25  H   UNL     1     -10.157   2.867  65.067  1.00  0.00     0.000 HD 
HETATM   26  C   UNL     1      -8.845   6.672  67.598  1.00  0.00    -0.116 C  
HETATM   27  P   UNL     1      -7.371   3.908  64.169  1.00  0.00    -0.060 P  
HETATM   28  C   UNL     1      -7.340   6.850  67.871  1.00  0.00    -0.097 C  
HETATM   29  O   UNL     1      -6.595   7.024  66.759  1.00  0.00    -0.051 OA 
HETATM   30  O   UNL     1      -6.838   6.857  68.986  1.00  0.00    -0.063 OA 
ENDBRANCH  15  16
ENDBRANCH   5  15
TORSDOF 2
ENDMDL
MODEL      120
REMARK 921   NORMALIZED FREE ENERGY PREDICTED BY IDOCK:   -4.98 KCAL/MOL
REMARK 922        TOTAL FREE ENERGY PREDICTED BY IDOCK:   -6.27 KCAL/MOL
REMARK 923 INTER-LIGAND FREE ENERGY PREDICTED BY IDOCK:   -5.42 KCAL/MOL
REMARK 924 INTRA-LIGAND FREE ENERGY PREDICTED BY IDOCK:   -0.84 KCAL/MOL
REMARK 927      BINDING AFFINITY PREDICTED BY RF-SCORE:    0.00 PKD
ROOT
HETATM    1  O   UNL     1      -9.310   4.981  68.798  1.00  0.00    -0.116 OA 
HETATM    2  C   UNL     1     -10.114   4.926  67.603  1.00  0.00    -0.116 C  
HETATM    3  H   UNL     1      -8.833   4.163  68.870  1.00  0.00     0.000 HD 
HETATM    4  C   UNL     1     -10.885   6.250  67.488  1.00  0.00    -0.349 C  
HETATM    5  C   UNL     1      -9.932   7.413  67.074  1.00  0.00    -0.231 C  
HETATM    6  O   UNL     1     -11.548   6.431  68.752  1.00  0.00    -0.550 OA 
HETATM    7  O   UNL     1      -6.435   4.798  65.113  1.00  0.00    -0.034 OA 
HETATM    8  H   UNL     1     -12.025   7.250  68.680  1.00  0.00     0.000 HD 
HETATM    9  O   UNL     1      -9.171   7.051  65.897  1.00  0.00    -0.084 OA 
HETATM   10  C   UNL     1      -8.332   5.908  66.180  1.00  0.00    -0.124 C  
HETATM   11  O   UNL     1      -7.326   6.630  64.125  1.00  0.00    -0.065 OA 
HETATM   12  P   UNL     1     -10.168   4.143  64.895  1.00  0.00    -0.067 P  
HETATM   13  C   UNL     1      -9.189   4.659  66.412  1.00  0.00    -0.133 C  
HETATM   14  C   UNL     1      -7.272   5.688  65.106  1.00  0.00    -0.070 C  
ENDROOT
BRANCH   5  15
HETATM   15  O   UNL     1     -10.614   8.652  66.796  1.00  0.00    -0.269 OA 
BRANCH  15  16
HETATM   16  C   UNL     1      -9.804   9.857  66.797  1.00  0.00    -0.201 C  
HETATM   17  O   UNL     1      -9.083   9.684  64.430  1.00  0.00    -0.237 OA 
HETATM   18  C   UNL     1      -9.711  10.523  65.415  1.00  0.00    -0.257 C  
HETATM   19  C   UNL     1     -11.124  10.891  64.972  1.00  0.00     0.160 C  
HETATM   20  O   UNL     1     -11.083  11.258  63.589  1.00  0.00    -0.540 OA 
HETATM   21  H   UNL     1      -9.025  10.095  63.576  1.00  0.00     0.000 HD 
HETATM   22  C   UNL     1     -11.660  11.972  65.935  1.00  0.00    -0.300 C  
HETATM   23  O   UNL     1     -11.634  11.514  67.300  1.00  0.00    -0.506 OA 
HETATM   24  O   UNL     1     -10.925  13.200  65.866  1.00  0.00    -0.270 OA 
HETATM   25  H   UNL     1     -11.963  11.486  63.313  1.00  0.00     0.000 HD 
HETATM   26  C   UNL     1     -10.433  10.880  67.774  1.00  0.00    -0.203 C  
HETATM   27  P   UNL     1     -11.151  14.195  64.601  1.00  0.00    -0.294 P  
HETATM   28  C   UNL     1      -9.338  11.838  68.278  1.00  0.00    -0.193 C  
HETATM   29  O   UNL     1      -9.716  13.133  68.320  1.00  0.00    -0.222 OA 
HETATM   30  O   UNL     1      -8.223  11.484  68.634  1.00  0.00    -0.149 OA 
ENDBRANCH  15  16
ENDBRANCH   5  15
TORSDOF 2
ENDMDL
MODEL      121
REMARK 921   NORMALIZED FREE ENERGY PREDICTED BY IDOCK:   -4.95 KCAL/MOL
REMARK 922        TOTAL FREE ENERGY PREDICTED BY IDOCK:   -6.24 KCAL/MOL
REMARK 923 INTER-LIGAND FREE ENERGY PREDICTED BY IDOCK:   -5.32 KCAL/MOL
REMARK 924 INTRA-LIGAND FREE ENERGY PREDICTED BY IDOCK:   -0.92 KCAL/MOL
REMARK 927      BINDING AFFINITY PREDICTED BY RF-SCORE:    0.00 PKD
ROOT
HETATM    1  O   UNL     1     -12.605  10.779  69.127  1.00  0.00    -0.704 OA 
HETATM    2  C   UNL     1     -11.236  11.194  68.951  1.00  0.00    -0.256 C  
HETATM    3  H   UNL     1     -13.088  11.508  69.499  1.00  0.00     0.000 HD 
HETATM    4  C   UNL     1     -10.456  10.014  68.350  1.00  0.00    -0.205 C  
HETATM    5  C   UNL     1     -10.832   9.808  66.850  1.00  0.00    -0.050 C  
HETATM    6  O   UNL     1     -10.727   8.887  69.202  1.00  0.00    -0.308 OA 
HETATM    7  O   UNL     1     -12.515  14.194  65.932  1.00  0.00    -0.471 OA 
HETATM    8  H   UNL     1     -10.245   8.158  68.830  1.00  0.00     0.000 HD 
HETATM    9  O   UNL     1     -10.708  11.052  66.121  1.00  0.00    -0.253 OA 
HETATM   10  C   UNL     1     -11.630  12.032  66.648  1.00  0.00    -0.319 C  
HETATM   11  O   UNL     1     -11.049  13.114  64.586  1.00  0.00    -0.314 OA 
HETATM   12  P   UNL     1      -9.553  13.303  68.134  1.00  0.00    -0.205 P  
HETATM   13  C   UNL     1     -11.221  12.443  68.066  1.00  0.00    -0.268 C  
HETATM   14  C   UNL     1     -11.789  13.234  65.722  1.00  0.00    -0.387 C  
ENDROOT
BRANCH   5  15
HETATM   15  O   UNL     1     -10.025   8.819  66.180  1.00  0.00    -0.275 OA 
BRANCH  15  16
HETATM   16  C   UNL     1      -8.586   8.936  66.336  1.00  0.00    -0.126 C  
HETATM   17  O   UNL     1      -8.385   7.239  68.133  1.00  0.00    -0.123 OA 
HETATM   18  C   UNL     1      -7.926   7.639  66.831  1.00  0.00    -0.115 C  
HETATM   19  C   UNL     1      -8.214   6.543  65.809  1.00  0.00    -0.135 C  
HETATM   20  O   UNL     1      -7.845   5.284  66.381  1.00  0.00    -0.101 OA 
HETATM   21  H   UNL     1      -7.977   6.438  68.440  1.00  0.00     0.000 HD 
HETATM   22  C   UNL     1      -7.497   6.916  64.494  1.00  0.00    -0.099 C  
HETATM   23  O   UNL     1      -7.918   8.208  64.019  1.00  0.00    -0.140 OA 
HETATM   24  O   UNL     1      -6.070   6.933  64.617  1.00  0.00    -0.035 OA 
HETATM   25  H   UNL     1      -8.025   4.601  65.745  1.00  0.00     0.000 HD 
HETATM   26  C   UNL     1      -7.963   9.291  64.964  1.00  0.00    -0.118 C  
HETATM   27  P   UNL     1      -5.257   5.527  64.678  1.00  0.00    -0.010 P  
HETATM   28  C   UNL     1      -6.627  10.024  65.189  1.00  0.00    -0.115 C  
HETATM   29  O   UNL     1      -5.634   9.623  64.369  1.00  0.00    -0.067 OA 
HETATM   30  O   UNL     1      -6.457  10.907  66.018  1.00  0.00    -0.127 OA 
ENDBRANCH  15  16
ENDBRANCH   5  15
TORSDOF 2
ENDMDL
MODEL      122
REMARK 921   NORMALIZED FREE ENERGY PREDICTED BY IDOCK:   -4.94 KCAL/MOL
REMARK 922        TOTAL FREE ENERGY PREDICTED BY IDOCK:   -6.22 KCAL/MOL
REMARK 923 INTER-LIGAND FREE ENERGY PREDICTED BY IDOCK:   -5.36 KCAL/MOL
REMARK 924 INTRA-LIGAND FREE ENERGY PREDICTED BY IDOCK:   -0.87 KCAL/MOL
REMARK 927      BINDING AFFINITY PREDICTED BY RF-SCORE:    0.00 PKD
ROOT
HETATM    1  O   UNL     1      -6.500  12.034  66.372  1.00  0.00    -0.428 OA 
HETATM    2  C   UNL     1      -7.214  10.804  66.131  1.00  0.00    -0.126 C  
HETATM    3  H   UNL     1      -6.245  12.395  65.532  1.00  0.00     0.000 HD 
HETATM    4  C   UNL     1      -7.626  10.220  67.490  1.00  0.00    -0.094 C  
HETATM    5  C   UNL     1      -8.789  11.045  68.120  1.00  0.00    -0.141 C  
HETATM    6  O   UNL     1      -6.423  10.170  68.278  1.00  0.00    -0.053 OA 
HETATM    7  O   UNL     1     -10.467  13.070  64.120  1.00  0.00    -0.413 OA 
HETATM    8  H   UNL     1      -6.678   9.808  69.119  1.00  0.00     0.000 HD 
HETATM    9  O   UNL     1      -9.873  11.198  67.173  1.00  0.00    -0.183 OA 
HETATM   10  C   UNL     1      -9.421  11.936  66.015  1.00  0.00    -0.229 C  
HETATM   11  O   UNL     1     -11.791  12.074  65.663  1.00  0.00    -0.428 OA 
HETATM   12  P   UNL     1      -9.133   9.535  64.500  1.00  0.00    -0.049 P  
HETATM   13  C   UNL     1      -8.405  11.111  65.218  1.00  0.00     0.147 C  
HETATM   14  C   UNL     1     -10.579  12.418  65.147  1.00  0.00    -0.292 C  
ENDROOT
BRANCH   5  15
HETATM   15  O   UNL     1      -9.331  10.462  69.322  1.00  0.00    -0.195 OA 
BRANCH  15  16
HETATM   16  C   UNL     1      -9.289   9.014  69.421  1.00  0.00    -0.158 C  
HETATM   17  O   UNL     1      -7.188   8.908  70.736  1.00  0.00    -0.062 OA 
HETATM   18  C   UNL     1      -8.571   8.517  70.686  1.00  0.00    -0.148 C  
HETATM   19  C   UNL     1      -9.319   9.063  71.899  1.00  0.00    -0.075 C  
HETATM   20  O   UNL     1      -8.516   8.839  73.064  1.00  0.00    -0.402 OA 
HETATM   21  H   UNL     1      -6.744   8.601  71.517  1.00  0.00     0.000 HD 
HETATM   22  C   UNL     1     -10.723   8.423  71.922  1.00  0.00    -0.303 C  
HETATM   23  O   UNL     1     -11.435   8.683  70.698  1.00  0.00    -0.269 OA 
HETATM   24  O   UNL     1     -10.692   7.005  72.122  1.00  0.00    -0.211 OA 
HETATM   25  H   UNL     1      -8.982   9.180  73.818  1.00  0.00     0.000 HD 
HETATM   26  C   UNL     1     -10.739   8.474  69.457  1.00  0.00    -0.174 C  
HETATM   27  P   UNL     1     -10.383   6.414  73.605  1.00  0.00    -0.305 P  
HETATM   28  C   UNL     1     -10.754   7.027  68.930  1.00  0.00    -0.200 C  
HETATM   29  O   UNL     1     -11.529   6.188  69.648  1.00  0.00    -0.429 OA 
HETATM   30  O   UNL     1     -10.143   6.648  67.941  1.00  0.00    -0.136 OA 
ENDBRANCH  15  16
ENDBRANCH   5  15
TORSDOF 2
ENDMDL
MODEL      123
REMARK 921   NORMALIZED FREE ENERGY PREDICTED BY IDOCK:   -4.94 KCAL/MOL
REMARK 922        TOTAL FREE ENERGY PREDICTED BY IDOCK:   -6.22 KCAL/MOL
REMARK 923 INTER-LIGAND FREE ENERGY PREDICTED BY IDOCK:   -5.79 KCAL/MOL
REMARK 924 INTRA-LIGAND FREE ENERGY PREDICTED BY IDOCK:   -0.43 KCAL/MOL
REMARK 927      BINDING AFFINITY PREDICTED BY RF-SCORE:    0.00 PKD
ROOT
HETATM    1  O   UNL     1     -10.950  14.786  71.048  1.00  0.00    -0.533 OA 
HETATM    2  C   UNL     1     -11.479  14.683  69.710  1.00  0.00    -0.282 C  
HETATM    3  H   UNL     1     -11.326  14.086  71.567  1.00  0.00     0.000 HD 
HETATM    4  C   UNL     1     -10.871  15.817  68.871  1.00  0.00    -0.260 C  
HETATM    5  C   UNL     1      -9.372  15.529  68.552  1.00  0.00    -0.197 C  
HETATM    6  O   UNL     1     -11.112  17.028  69.610  1.00  0.00    -0.332 OA 
HETATM    7  O   UNL     1      -9.413  10.784  69.179  1.00  0.00    -0.194 OA 
HETATM    8  H   UNL     1     -10.736  17.728  69.091  1.00  0.00     0.000 HD 
HETATM    9  O   UNL     1      -9.219  14.207  67.985  1.00  0.00    -0.181 OA 
HETATM   10  C   UNL     1      -9.639  13.205  68.939  1.00  0.00     0.216 C  
HETATM   11  O   UNL     1      -8.472  11.797  67.385  1.00  0.00    -0.145 OA 
HETATM   12  P   UNL     1     -12.156  12.903  67.631  1.00  0.00     0.172 P  
HETATM   13  C   UNL     1     -11.152  13.288  69.170  1.00  0.00    -0.209 C  
HETATM   14  C   UNL     1      -9.193  11.802  68.540  1.00  0.00    -0.151 C  
ENDROOT
BRANCH   5  15
HETATM   15  O   UNL     1      -8.781  16.474  67.638  1.00  0.00    -0.188 OA 
BRANCH  15  16
HETATM   16  C   UNL     1      -8.706  17.854  68.084  1.00  0.00    -0.268 C  
HETATM   17  O   UNL     1      -6.560  17.613  69.304  1.00  0.00    -0.241 OA 
HETATM   18  C   UNL     1      -7.263  18.345  68.286  1.00  0.00    -0.263 C  
HETATM   19  C   UNL     1      -6.533  18.227  66.951  1.00  0.00    -0.179 C  
HETATM   20  O   UNL     1      -5.133  18.420  67.183  1.00  0.00    -0.130 OA 
HETATM   21  H   UNL     1      -5.669  17.916  69.430  1.00  0.00     0.000 HD 
HETATM   22  C   UNL     1      -7.188  19.214  65.960  1.00  0.00    -0.274 C  
HETATM   23  O   UNL     1      -8.597  18.953  65.819  1.00  0.00    -0.417 OA 
HETATM   24  O   UNL     1      -7.028  20.585  66.343  1.00  0.00    -0.252 OA 
HETATM   25  H   UNL     1      -4.679  18.346  66.352  1.00  0.00     0.000 HD 
HETATM   26  C   UNL     1      -9.369  18.759  67.017  1.00  0.00    -0.297 C  
HETATM   27  P   UNL     1      -5.588  21.309  66.135  1.00  0.00    -0.202 P  
HETATM   28  C   UNL     1      -9.873  20.049  67.691  1.00  0.00    -0.413 C  
HETATM   29  O   UNL     1      -9.623  21.172  66.986  1.00  0.00    -0.196 OA 
HETATM   30  O   UNL     1     -10.466  20.082  68.760  1.00  0.00    -0.377 OA 
ENDBRANCH  15  16
ENDBRANCH   5  15
TORSDOF 2
ENDMDL
MODEL      124
REMARK 921   NORMALIZED FREE ENERGY PREDICTED BY IDOCK:   -4.93 KCAL/MOL
REMARK 922        TOTAL FREE ENERGY PREDICTED BY IDOCK:   -6.21 KCAL/MOL
REMARK 923 INTER-LIGAND FREE ENERGY PREDICTED BY IDOCK:   -5.52 KCAL/MOL
REMARK 924 INTRA-LIGAND FREE ENERGY PREDICTED BY IDOCK:   -0.70 KCAL/MOL
REMARK 927      BINDING AFFINITY PREDICTED BY RF-SCORE:    0.00 PKD
ROOT
HETATM    1  O   UNL     1      -9.551   6.876  69.665  1.00  0.00    -0.147 OA 
HETATM    2  C   UNL     1      -8.826   7.491  68.581  1.00  0.00    -0.127 C  
HETATM    3  H   UNL     1      -8.996   6.207  70.048  1.00  0.00     0.000 HD 
HETATM    4  C   UNL     1      -9.723   8.573  67.962  1.00  0.00    -0.154 C  
HETATM    5  C   UNL     1      -9.831   9.811  68.904  1.00  0.00    -0.173 C  
HETATM    6  O   UNL     1     -10.975   7.926  67.668  1.00  0.00    -0.502 OA 
HETATM    7  O   UNL     1      -5.851   9.099  71.466  1.00  0.00    -0.059 OA 
HETATM    8  H   UNL     1     -11.529   8.595  67.285  1.00  0.00     0.000 HD 
HETATM    9  O   UNL     1      -8.514  10.268  69.294  1.00  0.00    -0.147 OA 
HETATM   10  C   UNL     1      -7.832   9.236  70.042  1.00  0.00    -0.116 C  
HETATM   11  O   UNL     1      -6.414  11.099  70.567  1.00  0.00    -0.306 OA 
HETATM   12  P   UNL     1      -6.314   8.469  67.751  1.00  0.00    -0.058 P  
HETATM   13  C   UNL     1      -7.509   8.043  69.136  1.00  0.00    -0.095 C  
HETATM   14  C   UNL     1      -6.595   9.764  70.762  1.00  0.00    -0.088 C  
ENDROOT
BRANCH   5  15
HETATM   15  O   UNL     1     -10.531  10.928  68.319  1.00  0.00    -0.165 OA 
BRANCH  15  16
HETATM   16  C   UNL     1      -9.773  11.767  67.407  1.00  0.00    -0.178 C  
HETATM   17  O   UNL     1     -10.595  10.692  65.328  1.00  0.00    -0.231 OA 
HETATM   18  C   UNL     1     -10.452  11.934  66.037  1.00  0.00    -0.245 C  
HETATM   19  C   UNL     1     -11.818  12.575  66.262  1.00  0.00    -0.390 C  
HETATM   20  O   UNL     1     -12.564  12.488  65.043  1.00  0.00    -0.592 OA 
HETATM   21  H   UNL     1     -11.014  10.794  64.482  1.00  0.00     0.000 HD 
HETATM   22  C   UNL     1     -11.593  14.001  66.808  1.00  0.00    -0.386 C  
HETATM   23  O   UNL     1     -10.811  13.980  68.016  1.00  0.00    -0.239 OA 
HETATM   24  O   UNL     1     -10.936  14.864  65.871  1.00  0.00    -0.324 OA 
HETATM   25  H   UNL     1     -13.415  12.886  65.184  1.00  0.00     0.000 HD 
HETATM   26  C   UNL     1      -9.620  13.174  68.034  1.00  0.00    -0.220 C  
HETATM   27  P   UNL     1     -11.773  15.462  64.613  1.00  0.00    -0.060 P  
HETATM   28  C   UNL     1      -8.360  13.849  67.461  1.00  0.00    -0.196 C  
HETATM   29  O   UNL     1      -8.529  15.149  67.142  1.00  0.00    -0.182 OA 
HETATM   30  O   UNL     1      -7.284  13.287  67.315  1.00  0.00    -0.137 OA 
ENDBRANCH  15  16
ENDBRANCH   5  15
TORSDOF 2
ENDMDL
MODEL      125
REMARK 921   NORMALIZED FREE ENERGY PREDICTED BY IDOCK:   -4.93 KCAL/MOL
REMARK 922        TOTAL FREE ENERGY PREDICTED BY IDOCK:   -6.21 KCAL/MOL
REMARK 923 INTER-LIGAND FREE ENERGY PREDICTED BY IDOCK:   -5.29 KCAL/MOL
REMARK 924 INTRA-LIGAND FREE ENERGY PREDICTED BY IDOCK:   -0.92 KCAL/MOL
REMARK 927      BINDING AFFINITY PREDICTED BY RF-SCORE:    0.00 PKD
ROOT
HETATM    1  O   UNL     1      -9.157   8.918  65.030  1.00  0.00    -0.382 OA 
HETATM    2  C   UNL     1     -10.028   9.329  66.102  1.00  0.00    -0.277 C  
HETATM    3  H   UNL     1      -9.147   9.608  64.377  1.00  0.00     0.000 HD 
HETATM    4  C   UNL     1     -10.043   8.212  67.157  1.00  0.00    -0.264 C  
HETATM    5  C   UNL     1      -8.699   8.178  67.948  1.00  0.00    -0.128 C  
HETATM    6  O   UNL     1     -10.358   7.002  66.445  1.00  0.00    -0.472 OA 
HETATM    7  O   UNL     1      -7.258  12.661  67.093  1.00  0.00    -0.128 OA 
HETATM    8  H   UNL     1     -10.368   6.312  67.097  1.00  0.00     0.000 HD 
HETATM    9  O   UNL     1      -8.379   9.492  68.462  1.00  0.00    -0.115 OA 
HETATM   10  C   UNL     1      -8.193  10.421  67.370  1.00  0.00    -0.117 C  
HETATM   11  O   UNL     1      -7.235  11.715  69.150  1.00  0.00    -0.112 OA 
HETATM   12  P   UNL     1     -10.813  11.492  67.733  1.00  0.00    -0.258 P  
HETATM   13  C   UNL     1      -9.521  10.668  66.646  1.00  0.00    -0.167 C  
HETATM   14  C   UNL     1      -7.533  11.720  67.821  1.00  0.00    -0.117 C  
ENDROOT
BRANCH   5  15
HETATM   15  O   UNL     1      -8.702   7.257  69.057  1.00  0.00    -0.132 OA 
BRANCH  15  16
HETATM   16  C   UNL     1      -9.943   7.134  69.800  1.00  0.00    -0.178 C  
HETATM   17  O   UNL     1     -10.699   5.047  68.693  1.00  0.00     0.031 OA 
HETATM   18  C   UNL     1     -10.413   5.678  69.953  1.00  0.00    -0.308 C  
HETATM   19  C   UNL     1      -9.326   4.907  70.696  1.00  0.00    -0.162 C  
HETATM   20  O   UNL     1      -9.622   3.509  70.607  1.00  0.00    -0.169 OA 
HETATM   21  H   UNL     1     -10.989   4.147  68.787  1.00  0.00     0.000 HD 
HETATM   22  C   UNL     1      -9.228   5.480  72.126  1.00  0.00    -0.143 C  
HETATM   23  O   UNL     1      -8.955   6.893  72.105  1.00  0.00    -0.133 OA 
HETATM   24  O   UNL     1     -10.416   5.270  72.899  1.00  0.00    -0.188 OA 
HETATM   25  H   UNL     1      -8.945   3.029  71.069  1.00  0.00     0.000 HD 
HETATM   26  C   UNL     1      -9.735   7.716  71.219  1.00  0.00    -0.160 C  
HETATM   27  P   UNL     1     -10.729   3.792  73.497  1.00  0.00    -0.246 P  
HETATM   28  C   UNL     1     -11.091   8.183  71.779  1.00  0.00    -0.270 C  
HETATM   29  O   UNL     1     -11.295   7.856  73.072  1.00  0.00    -0.408 OA 
HETATM   30  O   UNL     1     -11.922   8.811  71.138  1.00  0.00    -0.290 OA 
ENDBRANCH  15  16
ENDBRANCH   5  15
TORSDOF 2
ENDMDL
MODEL      126
REMARK 921   NORMALIZED FREE ENERGY PREDICTED BY IDOCK:   -4.92 KCAL/MOL
REMARK 922        TOTAL FREE ENERGY PREDICTED BY IDOCK:   -6.20 KCAL/MOL
REMARK 923 INTER-LIGAND FREE ENERGY PREDICTED BY IDOCK:   -5.61 KCAL/MOL
REMARK 924 INTRA-LIGAND FREE ENERGY PREDICTED BY IDOCK:   -0.59 KCAL/MOL
REMARK 927      BINDING AFFINITY PREDICTED BY RF-SCORE:    0.00 PKD
ROOT
HETATM    1  O   UNL     1     -12.210  14.437  65.509  1.00  0.00    -0.382 OA 
HETATM    2  C   UNL     1     -12.137  13.848  66.823  1.00  0.00    -0.439 C  
HETATM    3  H   UNL     1     -12.681  15.259  65.582  1.00  0.00     0.000 HD 
HETATM    4  C   UNL     1     -11.376  12.519  66.705  1.00  0.00    -0.334 C  
HETATM    5  C   UNL     1      -9.854  12.768  66.475  1.00  0.00    -0.258 C  
HETATM    6  O   UNL     1     -12.033  11.780  65.659  1.00  0.00    -0.352 OA 
HETATM    7  O   UNL     1      -9.598  17.222  68.210  1.00  0.00    -0.267 OA 
HETATM    8  H   UNL     1     -11.563  10.958  65.586  1.00  0.00     0.000 HD 
HETATM    9  O   UNL     1      -9.333  13.678  67.473  1.00  0.00    -0.207 OA 
HETATM   10  C   UNL     1      -9.985  14.963  67.363  1.00  0.00    -0.223 C  
HETATM   11  O   UNL     1      -8.135  15.583  68.760  1.00  0.00    -0.145 OA 
HETATM   12  P   UNL     1     -11.704  14.366  69.561  1.00  0.00    -0.349 P  
HETATM   13  C   UNL     1     -11.460  14.850  67.763  1.00  0.00    -0.338 C  
HETATM   14  C   UNL     1      -9.257  16.051  68.148  1.00  0.00    -0.195 C  
ENDROOT
BRANCH   5  15
HETATM   15  O   UNL     1      -9.056  11.568  66.510  1.00  0.00    -0.183 OA 
BRANCH  15  16
HETATM   16  C   UNL     1      -8.401  11.184  65.272  1.00  0.00     0.147 C  
HETATM   17  O   UNL     1      -6.092  11.655  66.048  1.00  0.00    -0.473 OA 
HETATM   18  C   UNL     1      -6.969  10.666  65.484  1.00  0.00    -0.050 C  
HETATM   19  C   UNL     1      -7.040   9.442  66.394  1.00  0.00    -0.088 C  
HETATM   20  O   UNL     1      -5.711   9.116  66.816  1.00  0.00    -0.046 OA 
HETATM   21  H   UNL     1      -5.208  11.336  66.179  1.00  0.00     0.000 HD 
HETATM   22  C   UNL     1      -7.794   8.328  65.637  1.00  0.00    -0.104 C  
HETATM   23  O   UNL     1      -9.105   8.765  65.234  1.00  0.00    -0.186 OA 
HETATM   24  O   UNL     1      -7.100   7.873  64.469  1.00  0.00    -0.068 OA 
HETATM   25  H   UNL     1      -5.756   8.355  67.383  1.00  0.00     0.000 HD 
HETATM   26  C   UNL     1      -9.220  10.054  64.604  1.00  0.00    -0.258 C  
HETATM   27  P   UNL     1      -5.806   6.904  64.635  1.00  0.00    -0.037 P  
HETATM   28  C   UNL     1      -8.960  10.069  63.086  1.00  0.00    -0.259 C  
HETATM   29  O   UNL     1      -8.786   8.846  62.545  1.00  0.00    -0.217 OA 
HETATM   30  O   UNL     1      -8.927  11.083  62.403  1.00  0.00    -0.298 OA 
ENDBRANCH  15  16
ENDBRANCH   5  15
TORSDOF 2
ENDMDL
MODEL      127
REMARK 921   NORMALIZED FREE ENERGY PREDICTED BY IDOCK:   -4.89 KCAL/MOL
REMARK 922        TOTAL FREE ENERGY PREDICTED BY IDOCK:   -6.17 KCAL/MOL
REMARK 923 INTER-LIGAND FREE ENERGY PREDICTED BY IDOCK:   -5.77 KCAL/MOL
REMARK 924 INTRA-LIGAND FREE ENERGY PREDICTED BY IDOCK:   -0.40 KCAL/MOL
REMARK 927      BINDING AFFINITY PREDICTED BY RF-SCORE:    0.00 PKD
ROOT
HETATM    1  O   UNL     1      -8.112  14.305  66.469  1.00  0.00    -0.275 OA 
HETATM    2  C   UNL     1      -9.354  13.644  66.153  1.00  0.00    -0.070 C  
HETATM    3  H   UNL     1      -8.140  15.177  66.095  1.00  0.00     0.000 HD 
HETATM    4  C   UNL     1      -9.308  12.232  66.757  1.00  0.00    -0.218 C  
HETATM    5  C   UNL     1      -9.461  12.287  68.308  1.00  0.00    -0.209 C  
HETATM    6  O   UNL     1      -8.080  11.644  66.291  1.00  0.00    -0.350 OA 
HETATM    7  O   UNL     1     -11.568  16.571  68.659  1.00  0.00    -0.261 OA 
HETATM    8  H   UNL     1      -8.052  10.771  66.664  1.00  0.00     0.000 HD 
HETATM    9  O   UNL     1     -10.624  13.066  68.675  1.00  0.00    -0.249 OA 
HETATM   10  C   UNL     1     -10.471  14.431  68.225  1.00  0.00    -0.245 C  
HETATM   11  O   UNL     1     -12.308  14.725  69.741  1.00  0.00    -0.302 OA 
HETATM   12  P   UNL     1     -12.150  13.958  65.967  1.00  0.00    -0.461 P  
HETATM   13  C   UNL     1     -10.505  14.497  66.695  1.00  0.00    -0.274 C  
HETATM   14  C   UNL     1     -11.490  15.369  68.864  1.00  0.00    -0.342 C  
ENDROOT
BRANCH   5  15
HETATM   15  O   UNL     1      -9.583  10.991  68.926  1.00  0.00    -0.196 OA 
BRANCH  15  16
HETATM   16  C   UNL     1      -8.504  10.049  68.685  1.00  0.00    -0.118 C  
HETATM   17  O   UNL     1      -7.099  10.774  70.596  1.00  0.00    -0.429 OA 
HETATM   18  C   UNL     1      -7.748   9.657  69.965  1.00  0.00    -0.157 C  
HETATM   19  C   UNL     1      -8.746   9.015  70.924  1.00  0.00    -0.229 C  
HETATM   20  O   UNL     1      -8.125   8.894  72.209  1.00  0.00    -0.376 OA 
HETATM   21  H   UNL     1      -6.632  10.532  71.387  1.00  0.00     0.000 HD 
HETATM   22  C   UNL     1      -9.234   7.694  70.292  1.00  0.00    -0.157 C  
HETATM   23  O   UNL     1      -9.816   7.920  68.995  1.00  0.00    -0.164 OA 
HETATM   24  O   UNL     1      -8.192   6.722  70.145  1.00  0.00    -0.128 OA 
HETATM   25  H   UNL     1      -8.746   8.495  72.806  1.00  0.00     0.000 HD 
HETATM   26  C   UNL     1      -9.098   8.758  68.071  1.00  0.00    -0.140 C  
HETATM   27  P   UNL     1      -7.662   5.916  71.453  1.00  0.00    -0.110 P  
HETATM   28  C   UNL     1      -8.012   8.044  67.245  1.00  0.00    -0.121 C  
HETATM   29  O   UNL     1      -7.979   6.707  67.417  1.00  0.00    -0.111 OA 
HETATM   30  O   UNL     1      -7.245   8.612  66.479  1.00  0.00    -0.078 OA 
ENDBRANCH  15  16
ENDBRANCH   5  15
TORSDOF 2
ENDMDL
MODEL      128
REMARK 921   NORMALIZED FREE ENERGY PREDICTED BY IDOCK:   -4.86 KCAL/MOL
REMARK 922        TOTAL FREE ENERGY PREDICTED BY IDOCK:   -6.13 KCAL/MOL
REMARK 923 INTER-LIGAND FREE ENERGY PREDICTED BY IDOCK:   -5.41 KCAL/MOL
REMARK 924 INTRA-LIGAND FREE ENERGY PREDICTED BY IDOCK:   -0.72 KCAL/MOL
REMARK 927      BINDING AFFINITY PREDICTED BY RF-SCORE:    0.00 PKD
ROOT
HETATM    1  O   UNL     1      -7.579  10.781  65.067  1.00  0.00    -0.348 OA 
HETATM    2  C   UNL     1      -7.069  10.514  66.388  1.00  0.00    -0.128 C  
HETATM    3  H   UNL     1      -7.348  10.048  64.509  1.00  0.00     0.000 HD 
HETATM    4  C   UNL     1      -7.443  11.700  67.290  1.00  0.00    -0.143 C  
HETATM    5  C   UNL     1      -8.967  11.687  67.620  1.00  0.00    -0.166 C  
HETATM    6  O   UNL     1      -6.983  12.878  66.603  1.00  0.00    -0.251 OA 
HETATM    7  O   UNL     1      -9.836   7.057  66.774  1.00  0.00    -0.178 OA 
HETATM    8  H   UNL     1      -7.214  13.611  67.161  1.00  0.00     0.000 HD 
HETATM    9  O   UNL     1      -9.365  10.391  68.128  1.00  0.00    -0.141 OA 
HETATM   10  C   UNL     1      -9.151   9.376  67.121  1.00  0.00    -0.130 C  
HETATM   11  O   UNL     1     -10.552   8.141  68.628  1.00  0.00    -0.193 OA 
HETATM   12  P   UNL     1      -6.727   8.538  68.371  1.00  0.00    -0.066 P  
HETATM   13  C   UNL     1      -7.652   9.181  66.869  1.00  0.00    -0.091 C  
HETATM   14  C   UNL     1      -9.852   8.065  67.463  1.00  0.00    -0.172 C  
ENDROOT
BRANCH   5  15
HETATM   15  O   UNL     1      -9.361  12.681  68.588  1.00  0.00    -0.115 OA 
BRANCH  15  16
HETATM   16  C   UNL     1     -10.480  13.534  68.228  1.00  0.00    -0.253 C  
HETATM   17  O   UNL     1     -12.187  11.734  68.238  1.00  0.00    -0.486 OA 
HETATM   18  C   UNL     1     -11.826  13.021  68.766  1.00  0.00    -0.317 C  
HETATM   19  C   UNL     1     -11.733  12.961  70.289  1.00  0.00    -0.107 C  
HETATM   20  O   UNL     1     -12.866  12.238  70.782  1.00  0.00    -0.162 OA 
HETATM   21  H   UNL     1     -13.018  11.417  68.570  1.00  0.00     0.000 HD 
HETATM   22  C   UNL     1     -11.580  14.404  70.815  1.00  0.00    -0.167 C  
HETATM   23  O   UNL     1     -10.430  15.051  70.239  1.00  0.00    -0.162 OA 
HETATM   24  O   UNL     1     -12.726  15.223  70.552  1.00  0.00    -0.384 OA 
HETATM   25  H   UNL     1     -12.808  12.200  71.729  1.00  0.00     0.000 HD 
HETATM   26  C   UNL     1     -10.241  14.945  68.817  1.00  0.00    -0.243 C  
HETATM   27  P   UNL     1     -14.070  15.024  71.444  1.00  0.00    -0.411 P  
HETATM   28  C   UNL     1     -11.005  15.982  67.973  1.00  0.00    -0.341 C  
HETATM   29  O   UNL     1     -11.644  16.922  68.700  1.00  0.00    -0.010 OA 
HETATM   30  O   UNL     1     -11.034  15.989  66.750  1.00  0.00    -0.248 OA 
ENDBRANCH  15  16
ENDBRANCH   5  15
TORSDOF 2
ENDMDL
MODEL      129
REMARK 921   NORMALIZED FREE ENERGY PREDICTED BY IDOCK:   -4.86 KCAL/MOL
REMARK 922        TOTAL FREE ENERGY PREDICTED BY IDOCK:   -6.13 KCAL/MOL
REMARK 923 INTER-LIGAND FREE ENERGY PREDICTED BY IDOCK:   -5.28 KCAL/MOL
REMARK 924 INTRA-LIGAND FREE ENERGY PREDICTED BY IDOCK:   -0.86 KCAL/MOL
REMARK 927      BINDING AFFINITY PREDICTED BY RF-SCORE:    0.00 PKD
ROOT
HETATM    1  O   UNL     1      -7.630  14.598  70.062  1.00  0.00    -0.402 OA 
HETATM    2  C   UNL     1      -7.724  14.773  68.635  1.00  0.00    -0.130 C  
HETATM    3  H   UNL     1      -7.779  15.442  70.473  1.00  0.00     0.000 HD 
HETATM    4  C   UNL     1      -7.481  13.409  67.972  1.00  0.00    -0.139 C  
HETATM    5  C   UNL     1      -8.708  12.468  68.173  1.00  0.00    -0.190 C  
HETATM    6  O   UNL     1      -6.245  12.918  68.522  1.00  0.00    -0.068 OA 
HETATM    7  O   UNL     1     -12.028  15.808  69.030  1.00  0.00    -0.385 OA 
HETATM    8  H   UNL     1      -6.095  12.074  68.112  1.00  0.00     0.000 HD 
HETATM    9  O   UNL     1      -9.928  13.131  67.765  1.00  0.00    -0.216 OA 
HETATM   10  C   UNL     1     -10.160  14.296  68.588  1.00  0.00    -0.238 C  
HETATM   11  O   UNL     1     -12.329  14.094  67.581  1.00  0.00    -0.273 OA 
HETATM   12  P   UNL     1      -9.157  16.029  66.556  1.00  0.00    -0.344 P  
HETATM   13  C   UNL     1      -9.098  15.366  68.312  1.00  0.00    -0.187 C  
HETATM   14  C   UNL     1     -11.578  14.839  68.438  1.00  0.00    -0.324 C  
ENDROOT
BRANCH   5  15
HETATM   15  O   UNL     1      -8.615  11.227  67.446  1.00  0.00    -0.132 OA 
BRANCH  15  16
HETATM   16  C   UNL     1      -8.451  11.325  66.006  1.00  0.00    -0.102 C  
HETATM   17  O   UNL     1      -5.973  11.207  66.023  1.00  0.00    -0.244 OA 
HETATM   18  C   UNL     1      -7.179  10.628  65.496  1.00  0.00    -0.052 C  
HETATM   19  C   UNL     1      -7.266   9.152  65.873  1.00  0.00    -0.093 C  
HETATM   20  O   UNL     1      -5.985   8.552  65.649  1.00  0.00    -0.044 OA 
HETATM   21  H   UNL     1      -5.187  10.777  65.708  1.00  0.00     0.000 HD 
HETATM   22  C   UNL     1      -8.442   8.528  65.092  1.00  0.00    -0.175 C  
HETATM   23  O   UNL     1      -9.675   9.219  65.365  1.00  0.00    -0.251 OA 
HETATM   24  O   UNL     1      -8.238   8.530  63.673  1.00  0.00    -0.164 OA 
HETATM   25  H   UNL     1      -6.039   7.634  65.885  1.00  0.00     0.000 HD 
HETATM   26  C   UNL     1      -9.665  10.656  65.319  1.00  0.00    -0.259 C  
HETATM   27  P   UNL     1      -7.211   7.458  63.013  1.00  0.00    -0.092 P  
HETATM   28  C   UNL     1      -9.857  11.271  63.920  1.00  0.00    -0.300 C  
HETATM   29  O   UNL     1     -10.134  10.369  62.955  1.00  0.00    -0.152 OA 
HETATM   30  O   UNL     1      -9.788  12.468  63.678  1.00  0.00    -0.323 OA 
ENDBRANCH  15  16
ENDBRANCH   5  15
TORSDOF 2
ENDMDL
MODEL      130
REMARK 921   NORMALIZED FREE ENERGY PREDICTED BY IDOCK:   -4.84 KCAL/MOL
REMARK 922        TOTAL FREE ENERGY PREDICTED BY IDOCK:   -6.12 KCAL/MOL
REMARK 923 INTER-LIGAND FREE ENERGY PREDICTED BY IDOCK:   -5.69 KCAL/MOL
REMARK 924 INTRA-LIGAND FREE ENERGY PREDICTED BY IDOCK:   -0.43 KCAL/MOL
REMARK 927      BINDING AFFINITY PREDICTED BY RF-SCORE:    0.00 PKD
ROOT
HETATM    1  O   UNL     1      -9.160  11.827  64.581  1.00  0.00    -0.408 OA 
HETATM    2  C   UNL     1     -10.423  12.060  65.235  1.00  0.00    -0.284 C  
HETATM    3  H   UNL     1      -9.056  12.480  63.900  1.00  0.00     0.000 HD 
HETATM    4  C   UNL     1     -10.589  11.002  66.337  1.00  0.00    -0.251 C  
HETATM    5  C   UNL     1      -9.644  11.301  67.541  1.00  0.00    -0.170 C  
HETATM    6  O   UNL     1     -10.372   9.731  65.699  1.00  0.00    -0.199 OA 
HETATM    7  O   UNL     1      -8.939  15.968  66.744  1.00  0.00    -0.208 OA 
HETATM    8  H   UNL     1     -10.475   9.077  66.380  1.00  0.00     0.000 HD 
HETATM    9  O   UNL     1      -9.806  12.669  67.985  1.00  0.00    -0.205 OA 
HETATM   10  C   UNL     1      -9.433  13.582  66.928  1.00  0.00    -0.258 C  
HETATM   11  O   UNL     1      -9.467  15.116  68.774  1.00  0.00    -0.193 OA 
HETATM   12  P   UNL     1     -12.167  14.032  66.245  1.00  0.00    -0.366 P  
HETATM   13  C   UNL     1     -10.431  13.495  65.768  1.00  0.00    -0.291 C  
HETATM   14  C   UNL     1      -9.260  15.012  67.432  1.00  0.00    -0.195 C  
ENDROOT
BRANCH   5  15
HETATM   15  O   UNL     1      -9.858  10.439  68.676  1.00  0.00    -0.163 OA 
BRANCH  15  16
HETATM   16  C   UNL     1      -8.983   9.286  68.794  1.00  0.00    -0.132 C  
HETATM   17  O   UNL     1      -7.714  10.128  70.753  1.00  0.00    -0.393 OA 
HETATM   18  C   UNL     1      -8.499   9.042  70.233  1.00  0.00    -0.168 C  
HETATM   19  C   UNL     1      -9.727   8.809  71.110  1.00  0.00    -0.247 C  
HETATM   20  O   UNL     1      -9.316   8.850  72.481  1.00  0.00    -0.308 OA 
HETATM   21  H   UNL     1      -7.416   9.977  71.641  1.00  0.00     0.000 HD 
HETATM   22  C   UNL     1     -10.398   7.497  70.652  1.00  0.00    -0.208 C  
HETATM   23  O   UNL     1     -10.746   7.547  69.256  1.00  0.00    -0.226 OA 
HETATM   24  O   UNL     1      -9.577   6.341  70.862  1.00  0.00    -0.173 OA 
HETATM   25  H   UNL     1     -10.080   8.706  73.026  1.00  0.00     0.000 HD 
HETATM   26  C   UNL     1      -9.753   8.026  68.332  1.00  0.00    -0.158 C  
HETATM   27  P   UNL     1      -9.405   5.746  72.364  1.00  0.00    -0.140 P  
HETATM   28  C   UNL     1      -8.746   6.968  67.843  1.00  0.00    -0.125 C  
HETATM   29  O   UNL     1      -9.021   5.714  68.256  1.00  0.00    -0.115 OA 
HETATM   30  O   UNL     1      -7.784   7.212  67.128  1.00  0.00    -0.104 OA 
ENDBRANCH  15  16
ENDBRANCH   5  15
TORSDOF 2
ENDMDL
MODEL      131
REMARK 921   NORMALIZED FREE ENERGY PREDICTED BY IDOCK:   -4.84 KCAL/MOL
REMARK 922        TOTAL FREE ENERGY PREDICTED BY IDOCK:   -6.12 KCAL/MOL
REMARK 923 INTER-LIGAND FREE ENERGY PREDICTED BY IDOCK:   -5.65 KCAL/MOL
REMARK 924 INTRA-LIGAND FREE ENERGY PREDICTED BY IDOCK:   -0.47 KCAL/MOL
REMARK 927      BINDING AFFINITY PREDICTED BY RF-SCORE:    0.00 PKD
ROOT
HETATM    1  O   UNL     1      -8.562   8.166  63.812  1.00  0.00    -0.397 OA 
HETATM    2  C   UNL     1      -7.948   8.668  65.016  1.00  0.00    -0.131 C  
HETATM    3  H   UNL     1      -8.282   7.267  63.692  1.00  0.00     0.000 HD 
HETATM    4  C   UNL     1      -8.402  10.123  65.209  1.00  0.00    -0.159 C  
HETATM    5  C   UNL     1      -9.892  10.183  65.665  1.00  0.00    -0.280 C  
HETATM    6  O   UNL     1      -8.121  10.792  63.966  1.00  0.00    -0.353 OA 
HETATM    7  O   UNL     1     -10.270   5.753  67.437  1.00  0.00    -0.159 OA 
HETATM    8  H   UNL     1      -8.402  11.692  64.086  1.00  0.00     0.000 HD 
HETATM    9  O   UNL     1     -10.107   9.325  66.810  1.00  0.00    -0.225 OA 
HETATM   10  C   UNL     1      -9.837   7.949  66.457  1.00  0.00    -0.202 C  
HETATM   11  O   UNL     1     -10.995   7.599  68.529  1.00  0.00    -0.020 OA 
HETATM   12  P   UNL     1      -7.263   8.058  67.682  1.00  0.00    -0.094 P  
HETATM   13  C   UNL     1      -8.343   7.752  66.177  1.00  0.00    -0.129 C  
HETATM   14  C   UNL     1     -10.362   6.969  67.502  1.00  0.00    -0.225 C  
ENDROOT
BRANCH   5  15
HETATM   15  O   UNL     1     -10.339  11.508  66.016  1.00  0.00    -0.231 OA 
BRANCH  15  16
HETATM   16  C   UNL     1      -9.329  12.552  66.045  1.00  0.00    -0.086 C  
HETATM   17  O   UNL     1      -9.961  13.580  63.878  1.00  0.00    -0.648 OA 
HETATM   18  C   UNL     1      -9.748  13.818  65.280  1.00  0.00    -0.004 C  
HETATM   19  C   UNL     1     -11.021  14.359  65.924  1.00  0.00    -0.312 C  
HETATM   20  O   UNL     1     -11.568  15.366  65.067  1.00  0.00    -0.291 OA 
HETATM   21  H   UNL     1     -10.220  14.362  63.405  1.00  0.00     0.000 HD 
HETATM   22  C   UNL     1     -10.673  14.817  67.357  1.00  0.00    -0.281 C  
HETATM   23  O   UNL     1     -10.106  13.740  68.126  1.00  0.00    -0.231 OA 
HETATM   24  O   UNL     1      -9.754  15.915  67.388  1.00  0.00    -0.225 OA 
HETATM   25  H   UNL     1     -12.361  15.703  65.468  1.00  0.00     0.000 HD 
HETATM   26  C   UNL     1      -9.068  12.952  67.517  1.00  0.00    -0.191 C  
HETATM   27  P   UNL     1     -10.281  17.408  67.024  1.00  0.00    -0.307 P  
HETATM   28  C   UNL     1      -7.646  13.530  67.639  1.00  0.00    -0.177 C  
HETATM   29  O   UNL     1      -7.564  14.632  68.413  1.00  0.00    -0.106 OA 
HETATM   30  O   UNL     1      -6.657  13.045  67.109  1.00  0.00    -0.184 OA 
ENDBRANCH  15  16
ENDBRANCH   5  15
TORSDOF 2
ENDMDL
MODEL      132
REMARK 921   NORMALIZED FREE ENERGY PREDICTED BY IDOCK:   -4.84 KCAL/MOL
REMARK 922        TOTAL FREE ENERGY PREDICTED BY IDOCK:   -6.11 KCAL/MOL
REMARK 923 INTER-LIGAND FREE ENERGY PREDICTED BY IDOCK:   -5.29 KCAL/MOL
REMARK 924 INTRA-LIGAND FREE ENERGY PREDICTED BY IDOCK:   -0.82 KCAL/MOL
REMARK 927      BINDING AFFINITY PREDICTED BY RF-SCORE:    0.00 PKD
ROOT
HETATM    1  O   UNL     1     -11.280   6.442  69.184  1.00  0.00    -0.407 OA 
HETATM    2  C   UNL     1     -10.065   6.502  68.411  1.00  0.00    -0.160 C  
HETATM    3  H   UNL     1     -11.258   5.648  69.705  1.00  0.00     0.000 HD 
HETATM    4  C   UNL     1     -10.101   7.787  67.569  1.00  0.00    -0.209 C  
HETATM    5  C   UNL     1      -9.871   9.043  68.463  1.00  0.00    -0.169 C  
HETATM    6  O   UNL     1     -11.358   7.764  66.869  1.00  0.00    -0.114 OA 
HETATM    7  O   UNL     1      -7.689   6.901  72.146  1.00  0.00    -0.092 OA 
HETATM    8  H   UNL     1     -11.380   8.558  66.348  1.00  0.00     0.000 HD 
HETATM    9  O   UNL     1      -8.680   8.880  69.270  1.00  0.00    -0.134 OA 
HETATM   10  C   UNL     1      -8.836   7.757  70.166  1.00  0.00    -0.145 C  
HETATM   11  O   UNL     1      -6.923   8.797  71.175  1.00  0.00    -0.066 OA 
HETATM   12  P   UNL     1      -7.277   6.082  68.462  1.00  0.00    -0.087 P  
HETATM   13  C   UNL     1      -8.877   6.444  69.376  1.00  0.00    -0.132 C  
HETATM   14  C   UNL     1      -7.773   7.738  71.260  1.00  0.00    -0.085 C  
ENDROOT
BRANCH   5  15
HETATM   15  O   UNL     1      -9.737  10.270  67.718  1.00  0.00    -0.153 OA 
BRANCH  15  16
HETATM   16  C   UNL     1      -9.906  11.507  68.462  1.00  0.00    -0.195 C  
HETATM   17  O   UNL     1      -7.517  11.761  69.082  1.00  0.00    -0.275 OA 
HETATM   18  C   UNL     1      -8.648  12.390  68.455  1.00  0.00    -0.060 C  
HETATM   19  C   UNL     1      -8.323  12.738  67.005  1.00  0.00    -0.120 C  
HETATM   20  O   UNL     1      -7.018  13.325  66.963  1.00  0.00    -0.401 OA 
HETATM   21  H   UNL     1      -6.740  12.306  69.078  1.00  0.00     0.000 HD 
HETATM   22  C   UNL     1      -9.469  13.615  66.457  1.00  0.00    -0.259 C  
HETATM   23  O   UNL     1     -10.738  12.947  66.570  1.00  0.00    -0.265 OA 
HETATM   24  O   UNL     1      -9.574  14.881  67.120  1.00  0.00    -0.217 OA 
HETATM   25  H   UNL     1      -6.816  13.541  66.061  1.00  0.00     0.000 HD 
HETATM   26  C   UNL     1     -11.059  12.318  67.824  1.00  0.00    -0.255 C  
HETATM   27  P   UNL     1      -8.498  16.051  66.784  1.00  0.00    -0.313 P  
HETATM   28  C   UNL     1     -11.672  13.248  68.887  1.00  0.00    -0.327 C  
HETATM   29  O   UNL     1     -11.939  14.493  68.443  1.00  0.00    -0.321 OA 
HETATM   30  O   UNL     1     -11.924  12.909  70.035  1.00  0.00    -0.334 OA 
ENDBRANCH  15  16
ENDBRANCH   5  15
TORSDOF 2
ENDMDL
MODEL      133
REMARK 921   NORMALIZED FREE ENERGY PREDICTED BY IDOCK:   -4.83 KCAL/MOL
REMARK 922        TOTAL FREE ENERGY PREDICTED BY IDOCK:   -6.11 KCAL/MOL
REMARK 923 INTER-LIGAND FREE ENERGY PREDICTED BY IDOCK:   -5.43 KCAL/MOL
REMARK 924 INTRA-LIGAND FREE ENERGY PREDICTED BY IDOCK:   -0.68 KCAL/MOL
REMARK 927      BINDING AFFINITY PREDICTED BY RF-SCORE:    0.00 PKD
ROOT
HETATM    1  O   UNL     1     -11.083  11.851  65.205  1.00  0.00    -0.305 OA 
HETATM    2  C   UNL     1     -10.292  12.216  66.354  1.00  0.00    -0.218 C  
HETATM    3  H   UNL     1     -10.726  12.299  64.447  1.00  0.00     0.000 HD 
HETATM    4  C   UNL     1     -10.871  11.492  67.578  1.00  0.00    -0.237 C  
HETATM    5  C   UNL     1     -10.532   9.970  67.535  1.00  0.00    -0.254 C  
HETATM    6  O   UNL     1     -12.277  11.798  67.589  1.00  0.00    -0.534 OA 
HETATM    7  O   UNL     1      -6.762  10.169  64.592  1.00  0.00    -0.128 OA 
HETATM    8  H   UNL     1     -12.635  11.351  68.347  1.00  0.00     0.000 HD 
HETATM    9  O   UNL     1      -9.114   9.772  67.329  1.00  0.00    -0.134 OA 
HETATM   10  C   UNL     1      -8.715  10.322  66.053  1.00  0.00    -0.150 C  
HETATM   11  O   UNL     1      -6.770   9.001  66.532  1.00  0.00    -0.073 OA 
HETATM   12  P   UNL     1      -7.675  12.668  67.300  1.00  0.00    -0.045 P  
HETATM   13  C   UNL     1      -8.833  11.850  66.069  1.00  0.00    -0.007 C  
HETATM   14  C   UNL     1      -7.325   9.856  65.630  1.00  0.00    -0.116 C  
ENDROOT
BRANCH   5  15
HETATM   15  O   UNL     1     -10.910   9.256  68.729  1.00  0.00    -0.187 OA 
BRANCH  15  16
HETATM   16  C   UNL     1     -10.015   8.200  69.168  1.00  0.00    -0.192 C  
HETATM   17  O   UNL     1      -8.968   9.498  71.004  1.00  0.00    -0.286 OA 
HETATM   18  C   UNL     1      -9.665   8.289  70.662  1.00  0.00    -0.171 C  
HETATM   19  C   UNL     1     -10.964   8.184  71.457  1.00  0.00    -0.243 C  
HETATM   20  O   UNL     1     -10.690   8.534  72.818  1.00  0.00    -0.243 OA 
HETATM   21  H   UNL     1      -8.752   9.554  71.927  1.00  0.00     0.000 HD 
HETATM   22  C   UNL     1     -11.548   6.773  71.235  1.00  0.00    -0.320 C  
HETATM   23  O   UNL     1     -11.760   6.510  69.835  1.00  0.00    -0.406 OA 
HETATM   24  O   UNL     1     -10.715   5.731  71.759  1.00  0.00    -0.234 OA 
HETATM   25  H   UNL     1     -11.498   8.470  73.313  1.00  0.00     0.000 HD 
HETATM   26  C   UNL     1     -10.697   6.833  68.921  1.00  0.00    -0.240 C  
HETATM   27  P   UNL     1     -10.671   5.475  73.363  1.00  0.00    -0.273 P  
HETATM   28  C   UNL     1      -9.616   5.748  68.761  1.00  0.00    -0.127 C  
HETATM   29  O   UNL     1      -9.891   4.597  69.408  1.00  0.00    -0.192 OA 
HETATM   30  O   UNL     1      -8.597   5.884  68.098  1.00  0.00    -0.114 OA 
ENDBRANCH  15  16
ENDBRANCH   5  15
TORSDOF 2
ENDMDL
MODEL      134
REMARK 921   NORMALIZED FREE ENERGY PREDICTED BY IDOCK:   -4.83 KCAL/MOL
REMARK 922        TOTAL FREE ENERGY PREDICTED BY IDOCK:   -6.11 KCAL/MOL
REMARK 923 INTER-LIGAND FREE ENERGY PREDICTED BY IDOCK:   -5.49 KCAL/MOL
REMARK 924 INTRA-LIGAND FREE ENERGY PREDICTED BY IDOCK:   -0.62 KCAL/MOL
REMARK 927      BINDING AFFINITY PREDICTED BY RF-SCORE:    0.00 PKD
ROOT
HETATM    1  O   UNL     1      -9.868   8.963  70.837  1.00  0.00    -0.202 OA 
HETATM    2  C   UNL     1     -10.213   8.687  69.465  1.00  0.00    -0.209 C  
HETATM    3  H   UNL     1      -9.469   8.183  71.202  1.00  0.00     0.000 HD 
HETATM    4  C   UNL     1     -10.859   9.950  68.875  1.00  0.00    -0.210 C  
HETATM    5  C   UNL     1      -9.790  11.058  68.629  1.00  0.00    -0.193 C  
HETATM    6  O   UNL     1     -11.912  10.316  69.785  1.00  0.00    -0.425 OA 
HETATM    7  O   UNL     1      -5.906   8.266  68.452  1.00  0.00    -0.039 OA 
HETATM    8  H   UNL     1     -12.312  11.096  69.420  1.00  0.00     0.000 HD 
HETATM    9  O   UNL     1      -8.681  10.531  67.863  1.00  0.00    -0.125 OA 
HETATM   10  C   UNL     1      -8.023   9.477  68.602  1.00  0.00    -0.092 C  
HETATM   11  O   UNL     1      -6.350   9.883  66.930  1.00  0.00    -0.063 OA 
HETATM   12  P   UNL     1      -9.351   7.469  67.072  1.00  0.00    -0.168 P  
HETATM   13  C   UNL     1      -8.942   8.257  68.726  1.00  0.00    -0.144 C  
HETATM   14  C   UNL     1      -6.664   9.116  68.010  1.00  0.00    -0.068 C  
ENDROOT
BRANCH   5  15
HETATM   15  O   UNL     1     -10.299  12.213  67.933  1.00  0.00    -0.197 OA 
BRANCH  15  16
HETATM   16  C   UNL     1     -10.293  13.469  68.661  1.00  0.00    -0.214 C  
HETATM   17  O   UNL     1      -7.919  14.021  68.198  1.00  0.00    -0.128 OA 
HETATM   18  C   UNL     1      -9.278  14.482  68.107  1.00  0.00    -0.195 C  
HETATM   19  C   UNL     1      -9.643  14.768  66.653  1.00  0.00    -0.272 C  
HETATM   20  O   UNL     1      -8.563  15.489  66.049  1.00  0.00    -0.392 OA 
HETATM   21  H   UNL     1      -7.292  14.647  67.856  1.00  0.00     0.000 HD 
HETATM   22  C   UNL     1     -11.013  15.478  66.636  1.00  0.00    -0.248 C  
HETATM   23  O   UNL     1     -12.021  14.684  67.289  1.00  0.00    -0.391 OA 
HETATM   24  O   UNL     1     -10.988  16.766  67.264  1.00  0.00    -0.195 OA 
HETATM   25  H   UNL     1      -8.790  15.667  65.144  1.00  0.00     0.000 HD 
HETATM   26  C   UNL     1     -11.699  14.108  68.567  1.00  0.00    -0.345 C  
HETATM   27  P   UNL     1     -10.311  18.021  66.486  1.00  0.00    -0.305 P  
HETATM   28  C   UNL     1     -11.918  15.032  69.779  1.00  0.00    -0.328 C  
HETATM   29  O   UNL     1     -12.502  16.210  69.476  1.00  0.00    -0.051 OA 
HETATM   30  O   UNL     1     -11.616  14.744  70.929  1.00  0.00    -0.291 OA 
ENDBRANCH  15  16
ENDBRANCH   5  15
TORSDOF 2
ENDMDL
MODEL      135
REMARK 921   NORMALIZED FREE ENERGY PREDICTED BY IDOCK:   -4.83 KCAL/MOL
REMARK 922        TOTAL FREE ENERGY PREDICTED BY IDOCK:   -6.10 KCAL/MOL
REMARK 923 INTER-LIGAND FREE ENERGY PREDICTED BY IDOCK:   -5.62 KCAL/MOL
REMARK 924 INTRA-LIGAND FREE ENERGY PREDICTED BY IDOCK:   -0.49 KCAL/MOL
REMARK 927      BINDING AFFINITY PREDICTED BY RF-SCORE:    0.00 PKD
ROOT
HETATM    1  O   UNL     1      -6.234  15.213  69.161  1.00  0.00    -0.100 OA 
HETATM    2  C   UNL     1      -6.164  15.851  67.870  1.00  0.00    -0.136 C  
HETATM    3  H   UNL     1      -5.478  15.488  69.666  1.00  0.00     0.000 HD 
HETATM    4  C   UNL     1      -7.386  15.405  67.054  1.00  0.00    -0.092 C  
HETATM    5  C   UNL     1      -8.686  16.087  67.582  1.00  0.00    -0.173 C  
HETATM    6  O   UNL     1      -7.393  13.967  67.107  1.00  0.00    -0.324 OA 
HETATM    7  O   UNL     1      -6.674  19.827  69.791  1.00  0.00    -0.340 OA 
HETATM    8  H   UNL     1      -8.149  13.692  66.602  1.00  0.00     0.000 HD 
HETATM    9  O   UNL     1      -8.506  17.521  67.670  1.00  0.00    -0.211 OA 
HETATM   10  C   UNL     1      -7.460  17.833  68.617  1.00  0.00    -0.274 C  
HETATM   11  O   UNL     1      -8.447  20.010  68.395  1.00  0.00    -0.226 OA 
HETATM   12  P   UNL     1      -5.576  18.253  66.515  1.00  0.00    -0.168 P  
HETATM   13  C   UNL     1      -6.100  17.366  68.085  1.00  0.00    -0.158 C  
HETATM   14  C   UNL     1      -7.451  19.309  69.003  1.00  0.00    -0.336 C  
ENDROOT
BRANCH   5  15
HETATM   15  O   UNL     1      -9.847  15.836  66.765  1.00  0.00    -0.233 OA 
BRANCH  15  16
HETATM   16  C   UNL     1     -11.036  15.360  67.451  1.00  0.00    -0.312 C  
HETATM   17  O   UNL     1     -11.986  14.150  65.505  1.00  0.00    -0.361 OA 
HETATM   18  C   UNL     1     -11.574  14.039  66.878  1.00  0.00    -0.386 C  
HETATM   19  C   UNL     1     -10.480  12.984  67.018  1.00  0.00    -0.247 C  
HETATM   20  O   UNL     1     -10.861  11.835  66.253  1.00  0.00    -0.261 OA 
HETATM   21  H   UNL     1     -12.319  13.335  65.151  1.00  0.00     0.000 HD 
HETATM   22  C   UNL     1     -10.246  12.737  68.523  1.00  0.00    -0.200 C  
HETATM   23  O   UNL     1      -9.896  13.956  69.205  1.00  0.00    -0.016 OA 
HETATM   24  O   UNL     1     -11.384  12.171  69.185  1.00  0.00    -0.246 OA 
HETATM   25  H   UNL     1     -10.180  11.179  66.339  1.00  0.00     0.000 HD 
HETATM   26  C   UNL     1     -10.692  15.125  68.942  1.00  0.00    -0.240 C  
HETATM   27  P   UNL     1     -11.735  10.599  68.966  1.00  0.00    -0.084 P  
HETATM   28  C   UNL     1     -11.975  15.251  69.783  1.00  0.00    -0.347 C  
HETATM   29  O   UNL     1     -12.102  14.306  70.739  1.00  0.00    -0.312 OA 
HETATM   30  O   UNL     1     -12.814  16.129  69.634  1.00  0.00     0.166 OA 
ENDBRANCH  15  16
ENDBRANCH   5  15
TORSDOF 2
ENDMDL
MODEL      136
REMARK 921   NORMALIZED FREE ENERGY PREDICTED BY IDOCK:   -4.83 KCAL/MOL
REMARK 922        TOTAL FREE ENERGY PREDICTED BY IDOCK:   -6.10 KCAL/MOL
REMARK 923 INTER-LIGAND FREE ENERGY PREDICTED BY IDOCK:   -5.61 KCAL/MOL
REMARK 924 INTRA-LIGAND FREE ENERGY PREDICTED BY IDOCK:   -0.49 KCAL/MOL
REMARK 927      BINDING AFFINITY PREDICTED BY RF-SCORE:    0.00 PKD
ROOT
HETATM    1  O   UNL     1     -12.300  11.035  68.194  1.00  0.00    -0.640 OA 
HETATM    2  C   UNL     1     -10.904  11.304  68.432  1.00  0.00    -0.205 C  
HETATM    3  H   UNL     1     -12.621  11.675  67.571  1.00  0.00     0.000 HD 
HETATM    4  C   UNL     1     -10.386  10.268  69.441  1.00  0.00    -0.235 C  
HETATM    5  C   UNL     1     -10.244   8.866  68.774  1.00  0.00    -0.206 C  
HETATM    6  O   UNL     1     -11.293  10.317  70.558  1.00  0.00    -0.300 OA 
HETATM    7  O   UNL     1      -9.972  10.280  64.209  1.00  0.00    -0.328 OA 
HETATM    8  H   UNL     1     -10.972   9.677  71.181  1.00  0.00     0.000 HD 
HETATM    9  O   UNL     1      -9.471   8.961  67.553  1.00  0.00    -0.137 OA 
HETATM   10  C   UNL     1     -10.152   9.807  66.599  1.00  0.00    -0.237 C  
HETATM   11  O   UNL     1      -8.554   8.778  65.135  1.00  0.00    -0.175 OA 
HETATM   12  P   UNL     1      -8.456  12.014  67.227  1.00  0.00    -0.187 P  
HETATM   13  C   UNL     1     -10.170  11.259  67.089  1.00  0.00    -0.201 C  
HETATM   14  C   UNL     1      -9.571   9.680  65.194  1.00  0.00    -0.254 C  
ENDROOT
BRANCH   5  15
HETATM   15  O   UNL     1      -9.616   7.881  69.619  1.00  0.00    -0.163 OA 
BRANCH  15  16
HETATM   16  C   UNL     1     -10.443   6.766  70.047  1.00  0.00    -0.210 C  
HETATM   17  O   UNL     1     -11.046   6.002  67.766  1.00  0.00    -0.352 OA 
HETATM   18  C   UNL     1     -10.479   5.615  69.029  1.00  0.00    -0.251 C  
HETATM   19  C   UNL     1      -9.051   5.112  68.836  1.00  0.00    -0.107 C  
HETATM   20  O   UNL     1      -9.031   4.236  67.703  1.00  0.00    -0.107 OA 
HETATM   21  H   UNL     1     -11.068   5.292  67.136  1.00  0.00     0.000 HD 
HETATM   22  C   UNL     1      -8.579   4.493  70.168  1.00  0.00    -0.077 C  
HETATM   23  O   UNL     1      -8.664   5.444  71.245  1.00  0.00    -0.127 OA 
HETATM   24  O   UNL     1      -9.327   3.330  70.545  1.00  0.00    -0.130 OA 
HETATM   25  H   UNL     1      -8.142   3.923  67.583  1.00  0.00     0.000 HD 
HETATM   26  C   UNL     1      -9.877   6.207  71.375  1.00  0.00    -0.175 C  
HETATM   27  P   UNL     1      -9.056   1.923  69.779  1.00  0.00    -0.095 P  
HETATM   28  C   UNL     1     -11.009   5.514  72.156  1.00  0.00    -0.231 C  
HETATM   29  O   UNL     1     -10.653   4.339  72.716  1.00  0.00    -0.182 OA 
HETATM   30  O   UNL     1     -12.135   5.973  72.289  1.00  0.00    -0.301 OA 
ENDBRANCH  15  16
ENDBRANCH   5  15
TORSDOF 2
ENDMDL
MODEL      137
REMARK 921   NORMALIZED FREE ENERGY PREDICTED BY IDOCK:   -4.83 KCAL/MOL
REMARK 922        TOTAL FREE ENERGY PREDICTED BY IDOCK:   -6.10 KCAL/MOL
REMARK 923 INTER-LIGAND FREE ENERGY PREDICTED BY IDOCK:   -5.42 KCAL/MOL
REMARK 924 INTRA-LIGAND FREE ENERGY PREDICTED BY IDOCK:   -0.68 KCAL/MOL
REMARK 927      BINDING AFFINITY PREDICTED BY RF-SCORE:    0.00 PKD
ROOT
HETATM    1  O   UNL     1      -7.946  12.486  66.939  1.00  0.00    -0.345 OA 
HETATM    2  C   UNL     1      -9.121  12.383  66.109  1.00  0.00    -0.040 C  
HETATM    3  H   UNL     1      -7.900  13.373  67.274  1.00  0.00     0.000 HD 
HETATM    4  C   UNL     1      -9.196  10.948  65.567  1.00  0.00    -0.209 C  
HETATM    5  C   UNL     1      -9.616   9.952  66.691  1.00  0.00    -0.184 C  
HETATM    6  O   UNL     1      -7.913  10.684  64.973  1.00  0.00    -0.290 OA 
HETATM    7  O   UNL     1     -11.706  13.071  69.659  1.00  0.00    -0.296 OA 
HETATM    8  H   UNL     1      -7.959   9.796  64.637  1.00  0.00     0.000 HD 
HETATM    9  O   UNL     1     -10.817  10.412  67.354  1.00  0.00    -0.273 OA 
HETATM   10  C   UNL     1     -10.573  11.683  67.998  1.00  0.00    -0.202 C  
HETATM   11  O   UNL     1     -12.642  11.098  69.063  1.00  0.00    -0.370 OA 
HETATM   12  P   UNL     1     -11.839  13.094  65.865  1.00  0.00    -0.448 P  
HETATM   13  C   UNL     1     -10.340  12.777  66.950  1.00  0.00    -0.238 C  
HETATM   14  C   UNL     1     -11.678  12.055  68.982  1.00  0.00    -0.325 C  
ENDROOT
BRANCH   5  15
HETATM   15  O   UNL     1      -9.857   8.611  66.219  1.00  0.00    -0.267 OA 
BRANCH  15  16
HETATM   16  C   UNL     1      -9.463   7.527  67.102  1.00  0.00    -0.154 C  
HETATM   17  O   UNL     1     -11.114   5.886  66.246  1.00  0.00    -0.721 OA 
HETATM   18  C   UNL     1      -9.722   6.136  66.501  1.00  0.00    -0.145 C  
HETATM   19  C   UNL     1      -8.919   6.024  65.208  1.00  0.00     0.082 C  
HETATM   20  O   UNL     1      -9.356   4.855  64.505  1.00  0.00    -0.326 OA 
HETATM   21  H   UNL     1     -11.275   5.027  65.875  1.00  0.00     0.000 HD 
HETATM   22  C   UNL     1      -7.419   6.063  65.572  1.00  0.00    -0.082 C  
HETATM   23  O   UNL     1      -7.090   7.262  66.298  1.00  0.00    -0.073 OA 
HETATM   24  O   UNL     1      -7.002   4.940  66.359  1.00  0.00    -0.064 OA 
HETATM   25  H   UNL     1      -8.856   4.785  63.700  1.00  0.00     0.000 HD 
HETATM   26  C   UNL     1      -7.946   7.645  67.389  1.00  0.00    -0.119 C  
HETATM   27  P   UNL     1      -6.805   3.494  65.645  1.00  0.00    -0.054 P  
HETATM   28  C   UNL     1      -7.633   6.973  68.738  1.00  0.00    -0.105 C  
HETATM   29  O   UNL     1      -6.516   6.216  68.731  1.00  0.00    -0.042 OA 
HETATM   30  O   UNL     1      -8.308   7.110  69.749  1.00  0.00    -0.129 OA 
ENDBRANCH  15  16
ENDBRANCH   5  15
TORSDOF 2
ENDMDL
MODEL      138
REMARK 921   NORMALIZED FREE ENERGY PREDICTED BY IDOCK:   -4.80 KCAL/MOL
REMARK 922        TOTAL FREE ENERGY PREDICTED BY IDOCK:   -6.07 KCAL/MOL
REMARK 923 INTER-LIGAND FREE ENERGY PREDICTED BY IDOCK:   -5.17 KCAL/MOL
REMARK 924 INTRA-LIGAND FREE ENERGY PREDICTED BY IDOCK:   -0.90 KCAL/MOL
REMARK 927      BINDING AFFINITY PREDICTED BY RF-SCORE:    0.00 PKD
ROOT
HETATM    1  O   UNL     1      -7.413  11.524  66.467  1.00  0.00    -0.282 OA 
HETATM    2  C   UNL     1      -8.334  11.047  65.465  1.00  0.00    -0.024 C  
HETATM    3  H   UNL     1      -7.069  12.360  66.175  1.00  0.00     0.000 HD 
HETATM    4  C   UNL     1      -8.890   9.695  65.937  1.00  0.00    -0.153 C  
HETATM    5  C   UNL     1      -9.901   9.890  67.109  1.00  0.00    -0.186 C  
HETATM    6  O   UNL     1      -7.744   8.886  66.255  1.00  0.00    -0.096 OA 
HETATM    7  O   UNL     1     -11.044  14.468  66.304  1.00  0.00    -0.320 OA 
HETATM    8  H   UNL     1      -8.088   8.051  66.547  1.00  0.00     0.000 HD 
HETATM    9  O   UNL     1     -10.906  10.869  66.754  1.00  0.00    -0.261 OA 
HETATM   10  C   UNL     1     -10.288  12.155  66.522  1.00  0.00    -0.213 C  
HETATM   11  O   UNL     1     -12.579  12.849  66.692  1.00  0.00    -0.247 OA 
HETATM   12  P   UNL     1     -10.401  11.786  63.695  1.00  0.00    -0.496 P  
HETATM   13  C   UNL     1      -9.417  12.110  65.262  1.00  0.00     0.027 C  
HETATM   14  C   UNL     1     -11.309  13.288  66.477  1.00  0.00    -0.322 C  
ENDROOT
BRANCH   5  15
HETATM   15  O   UNL     1     -10.580   8.679  67.498  1.00  0.00    -0.263 OA 
BRANCH  15  16
HETATM   16  C   UNL     1     -10.527   8.325  68.906  1.00  0.00    -0.191 C  
HETATM   17  O   UNL     1     -11.446   6.039  68.630  1.00  0.00    -0.233 OA 
HETATM   18  C   UNL     1     -10.352   6.816  69.142  1.00  0.00    -0.194 C  
HETATM   19  C   UNL     1      -9.043   6.385  68.485  1.00  0.00    -0.126 C  
HETATM   20  O   UNL     1      -9.001   4.954  68.460  1.00  0.00    -0.104 OA 
HETATM   21  H   UNL     1     -11.339   5.106  68.775  1.00  0.00     0.000 HD 
HETATM   22  C   UNL     1      -7.883   7.075  69.233  1.00  0.00    -0.114 C  
HETATM   23  O   UNL     1      -8.034   8.507  69.224  1.00  0.00    -0.107 OA 
HETATM   24  O   UNL     1      -7.762   6.652  70.597  1.00  0.00    -0.100 OA 
HETATM   25  H   UNL     1      -8.187   4.685  68.050  1.00  0.00     0.000 HD 
HETATM   26  C   UNL     1      -9.324   9.049  69.557  1.00  0.00    -0.160 C  
HETATM   27  P   UNL     1      -7.127   5.193  70.927  1.00  0.00    -0.063 P  
HETATM   28  C   UNL     1      -9.594   9.225  71.063  1.00  0.00    -0.259 C  
HETATM   29  O   UNL     1      -8.528   8.962  71.848  1.00  0.00    -0.348 OA 
HETATM   30  O   UNL     1     -10.663   9.588  71.534  1.00  0.00    -0.340 OA 
ENDBRANCH  15  16
ENDBRANCH   5  15
TORSDOF 2
ENDMDL
MODEL      139
REMARK 921   NORMALIZED FREE ENERGY PREDICTED BY IDOCK:   -4.78 KCAL/MOL
REMARK 922        TOTAL FREE ENERGY PREDICTED BY IDOCK:   -6.04 KCAL/MOL
REMARK 923 INTER-LIGAND FREE ENERGY PREDICTED BY IDOCK:   -5.30 KCAL/MOL
REMARK 924 INTRA-LIGAND FREE ENERGY PREDICTED BY IDOCK:   -0.75 KCAL/MOL
REMARK 927      BINDING AFFINITY PREDICTED BY RF-SCORE:    0.00 PKD
ROOT
HETATM    1  O   UNL     1     -12.414  10.575  71.824  1.00  0.00    -0.373 OA 
HETATM    2  C   UNL     1     -12.272   9.375  71.037  1.00  0.00    -0.279 C  
HETATM    3  H   UNL     1     -12.768  10.330  72.671  1.00  0.00     0.000 HD 
HETATM    4  C   UNL     1     -11.700   9.770  69.667  1.00  0.00     0.104 C  
HETATM    5  C   UNL     1     -10.192  10.152  69.785  1.00  0.00    -0.247 C  
HETATM    6  O   UNL     1     -12.553  10.818  69.171  1.00  0.00    -0.704 OA 
HETATM    7  O   UNL     1      -9.199   7.863  73.870  1.00  0.00    -0.267 OA 
HETATM    8  H   UNL     1     -12.199  11.062  68.324  1.00  0.00     0.000 HD 
HETATM    9  O   UNL     1      -9.458   9.111  70.471  1.00  0.00    -0.202 OA 
HETATM   10  C   UNL     1      -9.953   8.960  71.820  1.00  0.00    -0.327 C  
HETATM   11  O   UNL     1      -7.900   7.733  72.020  1.00  0.00    -0.089 OA 
HETATM   12  P   UNL     1     -11.484   6.668  71.084  1.00  0.00    -0.347 P  
HETATM   13  C   UNL     1     -11.379   8.398  71.807  1.00  0.00    -0.300 C  
HETATM   14  C   UNL     1      -9.015   8.130  72.692  1.00  0.00    -0.232 C  
ENDROOT
BRANCH   5  15
HETATM   15  O   UNL     1      -9.550  10.384  68.515  1.00  0.00    -0.147 OA 
BRANCH  15  16
HETATM   16  C   UNL     1      -8.761   9.291  67.974  1.00  0.00    -0.125 C  
HETATM   17  O   UNL     1     -10.573   8.334  66.576  1.00  0.00    -0.365 OA 
HETATM   18  C   UNL     1      -9.228   8.843  66.580  1.00  0.00    -0.170 C  
HETATM   19  C   UNL     1      -9.112  10.037  65.637  1.00  0.00    -0.183 C  
HETATM   20  O   UNL     1      -9.790   9.717  64.417  1.00  0.00    -0.403 OA 
HETATM   21  H   UNL     1     -10.862   8.057  65.715  1.00  0.00     0.000 HD 
HETATM   22  C   UNL     1      -7.616  10.390  65.497  1.00  0.00    -0.144 C  
HETATM   23  O   UNL     1      -7.022  10.668  66.779  1.00  0.00    -0.096 OA 
HETATM   24  O   UNL     1      -6.850   9.355  64.869  1.00  0.00    -0.087 OA 
HETATM   25  H   UNL     1      -9.718  10.460  63.831  1.00  0.00     0.000 HD 
HETATM   26  C   UNL     1      -7.288   9.751  67.855  1.00  0.00    -0.085 C  
HETATM   27  P   UNL     1      -6.964   9.139  63.263  1.00  0.00    -0.089 P  
HETATM   28  C   UNL     1      -6.367   8.519  67.913  1.00  0.00    -0.057 C  
HETATM   29  O   UNL     1      -5.359   8.543  67.016  1.00  0.00    -0.035 OA 
HETATM   30  O   UNL     1      -6.501   7.594  68.702  1.00  0.00    -0.045 OA 
ENDBRANCH  15  16
ENDBRANCH   5  15
TORSDOF 2
ENDMDL
MODEL      140
REMARK 921   NORMALIZED FREE ENERGY PREDICTED BY IDOCK:   -4.76 KCAL/MOL
REMARK 922        TOTAL FREE ENERGY PREDICTED BY IDOCK:   -6.02 KCAL/MOL
REMARK 923 INTER-LIGAND FREE ENERGY PREDICTED BY IDOCK:   -5.09 KCAL/MOL
REMARK 924 INTRA-LIGAND FREE ENERGY PREDICTED BY IDOCK:   -0.93 KCAL/MOL
REMARK 927      BINDING AFFINITY PREDICTED BY RF-SCORE:    0.00 PKD
ROOT
HETATM    1  O   UNL     1     -10.776  10.330  70.870  1.00  0.00    -0.356 OA 
HETATM    2  C   UNL     1     -11.004   8.912  70.998  1.00  0.00    -0.276 C  
HETATM    3  H   UNL     1     -11.061  10.747  71.674  1.00  0.00     0.000 HD 
HETATM    4  C   UNL     1     -10.544   8.238  69.697  1.00  0.00    -0.222 C  
HETATM    5  C   UNL     1      -8.987   8.216  69.604  1.00  0.00    -0.154 C  
HETATM    6  O   UNL     1     -11.204   8.944  68.631  1.00  0.00    -0.428 OA 
HETATM    7  O   UNL     1      -7.993   8.706  74.260  1.00  0.00    -0.382 OA 
HETATM    8  H   UNL     1     -10.919   8.527  67.827  1.00  0.00     0.000 HD 
HETATM    9  O   UNL     1      -8.415   7.659  70.810  1.00  0.00    -0.122 OA 
HETATM   10  C   UNL     1      -8.750   8.486  71.947  1.00  0.00    -0.203 C  
HETATM   11  O   UNL     1      -7.008   7.161  72.931  1.00  0.00    -0.068 OA 
HETATM   12  P   UNL     1     -10.829   6.697  72.733  1.00  0.00    -0.257 P  
HETATM   13  C   UNL     1     -10.254   8.414  72.236  1.00  0.00    -0.326 C  
HETATM   14  C   UNL     1      -7.911   8.149  73.176  1.00  0.00    -0.167 C  
ENDROOT
BRANCH   5  15
HETATM   15  O   UNL     1      -8.482   7.461  68.484  1.00  0.00    -0.125 OA 
BRANCH  15  16
HETATM   16  C   UNL     1      -9.108   6.175  68.229  1.00  0.00    -0.112 C  
HETATM   17  O   UNL     1     -10.634   6.983  66.448  1.00  0.00    -0.484 OA 
HETATM   18  C   UNL     1      -9.614   6.028  66.785  1.00  0.00    -0.149 C  
HETATM   19  C   UNL     1      -8.418   6.178  65.849  1.00  0.00    -0.145 C  
HETATM   20  O   UNL     1      -8.907   6.313  64.510  1.00  0.00    -0.338 OA 
HETATM   21  H   UNL     1     -10.947   6.892  65.556  1.00  0.00     0.000 HD 
HETATM   22  C   UNL     1      -7.466   4.988  66.095  1.00  0.00    -0.086 C  
HETATM   23  O   UNL     1      -7.056   4.925  67.474  1.00  0.00    -0.063 OA 
HETATM   24  O   UNL     1      -8.044   3.724  65.748  1.00  0.00    -0.093 OA 
HETATM   25  H   UNL     1      -8.163   6.407  63.927  1.00  0.00     0.000 HD 
HETATM   26  C   UNL     1      -8.071   5.056  68.485  1.00  0.00    -0.085 C  
HETATM   27  P   UNL     1      -8.178   3.310  64.182  1.00  0.00    -0.090 P  
HETATM   28  C   UNL     1      -8.809   3.754  68.848  1.00  0.00    -0.109 C  
HETATM   29  O   UNL     1      -8.307   2.652  68.252  1.00  0.00    -0.066 OA 
HETATM   30  O   UNL     1      -9.757   3.692  69.618  1.00  0.00    -0.188 OA 
ENDBRANCH  15  16
ENDBRANCH   5  15
TORSDOF 2
ENDMDL
MODEL      141
REMARK 921   NORMALIZED FREE ENERGY PREDICTED BY IDOCK:   -4.74 KCAL/MOL
REMARK 922        TOTAL FREE ENERGY PREDICTED BY IDOCK:   -6.00 KCAL/MOL
REMARK 923 INTER-LIGAND FREE ENERGY PREDICTED BY IDOCK:   -6.77 KCAL/MOL
REMARK 924 INTRA-LIGAND FREE ENERGY PREDICTED BY IDOCK:    0.77 KCAL/MOL
REMARK 927      BINDING AFFINITY PREDICTED BY RF-SCORE:    0.00 PKD
ROOT
HETATM    1  O   UNL     1     -12.469  13.256  68.107  1.00  0.00    -0.052 OA 
HETATM    2  C   UNL     1     -11.703  14.156  67.282  1.00  0.00    -0.392 C  
HETATM    3  H   UNL     1     -13.390  13.409  67.933  1.00  0.00     0.000 HD 
HETATM    4  C   UNL     1     -10.213  13.908  67.564  1.00  0.00    -0.245 C  
HETATM    5  C   UNL     1      -9.746  12.559  66.935  1.00  0.00    -0.232 C  
HETATM    6  O   UNL     1     -10.063  13.993  68.993  1.00  0.00    -0.386 OA 
HETATM    7  O   UNL     1     -13.181  12.093  63.633  1.00  0.00    -0.770 OA 
HETATM    8  H   UNL     1      -9.142  13.840  69.167  1.00  0.00     0.000 HD 
HETATM    9  O   UNL     1     -10.117  12.497  65.537  1.00  0.00    -0.267 OA 
HETATM   10  C   UNL     1     -11.555  12.541  65.402  1.00  0.00    -0.375 C  
HETATM   11  O   UNL     1     -10.979  11.809  63.190  1.00  0.00    -0.310 OA 
HETATM   12  P   UNL     1     -11.484  15.311  64.719  1.00  0.00    -0.210 P  
HETATM   13  C   UNL     1     -12.090  13.916  65.820  1.00  0.00    -0.425 C  
HETATM   14  C   UNL     1     -12.018  12.145  64.003  1.00  0.00    -0.440 C  
ENDROOT
BRANCH   5  15
HETATM   15  O   UNL     1      -8.325  12.337  67.026  1.00  0.00    -0.177 OA 
BRANCH  15  16
HETATM   16  C   UNL     1      -7.898  11.104  67.664  1.00  0.00    -0.115 C  
HETATM   17  O   UNL     1      -9.554  11.183  69.509  1.00  0.00    -0.405 OA 
HETATM   18  C   UNL     1      -9.029  10.396  68.427  1.00  0.00    -0.137 C  
HETATM   19  C   UNL     1     -10.136  10.066  67.429  1.00  0.00    -0.208 C  
HETATM   20  O   UNL     1     -11.297   9.658  68.160  1.00  0.00    -0.520 OA 
HETATM   21  H   UNL     1     -10.253  10.746  69.981  1.00  0.00     0.000 HD 
HETATM   22  C   UNL     1      -9.581   9.032  66.425  1.00  0.00    -0.244 C  
HETATM   23  O   UNL     1      -8.401   9.528  65.765  1.00  0.00    -0.122 OA 
HETATM   24  O   UNL     1      -9.253   7.777  67.034  1.00  0.00    -0.134 OA 
HETATM   25  H   UNL     1     -11.986   9.453  67.539  1.00  0.00     0.000 HD 
HETATM   26  C   UNL     1      -7.379  10.133  66.576  1.00  0.00    -0.108 C  
HETATM   27  P   UNL     1     -10.446   6.755  67.448  1.00  0.00    -0.347 P  
HETATM   28  C   UNL     1      -6.376   9.151  67.210  1.00  0.00    -0.059 C  
HETATM   29  O   UNL     1      -6.527   7.872  66.807  1.00  0.00    -0.053 OA 
HETATM   30  O   UNL     1      -5.498   9.476  67.997  1.00  0.00    -0.040 OA 
ENDBRANCH  15  16
ENDBRANCH   5  15
TORSDOF 2
ENDMDL
MODEL      142
REMARK 921   NORMALIZED FREE ENERGY PREDICTED BY IDOCK:   -4.73 KCAL/MOL
REMARK 922        TOTAL FREE ENERGY PREDICTED BY IDOCK:   -5.99 KCAL/MOL
REMARK 923 INTER-LIGAND FREE ENERGY PREDICTED BY IDOCK:   -5.76 KCAL/MOL
REMARK 924 INTRA-LIGAND FREE ENERGY PREDICTED BY IDOCK:   -0.23 KCAL/MOL
REMARK 927      BINDING AFFINITY PREDICTED BY RF-SCORE:    0.00 PKD
ROOT
HETATM    1  O   UNL     1     -10.379   5.110  70.322  1.00  0.00    -0.268 OA 
HETATM    2  C   UNL     1      -9.481   5.962  71.062  1.00  0.00    -0.165 C  
HETATM    3  H   UNL     1     -10.958   4.684  70.943  1.00  0.00     0.000 HD 
HETATM    4  C   UNL     1      -8.544   6.650  70.058  1.00  0.00    -0.140 C  
HETATM    5  C   UNL     1      -9.303   7.752  69.256  1.00  0.00    -0.148 C  
HETATM    6  O   UNL     1      -7.983   5.596  69.255  1.00  0.00    -0.093 OA 
HETATM    7  O   UNL     1     -12.902   8.504  72.320  1.00  0.00    -0.355 OA 
HETATM    8  H   UNL     1      -7.404   6.022  68.635  1.00  0.00     0.000 HD 
HETATM    9  O   UNL     1      -9.991   8.651  70.157  1.00  0.00    -0.177 OA 
HETATM   10  C   UNL     1     -10.988   7.929  70.915  1.00  0.00    -0.243 C  
HETATM   11  O   UNL     1     -11.703  10.173  71.372  1.00  0.00    -0.360 OA 
HETATM   12  P   UNL     1      -9.276   7.797  73.193  1.00  0.00    -0.283 P  
HETATM   13  C   UNL     1     -10.318   6.947  71.882  1.00  0.00    -0.189 C  
HETATM   14  C   UNL     1     -11.964   8.862  71.625  1.00  0.00    -0.345 C  
ENDROOT
BRANCH   5  15
HETATM   15  O   UNL     1      -8.449   8.544  68.407  1.00  0.00    -0.135 OA 
BRANCH  15  16
HETATM   16  C   UNL     1      -8.801   8.600  66.999  1.00  0.00    -0.132 C  
HETATM   17  O   UNL     1     -11.246   8.353  67.335  1.00  0.00    -0.343 OA 
HETATM   18  C   UNL     1     -10.211   9.161  66.751  1.00  0.00    -0.261 C  
HETATM   19  C   UNL     1     -10.261  10.577  67.318  1.00  0.00    -0.215 C  
HETATM   20  O   UNL     1     -11.627  11.006  67.340  1.00  0.00    -0.525 OA 
HETATM   21  H   UNL     1     -12.117   8.699  67.182  1.00  0.00     0.000 HD 
HETATM   22  C   UNL     1      -9.297  11.456  66.494  1.00  0.00    -0.189 C  
HETATM   23  O   UNL     1      -7.959  10.925  66.514  1.00  0.00    -0.140 OA 
HETATM   24  O   UNL     1      -9.696  11.598  65.125  1.00  0.00    -0.235 OA 
HETATM   25  H   UNL     1     -11.659  11.887  67.693  1.00  0.00     0.000 HD 
HETATM   26  C   UNL     1      -7.791   9.517  66.268  1.00  0.00    -0.100 C  
HETATM   27  P   UNL     1     -10.935  12.582  64.753  1.00  0.00    -0.343 P  
HETATM   28  C   UNL     1      -7.721   9.113  64.784  1.00  0.00    -0.111 C  
HETATM   29  O   UNL     1      -7.700  10.157  63.929  1.00  0.00    -0.150 OA 
HETATM   30  O   UNL     1      -7.668   7.958  64.386  1.00  0.00    -0.109 OA 
ENDBRANCH  15  16
ENDBRANCH   5  15
TORSDOF 2
ENDMDL
MODEL      143
REMARK 921   NORMALIZED FREE ENERGY PREDICTED BY IDOCK:   -4.73 KCAL/MOL
REMARK 922        TOTAL FREE ENERGY PREDICTED BY IDOCK:   -5.99 KCAL/MOL
REMARK 923 INTER-LIGAND FREE ENERGY PREDICTED BY IDOCK:   -5.45 KCAL/MOL
REMARK 924 INTRA-LIGAND FREE ENERGY PREDICTED BY IDOCK:   -0.54 KCAL/MOL
REMARK 927      BINDING AFFINITY PREDICTED BY RF-SCORE:    0.00 PKD
ROOT
HETATM    1  O   UNL     1      -9.834   7.056  74.473  1.00  0.00    -0.454 OA 
HETATM    2  C   UNL     1     -10.643   5.995  73.928  1.00  0.00    -0.218 C  
HETATM    3  H   UNL     1      -9.495   6.767  75.312  1.00  0.00     0.000 HD 
HETATM    4  C   UNL     1     -11.190   6.463  72.571  1.00  0.00    -0.272 C  
HETATM    5  C   UNL     1     -10.064   6.473  71.493  1.00  0.00    -0.190 C  
HETATM    6  O   UNL     1     -11.808   7.739  72.814  1.00  0.00    -0.556 OA 
HETATM    7  O   UNL     1      -7.047   3.405  73.589  1.00  0.00    -0.046 OA 
HETATM    8  H   UNL     1     -12.146   8.028  71.975  1.00  0.00     0.000 HD 
HETATM    9  O   UNL     1      -9.378   5.199  71.463  1.00  0.00    -0.143 OA 
HETATM   10  C   UNL     1      -8.734   4.952  72.733  1.00  0.00    -0.121 C  
HETATM   11  O   UNL     1      -7.635   3.280  71.407  1.00  0.00    -0.046 OA 
HETATM   12  P   UNL     1     -10.838   3.207  73.550  1.00  0.00    -0.211 P  
HETATM   13  C   UNL     1      -9.780   4.733  73.830  1.00  0.00    -0.136 C  
HETATM   14  C   UNL     1      -7.729   3.806  72.659  1.00  0.00    -0.069 C  
ENDROOT
BRANCH   5  15
HETATM   15  O   UNL     1     -10.538   6.753  70.160  1.00  0.00    -0.202 OA 
BRANCH  15  16
HETATM   16  C   UNL     1      -9.564   7.274  69.217  1.00  0.00    -0.156 C  
HETATM   17  O   UNL     1     -11.170   7.628  67.361  1.00  0.00    -0.499 OA 
HETATM   18  C   UNL     1     -10.175   8.245  68.195  1.00  0.00    -0.210 C  
HETATM   19  C   UNL     1     -10.781   9.417  68.962  1.00  0.00    -0.187 C  
HETATM   20  O   UNL     1     -11.582  10.184  68.056  1.00  0.00    -0.665 OA 
HETATM   21  H   UNL     1     -11.547   8.228  66.729  1.00  0.00     0.000 HD 
HETATM   22  C   UNL     1      -9.631  10.184  69.649  1.00  0.00    -0.210 C  
HETATM   23  O   UNL     1      -8.872   9.319  70.515  1.00  0.00    -0.206 OA 
HETATM   24  O   UNL     1      -8.722  10.787  68.720  1.00  0.00    -0.150 OA 
HETATM   25  H   UNL     1     -11.959  10.913  68.533  1.00  0.00     0.000 HD 
HETATM   26  C   UNL     1      -8.469   8.037  70.001  1.00  0.00    -0.129 C  
HETATM   27  P   UNL     1      -9.167  12.136  67.930  1.00  0.00    -0.199 P  
HETATM   28  C   UNL     1      -7.166   8.038  69.181  1.00  0.00    -0.077 C  
HETATM   29  O   UNL     1      -6.522   9.223  69.171  1.00  0.00    -0.042 OA 
HETATM   30  O   UNL     1      -6.720   7.061  68.596  1.00  0.00    -0.058 OA 
ENDBRANCH  15  16
ENDBRANCH   5  15
TORSDOF 2
ENDMDL
MODEL      144
REMARK 921   NORMALIZED FREE ENERGY PREDICTED BY IDOCK:   -4.69 KCAL/MOL
REMARK 922        TOTAL FREE ENERGY PREDICTED BY IDOCK:   -5.94 KCAL/MOL
REMARK 923 INTER-LIGAND FREE ENERGY PREDICTED BY IDOCK:   -5.20 KCAL/MOL
REMARK 924 INTRA-LIGAND FREE ENERGY PREDICTED BY IDOCK:   -0.75 KCAL/MOL
REMARK 927      BINDING AFFINITY PREDICTED BY RF-SCORE:    0.00 PKD
ROOT
HETATM    1  O   UNL     1      -9.594  15.019  64.690  1.00  0.00    -0.213 OA 
HETATM    2  C   UNL     1     -10.104  15.415  65.978  1.00  0.00    -0.324 C  
HETATM    3  H   UNL     1      -9.782  15.715  64.072  1.00  0.00     0.000 HD 
HETATM    4  C   UNL     1      -9.799  14.288  66.977  1.00  0.00    -0.254 C  
HETATM    5  C   UNL     1      -8.280  14.254  67.328  1.00  0.00    -0.192 C  
HETATM    6  O   UNL     1     -10.310  13.083  66.379  1.00  0.00    -0.271 OA 
HETATM    7  O   UNL     1      -7.174  18.754  66.129  1.00  0.00    -0.238 OA 
HETATM    8  H   UNL     1     -10.122  12.387  66.997  1.00  0.00     0.000 HD 
HETATM    9  O   UNL     1      -7.825  15.565  67.737  1.00  0.00    -0.128 OA 
HETATM   10  C   UNL     1      -7.977  16.506  66.650  1.00  0.00    -0.284 C  
HETATM   11  O   UNL     1      -6.533  17.789  68.074  1.00  0.00    -0.177 OA 
HETATM   12  P   UNL     1     -10.370  17.558  67.792  1.00  0.00    -0.379 P  
HETATM   13  C   UNL     1      -9.462  16.752  66.360  1.00  0.00    -0.282 C  
HETATM   14  C   UNL     1      -7.215  17.804  66.896  1.00  0.00    -0.197 C  
ENDROOT
BRANCH   5  15
HETATM   15  O   UNL     1      -7.947  13.323  68.377  1.00  0.00    -0.135 OA 
BRANCH  15  16
HETATM   16  C   UNL     1      -6.931  12.331  68.071  1.00  0.00    -0.093 C  
HETATM   17  O   UNL     1      -6.177  12.007  70.412  1.00  0.00    -0.379 OA 
HETATM   18  C   UNL     1      -6.673  11.355  69.230  1.00  0.00    -0.113 C  
HETATM   19  C   UNL     1      -7.980  10.629  69.536  1.00  0.00    -0.069 C  
HETATM   20  O   UNL     1      -7.827   9.926  70.773  1.00  0.00    -0.391 OA 
HETATM   21  H   UNL     1      -6.017  11.404  71.128  1.00  0.00     0.000 HD 
HETATM   22  C   UNL     1      -8.340   9.760  68.312  1.00  0.00    -0.106 C  
HETATM   23  O   UNL     1      -8.443  10.556  67.118  1.00  0.00    -0.126 OA 
HETATM   24  O   UNL     1      -7.392   8.714  68.067  1.00  0.00    -0.089 OA 
HETATM   25  H   UNL     1      -8.641   9.475  70.964  1.00  0.00     0.000 HD 
HETATM   26  C   UNL     1      -7.394  11.503  66.848  1.00  0.00    -0.140 C  
HETATM   27  P   UNL     1      -7.390   7.398  69.020  1.00  0.00    -0.094 P  
HETATM   28  C   UNL     1      -6.159  10.931  66.128  1.00  0.00    -0.135 C  
HETATM   29  O   UNL     1      -6.295   9.646  65.739  1.00  0.00    -0.069 OA 
HETATM   30  O   UNL     1      -5.140  11.566  65.898  1.00  0.00    -0.318 OA 
ENDBRANCH  15  16
ENDBRANCH   5  15
TORSDOF 2
ENDMDL
MODEL      145
REMARK 921   NORMALIZED FREE ENERGY PREDICTED BY IDOCK:   -4.63 KCAL/MOL
REMARK 922        TOTAL FREE ENERGY PREDICTED BY IDOCK:   -5.88 KCAL/MOL
REMARK 923 INTER-LIGAND FREE ENERGY PREDICTED BY IDOCK:   -4.98 KCAL/MOL
REMARK 924 INTRA-LIGAND FREE ENERGY PREDICTED BY IDOCK:   -0.90 KCAL/MOL
REMARK 927      BINDING AFFINITY PREDICTED BY RF-SCORE:    0.00 PKD
ROOT
HETATM    1  O   UNL     1      -9.943   4.336  68.449  1.00  0.00    -0.083 OA 
HETATM    2  C   UNL     1      -9.807   4.801  67.092  1.00  0.00    -0.193 C  
HETATM    3  H   UNL     1      -9.773   3.401  68.458  1.00  0.00     0.000 HD 
HETATM    4  C   UNL     1     -10.083   6.312  67.078  1.00  0.00    -0.176 C  
HETATM    5  C   UNL     1      -8.896   7.099  67.715  1.00  0.00    -0.124 C  
HETATM    6  O   UNL     1     -11.349   6.488  67.739  1.00  0.00    -0.609 OA 
HETATM    7  O   UNL     1      -5.479   3.793  67.164  1.00  0.00    -0.018 OA 
HETATM    8  H   UNL     1     -11.519   7.422  67.730  1.00  0.00     0.000 HD 
HETATM    9  O   UNL     1      -7.643   6.706  67.106  1.00  0.00    -0.092 OA 
HETATM   10  C   UNL     1      -7.390   5.304  67.351  1.00  0.00    -0.083 C  
HETATM   11  O   UNL     1      -5.205   5.972  66.615  1.00  0.00    -0.008 OA 
HETATM   12  P   UNL     1      -8.278   4.606  64.731  1.00  0.00    -0.123 P  
HETATM   13  C   UNL     1      -8.404   4.438  66.597  1.00  0.00    -0.105 C  
HETATM   14  C   UNL     1      -5.949   4.913  67.034  1.00  0.00    -0.027 C  
ENDROOT
BRANCH   5  15
HETATM   15  O   UNL     1      -9.017   8.530  67.595  1.00  0.00    -0.135 OA 
BRANCH  15  16
HETATM   16  C   UNL     1      -8.928   9.298  68.825  1.00  0.00    -0.132 C  
HETATM   17  O   UNL     1      -9.605  11.464  67.824  1.00  0.00    -0.166 OA 
HETATM   18  C   UNL     1      -9.884  10.501  68.855  1.00  0.00    -0.201 C  
HETATM   19  C   UNL     1     -11.309   9.975  68.715  1.00  0.00    -0.060 C  
HETATM   20  O   UNL     1     -12.179  11.085  68.471  1.00  0.00    -0.757 OA 
HETATM   21  H   UNL     1     -10.196  12.208  67.842  1.00  0.00     0.000 HD 
HETATM   22  C   UNL     1     -11.633   9.136  69.970  1.00  0.00     0.060 C  
HETATM   23  O   UNL     1     -10.687   8.065  70.141  1.00  0.00    -0.238 OA 
HETATM   24  O   UNL     1     -11.647   9.910  71.176  1.00  0.00    -0.341 OA 
HETATM   25  H   UNL     1     -13.066  10.758  68.383  1.00  0.00     0.000 HD 
HETATM   26  C   UNL     1      -9.288   8.377  70.015  1.00  0.00    -0.159 C  
HETATM   27  P   UNL     1     -12.910  10.885  71.484  1.00  0.00    -0.357 P  
HETATM   28  C   UNL     1      -8.616   8.914  71.292  1.00  0.00    -0.198 C  
HETATM   29  O   UNL     1      -9.411   8.894  72.382  1.00  0.00    -0.342 OA 
HETATM   30  O   UNL     1      -7.461   9.312  71.348  1.00  0.00    -0.316 OA 
ENDBRANCH  15  16
ENDBRANCH   5  15
TORSDOF 2
ENDMDL
MODEL      146
REMARK 921   NORMALIZED FREE ENERGY PREDICTED BY IDOCK:   -4.62 KCAL/MOL
REMARK 922        TOTAL FREE ENERGY PREDICTED BY IDOCK:   -5.86 KCAL/MOL
REMARK 923 INTER-LIGAND FREE ENERGY PREDICTED BY IDOCK:   -5.81 KCAL/MOL
REMARK 924 INTRA-LIGAND FREE ENERGY PREDICTED BY IDOCK:   -0.05 KCAL/MOL
REMARK 927      BINDING AFFINITY PREDICTED BY RF-SCORE:    0.00 PKD
ROOT
HETATM    1  O   UNL     1      -9.236  12.232  63.400  1.00  0.00    -0.560 OA 
HETATM    2  C   UNL     1     -10.559  12.379  63.953  1.00  0.00    -0.437 C  
HETATM    3  H   UNL     1      -9.112  12.913  62.750  1.00  0.00     0.000 HD 
HETATM    4  C   UNL     1     -10.759  11.276  65.004  1.00  0.00    -0.256 C  
HETATM    5  C   UNL     1      -9.933  11.580  66.291  1.00  0.00    -0.220 C  
HETATM    6  O   UNL     1     -10.425  10.040  64.347  1.00  0.00    -0.288 OA 
HETATM    7  O   UNL     1      -9.410  16.301  65.700  1.00  0.00    -0.457 OA 
HETATM    8  H   UNL     1     -10.549   9.359  64.997  1.00  0.00     0.000 HD 
HETATM    9  O   UNL     1     -10.203  12.921  66.762  1.00  0.00    -0.235 OA 
HETATM   10  C   UNL     1      -9.793  13.888  65.769  1.00  0.00    -0.239 C  
HETATM   11  O   UNL     1     -10.057  15.353  67.651  1.00  0.00    -0.233 OA 
HETATM   12  P   UNL     1     -12.481  14.226  64.874  1.00  0.00    -0.215 P  
HETATM   13  C   UNL     1     -10.687  13.793  64.527  1.00  0.00    -0.390 C  
HETATM   14  C   UNL     1      -9.736  15.306  66.329  1.00  0.00    -0.299 C  
ENDROOT
BRANCH   5  15
HETATM   15  O   UNL     1     -10.194  10.669  67.377  1.00  0.00    -0.187 OA 
BRANCH  15  16
HETATM   16  C   UNL     1      -9.912   9.265  67.134  1.00  0.00    -0.216 C  
HETATM   17  O   UNL     1      -7.813   9.642  65.867  1.00  0.00    -0.099 OA 
HETATM   18  C   UNL     1      -8.410   8.969  66.987  1.00  0.00    -0.116 C  
HETATM   19  C   UNL     1      -7.719   9.384  68.283  1.00  0.00    -0.083 C  
HETATM   20  O   UNL     1      -6.304   9.369  68.065  1.00  0.00    -0.056 OA 
HETATM   21  H   UNL     1      -6.886   9.460  65.776  1.00  0.00     0.000 HD 
HETATM   22  C   UNL     1      -8.231   8.465  69.413  1.00  0.00    -0.116 C  
HETATM   23  O   UNL     1      -9.664   8.532  69.531  1.00  0.00    -0.172 OA 
HETATM   24  O   UNL     1      -7.866   7.091  69.229  1.00  0.00    -0.109 OA 
HETATM   25  H   UNL     1      -5.874   9.628  68.872  1.00  0.00     0.000 HD 
HETATM   26  C   UNL     1     -10.445   8.435  68.327  1.00  0.00    -0.163 C  
HETATM   27  P   UNL     1      -6.338   6.625  69.523  1.00  0.00    -0.045 P  
HETATM   28  C   UNL     1     -10.745   7.001  67.852  1.00  0.00    -0.210 C  
HETATM   29  O   UNL     1     -10.339   6.041  68.708  1.00  0.00    -0.172 OA 
HETATM   30  O   UNL     1     -11.316   6.728  66.805  1.00  0.00    -0.239 OA 
ENDBRANCH  15  16
ENDBRANCH   5  15
TORSDOF 2
ENDMDL
MODEL      147
REMARK 921   NORMALIZED FREE ENERGY PREDICTED BY IDOCK:   -4.61 KCAL/MOL
REMARK 922        TOTAL FREE ENERGY PREDICTED BY IDOCK:   -5.86 KCAL/MOL
REMARK 923 INTER-LIGAND FREE ENERGY PREDICTED BY IDOCK:   -5.16 KCAL/MOL
REMARK 924 INTRA-LIGAND FREE ENERGY PREDICTED BY IDOCK:   -0.70 KCAL/MOL
REMARK 927      BINDING AFFINITY PREDICTED BY RF-SCORE:    0.00 PKD
ROOT
HETATM    1  O   UNL     1     -12.874  14.502  66.099  1.00  0.00    -0.368 OA 
HETATM    2  C   UNL     1     -12.498  14.008  67.400  1.00  0.00     0.070 C  
HETATM    3  H   UNL     1     -13.538  15.170  66.219  1.00  0.00     0.000 HD 
HETATM    4  C   UNL     1     -11.424  12.928  67.206  1.00  0.00    -0.336 C  
HETATM    5  C   UNL     1     -10.061  13.567  66.797  1.00  0.00    -0.268 C  
HETATM    6  O   UNL     1     -11.967  11.998  66.251  1.00  0.00    -0.596 OA 
HETATM    7  O   UNL     1     -10.832  17.993  68.449  1.00  0.00    -0.209 OA 
HETATM    8  H   UNL     1     -11.303  11.330  66.132  1.00  0.00     0.000 HD 
HETATM    9  O   UNL     1      -9.699  14.622  67.719  1.00  0.00    -0.211 OA 
HETATM   10  C   UNL     1     -10.683  15.680  67.674  1.00  0.00    -0.302 C  
HETATM   11  O   UNL     1      -8.929  16.830  68.839  1.00  0.00    -0.255 OA 
HETATM   12  P   UNL     1     -11.923  14.735  70.064  1.00  0.00    -0.350 P  
HETATM   13  C   UNL     1     -12.019  15.192  68.245  1.00  0.00    -0.159 C  
HETATM   14  C   UNL     1     -10.196  16.954  68.357  1.00  0.00    -0.322 C  
ENDROOT
BRANCH   5  15
HETATM   15  O   UNL     1      -8.969  12.627  66.750  1.00  0.00    -0.216 OA 
BRANCH  15  16
HETATM   16  C   UNL     1      -9.192  11.336  67.377  1.00  0.00    -0.162 C  
HETATM   17  O   UNL     1      -9.768  10.132  65.287  1.00  0.00    -0.256 OA 
HETATM   18  C   UNL     1      -8.908  10.153  66.438  1.00  0.00    -0.143 C  
HETATM   19  C   UNL     1      -7.447  10.234  66.004  1.00  0.00    -0.128 C  
HETATM   20  O   UNL     1      -7.242   9.310  64.930  1.00  0.00    -0.098 OA 
HETATM   21  H   UNL     1      -9.594   9.401  64.706  1.00  0.00     0.000 HD 
HETATM   22  C   UNL     1      -6.565  10.015  67.252  1.00  0.00    -0.069 C  
HETATM   23  O   UNL     1      -6.868  10.976  68.281  1.00  0.00    -0.065 OA 
HETATM   24  O   UNL     1      -6.705   8.705  67.816  1.00  0.00    -0.064 OA 
HETATM   25  H   UNL     1      -6.333   9.361  64.660  1.00  0.00     0.000 HD 
HETATM   26  C   UNL     1      -8.251  11.207  68.600  1.00  0.00    -0.152 C  
HETATM   27  P   UNL     1      -6.001   7.439  67.079  1.00  0.00    -0.045 P  
HETATM   28  C   UNL     1      -8.867  10.222  69.610  1.00  0.00    -0.103 C  
HETATM   29  O   UNL     1      -7.980   9.358  70.148  1.00  0.00    -0.112 OA 
HETATM   30  O   UNL     1     -10.047  10.211  69.930  1.00  0.00    -0.244 OA 
ENDBRANCH  15  16
ENDBRANCH   5  15
TORSDOF 2
ENDMDL
MODEL      148
REMARK 921   NORMALIZED FREE ENERGY PREDICTED BY IDOCK:   -4.60 KCAL/MOL
REMARK 922        TOTAL FREE ENERGY PREDICTED BY IDOCK:   -5.85 KCAL/MOL
REMARK 923 INTER-LIGAND FREE ENERGY PREDICTED BY IDOCK:   -5.03 KCAL/MOL
REMARK 924 INTRA-LIGAND FREE ENERGY PREDICTED BY IDOCK:   -0.82 KCAL/MOL
REMARK 927      BINDING AFFINITY PREDICTED BY RF-SCORE:    0.00 PKD
ROOT
HETATM    1  O   UNL     1     -11.166  15.264  65.098  1.00  0.00    -0.367 OA 
HETATM    2  C   UNL     1     -11.458  14.763  66.417  1.00  0.00    -0.319 C  
HETATM    3  H   UNL     1     -11.285  16.206  65.108  1.00  0.00     0.000 HD 
HETATM    4  C   UNL     1     -11.265  13.239  66.400  1.00  0.00    -0.302 C  
HETATM    5  C   UNL     1      -9.751  12.872  66.341  1.00  0.00    -0.263 C  
HETATM    6  O   UNL     1     -12.049  12.755  65.294  1.00  0.00    -0.405 OA 
HETATM    7  O   UNL     1      -7.962  16.970  68.048  1.00  0.00    -0.185 OA 
HETATM    8  H   UNL     1     -11.929  11.813  65.284  1.00  0.00     0.000 HD 
HETATM    9  O   UNL     1      -9.021  13.563  67.382  1.00  0.00    -0.197 OA 
HETATM   10  C   UNL     1      -9.108  14.992  67.186  1.00  0.00    -0.215 C  
HETATM   11  O   UNL     1      -7.313  14.928  68.777  1.00  0.00    -0.112 OA 
HETATM   12  P   UNL     1     -11.135  15.220  69.181  1.00  0.00    -0.309 P  
HETATM   13  C   UNL     1     -10.544  15.477  67.417  1.00  0.00    -0.292 C  
HETATM   14  C   UNL     1      -8.098  15.757  68.036  1.00  0.00    -0.140 C  
ENDROOT
BRANCH   5  15
HETATM   15  O   UNL     1      -9.489  11.461  66.479  1.00  0.00    -0.190 OA 
BRANCH  15  16
HETATM   16  C   UNL     1      -8.113  11.075  66.740  1.00  0.00    -0.151 C  
HETATM   17  O   UNL     1      -8.285  11.174  69.212  1.00  0.00    -0.354 OA 
HETATM   18  C   UNL     1      -7.935  10.353  68.086  1.00  0.00    -0.110 C  
HETATM   19  C   UNL     1      -8.795   9.093  68.062  1.00  0.00    -0.129 C  
HETATM   20  O   UNL     1      -8.852   8.560  69.390  1.00  0.00    -0.138 OA 
HETATM   21  H   UNL     1      -8.175  10.729  70.044  1.00  0.00     0.000 HD 
HETATM   22  C   UNL     1      -8.223   8.145  66.986  1.00  0.00    -0.115 C  
HETATM   23  O   UNL     1      -8.183   8.783  65.697  1.00  0.00    -0.108 OA 
HETATM   24  O   UNL     1      -6.903   7.679  67.291  1.00  0.00    -0.065 OA 
HETATM   25  H   UNL     1      -9.388   7.776  69.376  1.00  0.00     0.000 HD 
HETATM   26  C   UNL     1      -7.643  10.114  65.621  1.00  0.00    -0.144 C  
HETATM   27  P   UNL     1      -6.702   6.534  68.427  1.00  0.00    -0.073 P  
HETATM   28  C   UNL     1      -6.111  10.197  65.494  1.00  0.00    -0.099 C  
HETATM   29  O   UNL     1      -5.506   9.000  65.343  1.00  0.00    -0.038 OA 
HETATM   30  O   UNL     1      -5.473  11.240  65.506  1.00  0.00    -0.210 OA 
ENDBRANCH  15  16
ENDBRANCH   5  15
TORSDOF 2
ENDMDL
MODEL      149
REMARK 921   NORMALIZED FREE ENERGY PREDICTED BY IDOCK:   -4.60 KCAL/MOL
REMARK 922        TOTAL FREE ENERGY PREDICTED BY IDOCK:   -5.84 KCAL/MOL
REMARK 923 INTER-LIGAND FREE ENERGY PREDICTED BY IDOCK:   -4.91 KCAL/MOL
REMARK 924 INTRA-LIGAND FREE ENERGY PREDICTED BY IDOCK:   -0.93 KCAL/MOL
REMARK 927      BINDING AFFINITY PREDICTED BY RF-SCORE:    0.00 PKD
ROOT
HETATM    1  O   UNL     1     -10.306   5.335  65.654  1.00  0.00    -0.420 OA 
HETATM    2  C   UNL     1      -8.992   5.535  66.212  1.00  0.00    -0.140 C  
HETATM    3  H   UNL     1     -10.578   4.448  65.853  1.00  0.00     0.000 HD 
HETATM    4  C   UNL     1      -8.551   6.971  65.889  1.00  0.00    -0.145 C  
HETATM    5  C   UNL     1      -9.334   8.000  66.761  1.00  0.00    -0.180 C  
HETATM    6  O   UNL     1      -8.722   7.126  64.469  1.00  0.00    -0.331 OA 
HETATM    7  O   UNL     1     -10.647   5.070  70.311  1.00  0.00    -0.229 OA 
HETATM    8  H   UNL     1      -8.450   8.013  64.270  1.00  0.00     0.000 HD 
HETATM    9  O   UNL     1      -9.256   7.643  68.161  1.00  0.00    -0.138 OA 
HETATM   10  C   UNL     1      -9.877   6.357  68.381  1.00  0.00    -0.137 C  
HETATM   11  O   UNL     1      -9.736   7.114  70.654  1.00  0.00    -0.176 OA 
HETATM   12  P   UNL     1      -7.340   5.054  68.446  1.00  0.00    -0.067 P  
HETATM   13  C   UNL     1      -9.058   5.246  67.715  1.00  0.00    -0.110 C  
HETATM   14  C   UNL     1     -10.127   6.080  69.861  1.00  0.00    -0.185 C  
ENDROOT
BRANCH   5  15
HETATM   15  O   UNL     1      -8.863   9.356  66.623  1.00  0.00    -0.131 OA 
BRANCH  15  16
HETATM   16  C   UNL     1      -9.767  10.408  67.054  1.00  0.00    -0.178 C  
HETATM   17  O   UNL     1      -9.387  10.090  69.485  1.00  0.00    -0.207 OA 
HETATM   18  C   UNL     1      -9.365  11.033  68.400  1.00  0.00    -0.179 C  
HETATM   19  C   UNL     1      -7.968  11.628  68.245  1.00  0.00    -0.143 C  
HETATM   20  O   UNL     1      -7.475  11.968  69.546  1.00  0.00    -0.334 OA 
HETATM   21  H   UNL     1      -9.139  10.476  70.316  1.00  0.00     0.000 HD 
HETATM   22  C   UNL     1      -8.055  12.794  67.237  1.00  0.00    -0.172 C  
HETATM   23  O   UNL     1      -8.587  12.354  65.974  1.00  0.00     0.169 OA 
HETATM   24  O   UNL     1      -8.864  13.881  67.703  1.00  0.00    -0.171 OA 
HETATM   25  H   UNL     1      -6.606  12.338  69.449  1.00  0.00     0.000 HD 
HETATM   26  C   UNL     1      -9.767  11.532  65.991  1.00  0.00    -0.226 C  
HETATM   27  P   UNL     1      -8.276  14.886  68.837  1.00  0.00    -0.149 P  
HETATM   28  C   UNL     1     -11.101  12.298  66.064  1.00  0.00    -0.309 C  
HETATM   29  O   UNL     1     -10.972  13.638  65.975  1.00  0.00    -0.286 OA 
HETATM   30  O   UNL     1     -12.196  11.766  66.176  1.00  0.00    -0.336 OA 
ENDBRANCH  15  16
ENDBRANCH   5  15
TORSDOF 2
ENDMDL
MODEL      150
REMARK 921   NORMALIZED FREE ENERGY PREDICTED BY IDOCK:   -4.55 KCAL/MOL
REMARK 922        TOTAL FREE ENERGY PREDICTED BY IDOCK:   -5.79 KCAL/MOL
REMARK 923 INTER-LIGAND FREE ENERGY PREDICTED BY IDOCK:   -5.64 KCAL/MOL
REMARK 924 INTRA-LIGAND FREE ENERGY PREDICTED BY IDOCK:   -0.15 KCAL/MOL
REMARK 927      BINDING AFFINITY PREDICTED BY RF-SCORE:    0.00 PKD
ROOT
HETATM    1  O   UNL     1      -8.770   6.112  67.391  1.00  0.00    -0.107 OA 
HETATM    2  C   UNL     1      -8.418   7.243  68.213  1.00  0.00    -0.124 C  
HETATM    3  H   UNL     1      -8.506   5.322  67.849  1.00  0.00     0.000 HD 
HETATM    4  C   UNL     1      -8.845   8.519  67.472  1.00  0.00    -0.135 C  
HETATM    5  C   UNL     1     -10.396   8.684  67.499  1.00  0.00    -0.269 C  
HETATM    6  O   UNL     1      -8.270   8.422  66.157  1.00  0.00    -0.104 OA 
HETATM    7  O   UNL     1     -11.334   5.928  71.299  1.00  0.00    -0.261 OA 
HETATM    8  H   UNL     1      -8.534   9.211  65.699  1.00  0.00     0.000 HD 
HETATM    9  O   UNL     1     -10.894   8.574  68.853  1.00  0.00    -0.123 OA 
HETATM   10  C   UNL     1     -10.608   7.261  69.384  1.00  0.00    -0.229 C  
HETATM   11  O   UNL     1     -12.209   7.997  71.012  1.00  0.00    -0.280 OA 
HETATM   12  P   UNL     1      -8.367   8.253  70.845  1.00  0.00    -0.154 P  
HETATM   13  C   UNL     1      -9.098   7.078  69.575  1.00  0.00    -0.146 C  
HETATM   14  C   UNL     1     -11.390   6.968  70.661  1.00  0.00    -0.307 C  
ENDROOT
BRANCH   5  15
HETATM   15  O   UNL     1     -10.856   9.938  66.958  1.00  0.00    -0.213 OA 
BRANCH  15  16
HETATM   16  C   UNL     1      -9.857  10.783  66.328  1.00  0.00    -0.215 C  
HETATM   17  O   UNL     1     -10.930  10.823  64.092  1.00  0.00    -0.339 OA 
HETATM   18  C   UNL     1     -10.422  11.624  65.172  1.00  0.00    -0.279 C  
HETATM   19  C   UNL     1     -11.525  12.517  65.733  1.00  0.00    -0.365 C  
HETATM   20  O   UNL     1     -12.237  13.100  64.636  1.00  0.00    -0.382 OA 
HETATM   21  H   UNL     1     -11.279  11.343  63.377  1.00  0.00     0.000 HD 
HETATM   22  C   UNL     1     -10.878  13.515  66.716  1.00  0.00    -0.282 C  
HETATM   23  O   UNL     1     -10.167  12.830  67.763  1.00  0.00    -0.214 OA 
HETATM   24  O   UNL     1      -9.967  14.420  66.080  1.00  0.00    -0.286 OA 
HETATM   25  H   UNL     1     -12.924  13.655  64.985  1.00  0.00     0.000 HD 
HETATM   26  C   UNL     1      -9.286  11.756  67.387  1.00  0.00    -0.174 C  
HETATM   27  P   UNL     1     -10.551  15.650  65.193  1.00  0.00    -0.294 P  
HETATM   28  C   UNL     1      -7.868  12.184  66.969  1.00  0.00    -0.123 C  
HETATM   29  O   UNL     1      -7.617  13.499  67.139  1.00  0.00    -0.102 OA 
HETATM   30  O   UNL     1      -7.017  11.420  66.537  1.00  0.00    -0.130 OA 
ENDBRANCH  15  16
ENDBRANCH   5  15
TORSDOF 2
ENDMDL
MODEL      151
REMARK 921   NORMALIZED FREE ENERGY PREDICTED BY IDOCK:   -4.54 KCAL/MOL
REMARK 922        TOTAL FREE ENERGY PREDICTED BY IDOCK:   -5.78 KCAL/MOL
REMARK 923 INTER-LIGAND FREE ENERGY PREDICTED BY IDOCK:   -4.90 KCAL/MOL
REMARK 924 INTRA-LIGAND FREE ENERGY PREDICTED BY IDOCK:   -0.89 KCAL/MOL
REMARK 927      BINDING AFFINITY PREDICTED BY RF-SCORE:    0.00 PKD
ROOT
HETATM    1  O   UNL     1      -7.851  13.474  68.139  1.00  0.00    -0.122 OA 
HETATM    2  C   UNL     1      -7.021  12.328  67.862  1.00  0.00    -0.104 C  
HETATM    3  H   UNL     1      -7.828  14.044  67.380  1.00  0.00     0.000 HD 
HETATM    4  C   UNL     1      -7.058  11.406  69.090  1.00  0.00    -0.115 C  
HETATM    5  C   UNL     1      -8.433  10.679  69.197  1.00  0.00    -0.128 C  
HETATM    6  O   UNL     1      -6.723  12.237  70.216  1.00  0.00    -0.421 OA 
HETATM    7  O   UNL     1      -9.803  11.078  64.629  1.00  0.00    -0.241 OA 
HETATM    8  H   UNL     1      -6.745  11.667  70.976  1.00  0.00     0.000 HD 
HETATM    9  O   UNL     1      -8.763  10.032  67.945  1.00  0.00    -0.124 OA 
HETATM   10  C   UNL     1      -8.897  11.018  66.897  1.00  0.00    -0.149 C  
HETATM   11  O   UNL     1      -9.917   9.144  65.800  1.00  0.00    -0.277 OA 
HETATM   12  P   UNL     1      -6.286  10.434  65.906  1.00  0.00    -0.130 P  
HETATM   13  C   UNL     1      -7.539  11.656  66.586  1.00  0.00    -0.050 C  
HETATM   14  C   UNL     1      -9.566  10.450  65.649  1.00  0.00    -0.226 C  
ENDROOT
BRANCH   5  15
HETATM   15  O   UNL     1      -8.483   9.681  70.237  1.00  0.00    -0.189 OA 
BRANCH  15  16
HETATM   16  C   UNL     1      -9.739   8.971  70.400  1.00  0.00    -0.206 C  
HETATM   17  O   UNL     1      -9.437   7.467  68.450  1.00  0.00    -0.148 OA 
HETATM   18  C   UNL     1      -9.691   7.531  69.863  1.00  0.00    -0.171 C  
HETATM   19  C   UNL     1      -8.607   6.778  70.630  1.00  0.00    -0.142 C  
HETATM   20  O   UNL     1      -8.366   5.533  69.965  1.00  0.00    -0.111 OA 
HETATM   21  H   UNL     1      -9.407   6.578  68.118  1.00  0.00     0.000 HD 
HETATM   22  C   UNL     1      -9.050   6.673  72.104  1.00  0.00    -0.138 C  
HETATM   23  O   UNL     1      -9.292   7.975  72.670  1.00  0.00    -0.196 OA 
HETATM   24  O   UNL     1     -10.234   5.886  72.282  1.00  0.00    -0.184 OA 
HETATM   25  H   UNL     1      -7.690   5.065  70.442  1.00  0.00     0.000 HD 
HETATM   26  C   UNL     1     -10.083   8.904  71.907  1.00  0.00    -0.322 C  
HETATM   27  P   UNL     1     -10.139   4.267  72.181  1.00  0.00    -0.133 P  
HETATM   28  C   UNL     1     -11.607   8.761  72.073  1.00  0.00    -0.366 C  
HETATM   29  O   UNL     1     -11.978   7.865  73.011  1.00  0.00    -0.187 OA 
HETATM   30  O   UNL     1     -12.432   9.403  71.438  1.00  0.00    -0.317 OA 
ENDBRANCH  15  16
ENDBRANCH   5  15
TORSDOF 2
ENDMDL
MODEL      152
REMARK 921   NORMALIZED FREE ENERGY PREDICTED BY IDOCK:   -4.53 KCAL/MOL
REMARK 922        TOTAL FREE ENERGY PREDICTED BY IDOCK:   -5.77 KCAL/MOL
REMARK 923 INTER-LIGAND FREE ENERGY PREDICTED BY IDOCK:   -5.10 KCAL/MOL
REMARK 924 INTRA-LIGAND FREE ENERGY PREDICTED BY IDOCK:   -0.67 KCAL/MOL
REMARK 927      BINDING AFFINITY PREDICTED BY RF-SCORE:    0.00 PKD
ROOT
HETATM    1  O   UNL     1     -11.199   5.585  74.140  1.00  0.00    -0.360 OA 
HETATM    2  C   UNL     1     -11.115   4.876  72.887  1.00  0.00    -0.256 C  
HETATM    3  H   UNL     1     -10.940   4.989  74.833  1.00  0.00     0.000 HD 
HETATM    4  C   UNL     1     -11.535   5.840  71.767  1.00  0.00    -0.131 C  
HETATM    5  C   UNL     1     -10.426   6.906  71.508  1.00  0.00    -0.212 C  
HETATM    6  O   UNL     1     -12.809   6.376  72.166  1.00  0.00    -0.521 OA 
HETATM    7  O   UNL     1      -6.709   4.529  73.364  1.00  0.00    -0.054 OA 
HETATM    8  H   UNL     1     -13.068   6.971  71.473  1.00  0.00     0.000 HD 
HETATM    9  O   UNL     1      -9.144   6.265  71.307  1.00  0.00    -0.146 OA 
HETATM   10  C   UNL     1      -8.756   5.546  72.499  1.00  0.00    -0.124 C  
HETATM   11  O   UNL     1      -6.649   5.561  71.350  1.00  0.00    -0.041 OA 
HETATM   12  P   UNL     1      -9.584   3.063  71.364  1.00  0.00    -0.116 P  
HETATM   13  C   UNL     1      -9.685   4.349  72.728  1.00  0.00    -0.141 C  
HETATM   14  C   UNL     1      -7.286   5.137  72.476  1.00  0.00    -0.092 C  
ENDROOT
BRANCH   5  15
HETATM   15  O   UNL     1     -10.685   7.747  70.366  1.00  0.00    -0.227 OA 
BRANCH  15  16
HETATM   16  C   UNL     1     -10.647   9.181  70.590  1.00  0.00    -0.246 C  
HETATM   17  O   UNL     1      -8.307   9.250  71.411  1.00  0.00    -0.323 OA 
HETATM   18  C   UNL     1      -9.236   9.776  70.448  1.00  0.00    -0.111 C  
HETATM   19  C   UNL     1      -8.745   9.494  69.031  1.00  0.00    -0.142 C  
HETATM   20  O   UNL     1      -7.347   9.797  68.969  1.00  0.00    -0.073 OA 
HETATM   21  H   UNL     1      -7.436   9.617  71.324  1.00  0.00     0.000 HD 
HETATM   22  C   UNL     1      -9.643  10.278  68.050  1.00  0.00    -0.145 C  
HETATM   23  O   UNL     1     -11.028   9.922  68.212  1.00  0.00    -0.240 OA 
HETATM   24  O   UNL     1      -9.532  11.699  68.199  1.00  0.00    -0.178 OA 
HETATM   25  H   UNL     1      -7.042   9.621  68.087  1.00  0.00     0.000 HD 
HETATM   26  C   UNL     1     -11.559   9.873  69.548  1.00  0.00     0.001 C  
HETATM   27  P   UNL     1      -8.216  12.461  67.625  1.00  0.00    -0.196 P  
HETATM   28  C   UNL     1     -12.041  11.222  70.114  1.00  0.00    -0.366 C  
HETATM   29  O   UNL     1     -12.012  12.234  69.223  1.00  0.00    -0.296 OA 
HETATM   30  O   UNL     1     -12.437  11.386  71.260  1.00  0.00    -0.364 OA 
ENDBRANCH  15  16
ENDBRANCH   5  15
TORSDOF 2
ENDMDL
MODEL      153
REMARK 921   NORMALIZED FREE ENERGY PREDICTED BY IDOCK:   -4.50 KCAL/MOL
REMARK 922        TOTAL FREE ENERGY PREDICTED BY IDOCK:   -5.74 KCAL/MOL
REMARK 923 INTER-LIGAND FREE ENERGY PREDICTED BY IDOCK:   -6.15 KCAL/MOL
REMARK 924 INTRA-LIGAND FREE ENERGY PREDICTED BY IDOCK:    0.42 KCAL/MOL
REMARK 927      BINDING AFFINITY PREDICTED BY RF-SCORE:    0.00 PKD
ROOT
HETATM    1  O   UNL     1     -11.842  10.678  67.895  1.00  0.00    -0.738 OA 
HETATM    2  C   UNL     1     -11.963  12.089  67.623  1.00  0.00    -0.079 C  
HETATM    3  H   UNL     1     -12.578  10.236  67.489  1.00  0.00     0.000 HD 
HETATM    4  C   UNL     1     -10.773  12.803  68.281  1.00  0.00    -0.239 C  
HETATM    5  C   UNL     1      -9.455  12.526  67.494  1.00  0.00    -0.185 C  
HETATM    6  O   UNL     1     -10.761  12.368  69.653  1.00  0.00    -0.422 OA 
HETATM    7  O   UNL     1     -11.387  11.317  63.285  1.00  0.00    -0.197 OA 
HETATM    8  H   UNL     1     -10.025  12.810  70.059  1.00  0.00     0.000 HD 
HETATM    9  O   UNL     1      -9.634  12.816  66.088  1.00  0.00    -0.254 OA 
HETATM   10  C   UNL     1     -10.643  11.947  65.525  1.00  0.00    -0.269 C  
HETATM   11  O   UNL     1      -9.671  12.778  63.495  1.00  0.00    -0.124 OA 
HETATM   12  P   UNL     1     -12.609  14.011  65.664  1.00  0.00    -0.335 P  
HETATM   13  C   UNL     1     -12.022  12.283  66.105  1.00  0.00    -0.249 C  
HETATM   14  C   UNL     1     -10.641  11.968  63.999  1.00  0.00    -0.377 C  
ENDROOT
BRANCH   5  15
HETATM   15  O   UNL     1      -8.326  13.289  67.963  1.00  0.00    -0.142 OA 
BRANCH  15  16
HETATM   16  C   UNL     1      -8.592  14.285  68.987  1.00  0.00     0.060 C  
HETATM   17  O   UNL     1      -6.325  14.229  69.993  1.00  0.00    -0.143 OA 
HETATM   18  C   UNL     1      -7.337  15.066  69.408  1.00  0.00    -0.194 C  
HETATM   19  C   UNL     1      -6.787  15.776  68.174  1.00  0.00    -0.120 C  
HETATM   20  O   UNL     1      -5.483  16.279  68.485  1.00  0.00    -0.099 OA 
HETATM   21  H   UNL     1      -5.550  14.711  70.253  1.00  0.00     0.000 HD 
HETATM   22  C   UNL     1      -7.822  16.831  67.729  1.00  0.00    -0.176 C  
HETATM   23  O   UNL     1      -9.103  16.228  67.468  1.00  0.00    -0.192 OA 
HETATM   24  O   UNL     1      -8.013  17.873  68.694  1.00  0.00    -0.290 OA 
HETATM   25  H   UNL     1      -5.141  16.721  67.717  1.00  0.00     0.000 HD 
HETATM   26  C   UNL     1      -9.622  15.302  68.438  1.00  0.00    -0.206 C  
HETATM   27  P   UNL     1      -6.882  19.029  68.855  1.00  0.00    -0.324 P  
HETATM   28  C   UNL     1     -10.380  15.940  69.617  1.00  0.00    -0.299 C  
HETATM   29  O   UNL     1     -10.558  17.272  69.501  1.00  0.00    -0.264 OA 
HETATM   30  O   UNL     1     -10.811  15.317  70.577  1.00  0.00    -0.295 OA 
ENDBRANCH  15  16
ENDBRANCH   5  15
TORSDOF 2
ENDMDL
MODEL      154
REMARK 921   NORMALIZED FREE ENERGY PREDICTED BY IDOCK:   -4.49 KCAL/MOL
REMARK 922        TOTAL FREE ENERGY PREDICTED BY IDOCK:   -5.72 KCAL/MOL
REMARK 923 INTER-LIGAND FREE ENERGY PREDICTED BY IDOCK:   -5.53 KCAL/MOL
REMARK 924 INTRA-LIGAND FREE ENERGY PREDICTED BY IDOCK:   -0.19 KCAL/MOL
REMARK 927      BINDING AFFINITY PREDICTED BY RF-SCORE:    0.00 PKD
ROOT
HETATM    1  O   UNL     1     -12.427   6.908  70.124  1.00  0.00    -0.602 OA 
HETATM    2  C   UNL     1     -11.197   6.181  69.938  1.00  0.00    -0.414 C  
HETATM    3  H   UNL     1     -12.876   6.539  70.876  1.00  0.00     0.000 HD 
HETATM    4  C   UNL     1     -10.472   6.779  68.722  1.00  0.00    -0.208 C  
HETATM    5  C   UNL     1      -9.868   8.175  69.066  1.00  0.00    -0.176 C  
HETATM    6  O   UNL     1     -11.434   6.782  67.652  1.00  0.00    -0.650 OA 
HETATM    7  O   UNL     1      -9.686   7.713  73.827  1.00  0.00    -0.285 OA 
HETATM    8  H   UNL     1     -10.985   7.151  66.901  1.00  0.00     0.000 HD 
HETATM    9  O   UNL     1      -9.070   8.099  70.271  1.00  0.00    -0.148 OA 
HETATM   10  C   UNL     1      -9.897   7.718  71.393  1.00  0.00    -0.167 C  
HETATM   11  O   UNL     1      -7.959   8.485  72.582  1.00  0.00    -0.298 OA 
HETATM   12  P   UNL     1      -8.986   5.018  71.247  1.00  0.00    -0.143 P  
HETATM   13  C   UNL     1     -10.383   6.273  71.232  1.00  0.00    -0.212 C  
HETATM   14  C   UNL     1      -9.200   7.945  72.731  1.00  0.00    -0.221 C  
ENDROOT
BRANCH   5  15
HETATM   15  O   UNL     1      -9.042   8.725  68.021  1.00  0.00    -0.139 OA 
BRANCH  15  16
HETATM   16  C   UNL     1      -9.151   8.108  66.711  1.00  0.00    -0.157 C  
HETATM   17  O   UNL     1     -10.272  10.030  65.615  1.00  0.00    -0.267 OA 
HETATM   18  C   UNL     1      -9.153   9.129  65.562  1.00  0.00    -0.219 C  
HETATM   19  C   UNL     1      -7.842   9.909  65.622  1.00  0.00    -0.127 C  
HETATM   20  O   UNL     1      -7.945  11.032  64.740  1.00  0.00    -0.354 OA 
HETATM   21  H   UNL     1     -10.273  10.662  64.906  1.00  0.00     0.000 HD 
HETATM   22  C   UNL     1      -6.689   8.928  65.323  1.00  0.00    -0.068 C  
HETATM   23  O   UNL     1      -6.691   7.823  66.246  1.00  0.00    -0.052 OA 
HETATM   24  O   UNL     1      -6.735   8.394  63.994  1.00  0.00    -0.074 OA 
HETATM   25  H   UNL     1      -7.129  11.518  64.778  1.00  0.00     0.000 HD 
HETATM   26  C   UNL     1      -7.943   7.162  66.502  1.00  0.00    -0.112 C  
HETATM   27  P   UNL     1      -6.283   9.327  62.743  1.00  0.00    -0.094 P  
HETATM   28  C   UNL     1      -8.327   6.066  65.491  1.00  0.00    -0.146 C  
HETATM   29  O   UNL     1      -7.369   5.797  64.581  1.00  0.00    -0.063 OA 
HETATM   30  O   UNL     1      -9.391   5.463  65.499  1.00  0.00    -0.136 OA 
ENDBRANCH  15  16
ENDBRANCH   5  15
TORSDOF 2
ENDMDL
MODEL      155
REMARK 921   NORMALIZED FREE ENERGY PREDICTED BY IDOCK:   -4.49 KCAL/MOL
REMARK 922        TOTAL FREE ENERGY PREDICTED BY IDOCK:   -5.72 KCAL/MOL
REMARK 923 INTER-LIGAND FREE ENERGY PREDICTED BY IDOCK:   -4.93 KCAL/MOL
REMARK 924 INTRA-LIGAND FREE ENERGY PREDICTED BY IDOCK:   -0.79 KCAL/MOL
REMARK 927      BINDING AFFINITY PREDICTED BY RF-SCORE:    0.00 PKD
ROOT
HETATM    1  O   UNL     1     -10.941   5.284  74.133  1.00  0.00    -0.393 OA 
HETATM    2  C   UNL     1     -10.933   4.749  72.794  1.00  0.00    -0.194 C  
HETATM    3  H   UNL     1     -10.708   4.583  74.730  1.00  0.00     0.000 HD 
HETATM    4  C   UNL     1     -11.310   5.883  71.828  1.00  0.00    -0.227 C  
HETATM    5  C   UNL     1     -10.138   6.901  71.681  1.00  0.00    -0.190 C  
HETATM    6  O   UNL     1     -12.536   6.441  72.335  1.00  0.00    -0.543 OA 
HETATM    7  O   UNL     1      -6.552   4.056  73.082  1.00  0.00    -0.038 OA 
HETATM    8  H   UNL     1     -12.769   7.141  71.738  1.00  0.00     0.000 HD 
HETATM    9  O   UNL     1      -8.907   6.212  71.356  1.00  0.00    -0.138 OA 
HETATM   10  C   UNL     1      -8.543   5.312  72.426  1.00  0.00    -0.122 C  
HETATM   11  O   UNL     1      -6.465   5.349  71.225  1.00  0.00    -0.033 OA 
HETATM   12  P   UNL     1      -9.563   3.067  70.992  1.00  0.00    -0.039 P  
HETATM   13  C   UNL     1      -9.547   4.158  72.520  1.00  0.00    -0.139 C  
HETATM   14  C   UNL     1      -7.105   4.816  72.302  1.00  0.00    -0.078 C  
ENDROOT
BRANCH   5  15
HETATM   15  O   UNL     1     -10.363   7.905  70.672  1.00  0.00    -0.200 OA 
BRANCH  15  16
HETATM   16  C   UNL     1      -9.204   8.336  69.910  1.00  0.00    -0.154 C  
HETATM   17  O   UNL     1      -9.073   6.314  68.479  1.00  0.00    -0.126 OA 
HETATM   18  C   UNL     1      -9.164   7.748  68.490  1.00  0.00    -0.137 C  
HETATM   19  C   UNL     1     -10.423   8.203  67.756  1.00  0.00    -0.214 C  
HETATM   20  O   UNL     1     -10.534   7.453  66.541  1.00  0.00    -0.496 OA 
HETATM   21  H   UNL     1      -9.048   5.951  67.602  1.00  0.00     0.000 HD 
HETATM   22  C   UNL     1     -10.351   9.736  67.590  1.00  0.00    -0.230 C  
HETATM   23  O   UNL     1     -10.213  10.394  68.863  1.00  0.00    -0.183 OA 
HETATM   24  O   UNL     1      -9.267  10.161  66.753  1.00  0.00    -0.148 OA 
HETATM   25  H   UNL     1     -11.317   7.736  66.085  1.00  0.00     0.000 HD 
HETATM   26  C   UNL     1      -9.235   9.878  69.784  1.00  0.00    -0.227 C  
HETATM   27  P   UNL     1      -9.383   9.978  65.143  1.00  0.00    -0.286 P  
HETATM   28  C   UNL     1      -7.800  10.398  69.579  1.00  0.00    -0.155 C  
HETATM   29  O   UNL     1      -7.693  11.363  68.642  1.00  0.00    -0.124 OA 
HETATM   30  O   UNL     1      -6.828  10.005  70.208  1.00  0.00    -0.118 OA 
ENDBRANCH  15  16
ENDBRANCH   5  15
TORSDOF 2
ENDMDL
MODEL      156
REMARK 921   NORMALIZED FREE ENERGY PREDICTED BY IDOCK:   -4.48 KCAL/MOL
REMARK 922        TOTAL FREE ENERGY PREDICTED BY IDOCK:   -5.71 KCAL/MOL
REMARK 923 INTER-LIGAND FREE ENERGY PREDICTED BY IDOCK:   -5.23 KCAL/MOL
REMARK 924 INTRA-LIGAND FREE ENERGY PREDICTED BY IDOCK:   -0.48 KCAL/MOL
REMARK 927      BINDING AFFINITY PREDICTED BY RF-SCORE:    0.00 PKD
ROOT
HETATM    1  O   UNL     1      -9.900  20.517  66.260  1.00  0.00    -0.623 OA 
HETATM    2  C   UNL     1      -8.845  20.449  67.240  1.00  0.00    -0.338 C  
HETATM    3  H   UNL     1      -9.689  21.214  65.650  1.00  0.00     0.000 HD 
HETATM    4  C   UNL     1      -9.186  19.322  68.227  1.00  0.00    -0.341 C  
HETATM    5  C   UNL     1      -8.981  17.924  67.566  1.00  0.00    -0.248 C  
HETATM    6  O   UNL     1     -10.526  19.587  68.680  1.00  0.00    -0.509 OA 
HETATM    7  O   UNL     1      -5.968  19.224  64.081  1.00  0.00    -0.376 OA 
HETATM    8  H   UNL     1     -10.736  18.890  69.291  1.00  0.00     0.000 HD 
HETATM    9  O   UNL     1      -7.664  17.832  66.973  1.00  0.00    -0.198 OA 
HETATM   10  C   UNL     1      -7.523  18.813  65.920  1.00  0.00    -0.198 C  
HETATM   11  O   UNL     1      -5.626  17.432  65.421  1.00  0.00    -0.017 OA 
HETATM   12  P   UNL     1      -6.055  20.557  67.635  1.00  0.00    -0.294 P  
HETATM   13  C   UNL     1      -7.519  20.229  66.506  1.00  0.00    -0.259 C  
HETATM   14  C   UNL     1      -6.304  18.549  65.042  1.00  0.00    -0.081 C  
ENDROOT
BRANCH   5  15
HETATM   15  O   UNL     1      -9.132  16.821  68.481  1.00  0.00    -0.224 OA 
BRANCH  15  16
HETATM   16  C   UNL     1      -9.808  15.640  67.973  1.00  0.00    -0.209 C  
HETATM   17  O   UNL     1      -8.547  15.521  65.841  1.00  0.00    -0.331 OA 
HETATM   18  C   UNL     1      -8.932  14.805  67.026  1.00  0.00    -0.238 C  
HETATM   19  C   UNL     1      -7.694  14.359  67.799  1.00  0.00    -0.161 C  
HETATM   20  O   UNL     1      -6.750  13.818  66.868  1.00  0.00    -0.300 OA 
HETATM   21  H   UNL     1      -8.006  15.006  65.255  1.00  0.00     0.000 HD 
HETATM   22  C   UNL     1      -8.150  13.401  68.920  1.00  0.00     0.147 C  
HETATM   23  O   UNL     1      -9.116  14.029  69.783  1.00  0.00     0.838 OA 
HETATM   24  O   UNL     1      -8.726  12.186  68.422  1.00  0.00    -0.176 OA 
HETATM   25  H   UNL     1      -5.980  13.541  67.349  1.00  0.00     0.000 HD 
HETATM   26  C   UNL     1     -10.205  14.740  69.168  1.00  0.00    -0.220 C  
HETATM   27  P   UNL     1      -7.756  11.034  67.813  1.00  0.00    -0.115 P  
HETATM   28  C   UNL     1     -11.414  13.874  68.769  1.00  0.00    -0.292 C  
HETATM   29  O   UNL     1     -11.327  12.588  69.171  1.00  0.00    -0.257 OA 
HETATM   30  O   UNL     1     -12.389  14.290  68.159  1.00  0.00    -0.212 OA 
ENDBRANCH  15  16
ENDBRANCH   5  15
TORSDOF 2
ENDMDL
MODEL      157
REMARK 921   NORMALIZED FREE ENERGY PREDICTED BY IDOCK:   -4.43 KCAL/MOL
REMARK 922        TOTAL FREE ENERGY PREDICTED BY IDOCK:   -5.65 KCAL/MOL
REMARK 923 INTER-LIGAND FREE ENERGY PREDICTED BY IDOCK:   -5.05 KCAL/MOL
REMARK 924 INTRA-LIGAND FREE ENERGY PREDICTED BY IDOCK:   -0.60 KCAL/MOL
REMARK 927      BINDING AFFINITY PREDICTED BY RF-SCORE:    0.00 PKD
ROOT
HETATM    1  O   UNL     1     -12.337   7.125  69.956  1.00  0.00    -0.460 OA 
HETATM    2  C   UNL     1     -11.276   6.150  69.936  1.00  0.00    -0.414 C  
HETATM    3  H   UNL     1     -12.866   6.968  70.730  1.00  0.00     0.000 HD 
HETATM    4  C   UNL     1     -10.422   6.404  68.685  1.00  0.00    -0.223 C  
HETATM    5  C   UNL     1      -9.555   7.689  68.856  1.00  0.00    -0.150 C  
HETATM    6  O   UNL     1     -11.342   6.437  67.579  1.00  0.00    -0.647 OA 
HETATM    7  O   UNL     1      -9.562   7.916  73.637  1.00  0.00    -0.280 OA 
HETATM    8  H   UNL     1     -10.814   6.594  66.806  1.00  0.00     0.000 HD 
HETATM    9  O   UNL     1      -8.812   7.638  70.096  1.00  0.00    -0.144 OA 
HETATM   10  C   UNL     1      -9.721   7.599  71.219  1.00  0.00    -0.160 C  
HETATM   11  O   UNL     1      -7.691   8.137  72.381  1.00  0.00    -0.106 OA 
HETATM   12  P   UNL     1      -9.373   4.781  71.504  1.00  0.00    -0.160 P  
HETATM   13  C   UNL     1     -10.486   6.271  71.242  1.00  0.00    -0.218 C  
HETATM   14  C   UNL     1      -9.018   7.882  72.544  1.00  0.00    -0.174 C  
ENDROOT
BRANCH   5  15
HETATM   15  O   UNL     1      -8.614   7.903  67.785  1.00  0.00    -0.127 OA 
BRANCH  15  16
HETATM   16  C   UNL     1      -8.561   9.240  67.220  1.00  0.00    -0.125 C  
HETATM   17  O   UNL     1      -6.239   9.730  67.943  1.00  0.00    -0.051 OA 
HETATM   18  C   UNL     1      -7.139   9.670  66.823  1.00  0.00    -0.086 C  
HETATM   19  C   UNL     1      -6.621   8.683  65.781  1.00  0.00    -0.057 C  
HETATM   20  O   UNL     1      -5.218   8.907  65.605  1.00  0.00    -0.036 OA 
HETATM   21  H   UNL     1      -5.361   9.996  67.698  1.00  0.00     0.000 HD 
HETATM   22  C   UNL     1      -7.486   8.833  64.511  1.00  0.00    -0.106 C  
HETATM   23  O   UNL     1      -8.879   8.616  64.800  1.00  0.00    -0.123 OA 
HETATM   24  O   UNL     1      -7.358  10.118  63.891  1.00  0.00    -0.136 OA 
HETATM   25  H   UNL     1      -4.895   8.293  64.956  1.00  0.00     0.000 HD 
HETATM   26  C   UNL     1      -9.440   9.279  65.947  1.00  0.00    -0.259 C  
HETATM   27  P   UNL     1      -6.019  10.463  63.037  1.00  0.00    -0.085 P  
HETATM   28  C   UNL     1      -9.915  10.723  65.704  1.00  0.00    -0.260 C  
HETATM   29  O   UNL     1      -9.852  11.114  64.414  1.00  0.00    -0.244 OA 
HETATM   30  O   UNL     1     -10.334  11.467  66.580  1.00  0.00    -0.218 OA 
ENDBRANCH  15  16
ENDBRANCH   5  15
TORSDOF 2
ENDMDL
MODEL      158
REMARK 921   NORMALIZED FREE ENERGY PREDICTED BY IDOCK:   -4.42 KCAL/MOL
REMARK 922        TOTAL FREE ENERGY PREDICTED BY IDOCK:   -5.65 KCAL/MOL
REMARK 923 INTER-LIGAND FREE ENERGY PREDICTED BY IDOCK:   -4.77 KCAL/MOL
REMARK 924 INTRA-LIGAND FREE ENERGY PREDICTED BY IDOCK:   -0.87 KCAL/MOL
REMARK 927      BINDING AFFINITY PREDICTED BY RF-SCORE:    0.00 PKD
ROOT
HETATM    1  O   UNL     1      -9.997   5.759  67.642  1.00  0.00    -0.122 OA 
HETATM    2  C   UNL     1      -8.763   6.028  66.948  1.00  0.00    -0.112 C  
HETATM    3  H   UNL     1     -10.001   4.843  67.891  1.00  0.00     0.000 HD 
HETATM    4  C   UNL     1      -8.758   7.510  66.544  1.00  0.00    -0.140 C  
HETATM    5  C   UNL     1      -8.529   8.423  67.788  1.00  0.00    -0.131 C  
HETATM    6  O   UNL     1      -9.997   7.734  65.849  1.00  0.00    -0.396 OA 
HETATM    7  O   UNL     1      -6.473   5.197  70.665  1.00  0.00    -0.028 OA 
HETATM    8  H   UNL     1      -9.993   8.650  65.599  1.00  0.00     0.000 HD 
HETATM    9  O   UNL     1      -7.361   7.991  68.526  1.00  0.00    -0.092 OA 
HETATM   10  C   UNL     1      -7.557   6.650  69.027  1.00  0.00    -0.101 C  
HETATM   11  O   UNL     1      -5.653   7.282  70.343  1.00  0.00    -0.023 OA 
HETATM   12  P   UNL     1      -5.984   5.548  66.917  1.00  0.00    -0.019 P  
HETATM   13  C   UNL     1      -7.600   5.647  67.869  1.00  0.00    -0.085 C  
HETATM   14  C   UNL     1      -6.522   6.268  70.081  1.00  0.00    -0.040 C  
ENDROOT
BRANCH   5  15
HETATM   15  O   UNL     1      -8.357   9.816  67.462  1.00  0.00    -0.114 OA 
BRANCH  15  16
HETATM   16  C   UNL     1      -9.238  10.757  68.133  1.00  0.00    -0.151 C  
HETATM   17  O   UNL     1      -7.932  12.786  67.557  1.00  0.00    -0.154 OA 
HETATM   18  C   UNL     1      -9.223  12.156  67.496  1.00  0.00    -0.182 C  
HETATM   19  C   UNL     1      -9.677  12.019  66.046  1.00  0.00    -0.239 C  
HETATM   20  O   UNL     1      -9.411  13.253  65.371  1.00  0.00    -0.424 OA 
HETATM   21  H   UNL     1      -7.922  13.650  67.164  1.00  0.00     0.000 HD 
HETATM   22  C   UNL     1     -11.151  11.562  66.048  1.00  0.00    -0.230 C  
HETATM   23  O   UNL     1     -11.315  10.330  66.773  1.00  0.00    -0.033 OA 
HETATM   24  O   UNL     1     -12.039  12.532  66.617  1.00  0.00    -0.562 OA 
HETATM   25  H   UNL     1      -9.693  13.167  64.468  1.00  0.00     0.000 HD 
HETATM   26  C   UNL     1     -10.687  10.219  68.063  1.00  0.00    -0.255 C  
HETATM   27  P   UNL     1     -12.435  13.853  65.758  1.00  0.00    -0.413 P  
HETATM   28  C   UNL     1     -11.498  10.794  69.240  1.00  0.00    -0.298 C  
HETATM   29  O   UNL     1     -12.739  11.204  68.906  1.00  0.00    -0.202 OA 
HETATM   30  O   UNL     1     -11.086  10.867  70.389  1.00  0.00    -0.225 OA 
ENDBRANCH  15  16
ENDBRANCH   5  15
TORSDOF 2
ENDMDL
MODEL      159
REMARK 921   NORMALIZED FREE ENERGY PREDICTED BY IDOCK:   -4.41 KCAL/MOL
REMARK 922        TOTAL FREE ENERGY PREDICTED BY IDOCK:   -5.63 KCAL/MOL
REMARK 923 INTER-LIGAND FREE ENERGY PREDICTED BY IDOCK:   -5.36 KCAL/MOL
REMARK 924 INTRA-LIGAND FREE ENERGY PREDICTED BY IDOCK:   -0.27 KCAL/MOL
REMARK 927      BINDING AFFINITY PREDICTED BY RF-SCORE:    0.00 PKD
ROOT
HETATM    1  O   UNL     1      -6.804   7.170  70.540  1.00  0.00    -0.051 OA 
HETATM    2  C   UNL     1      -8.146   7.172  71.065  1.00  0.00    -0.104 C  
HETATM    3  H   UNL     1      -6.455   6.291  70.630  1.00  0.00     0.000 HD 
HETATM    4  C   UNL     1      -8.710   8.594  70.920  1.00  0.00    -0.181 C  
HETATM    5  C   UNL     1      -9.041   8.910  69.429  1.00  0.00    -0.145 C  
HETATM    6  O   UNL     1      -7.737   9.467  71.522  1.00  0.00    -0.321 OA 
HETATM    7  O   UNL     1      -9.435   4.419  67.823  1.00  0.00    -0.144 OA 
HETATM    8  H   UNL     1      -8.086  10.346  71.432  1.00  0.00     0.000 HD 
HETATM    9  O   UNL     1      -9.871   7.869  68.862  1.00  0.00    -0.166 OA 
HETATM   10  C   UNL     1      -9.162   6.609  68.870  1.00  0.00    -0.130 C  
HETATM   11  O   UNL     1     -10.947   6.042  67.369  1.00  0.00    -0.308 OA 
HETATM   12  P   UNL     1     -10.574   5.743  71.194  1.00  0.00    -0.232 P  
HETATM   13  C   UNL     1      -8.961   6.119  70.308  1.00  0.00    -0.153 C  
HETATM   14  C   UNL     1      -9.838   5.559  67.993  1.00  0.00    -0.139 C  
ENDROOT
BRANCH   5  15
HETATM   15  O   UNL     1      -9.718  10.169  69.238  1.00  0.00    -0.201 OA 
BRANCH  15  16
HETATM   16  C   UNL     1      -9.071  11.132  68.365  1.00  0.00    -0.168 C  
HETATM   17  O   UNL     1      -8.047   9.456  66.850  1.00  0.00    -0.108 OA 
HETATM   18  C   UNL     1      -8.891  10.617  66.927  1.00  0.00    -0.138 C  
HETATM   19  C   UNL     1     -10.274  10.304  66.362  1.00  0.00    -0.225 C  
HETATM   20  O   UNL     1     -10.108   9.576  65.140  1.00  0.00    -0.373 OA 
HETATM   21  H   UNL     1      -7.935   9.138  65.962  1.00  0.00     0.000 HD 
HETATM   22  C   UNL     1     -11.055  11.630  66.250  1.00  0.00    -0.290 C  
HETATM   23  O   UNL     1     -11.141  12.295  67.524  1.00  0.00    -0.247 OA 
HETATM   24  O   UNL     1     -10.477  12.546  65.311  1.00  0.00    -0.275 OA 
HETATM   25  H   UNL     1     -10.969   9.381  64.789  1.00  0.00     0.000 HD 
HETATM   26  C   UNL     1      -9.939  12.412  68.304  1.00  0.00    -0.224 C  
HETATM   27  P   UNL     1     -10.666  12.282  63.719  1.00  0.00    -0.477 P  
HETATM   28  C   UNL     1      -9.043  13.615  67.955  1.00  0.00    -0.192 C  
HETATM   29  O   UNL     1      -9.581  14.459  67.051  1.00  0.00    -0.231 OA 
HETATM   30  O   UNL     1      -7.944  13.823  68.452  1.00  0.00    -0.135 OA 
ENDBRANCH  15  16
ENDBRANCH   5  15
TORSDOF 2
ENDMDL
MODEL      160
REMARK 921   NORMALIZED FREE ENERGY PREDICTED BY IDOCK:   -4.39 KCAL/MOL
REMARK 922        TOTAL FREE ENERGY PREDICTED BY IDOCK:   -5.61 KCAL/MOL
REMARK 923 INTER-LIGAND FREE ENERGY PREDICTED BY IDOCK:   -4.75 KCAL/MOL
REMARK 924 INTRA-LIGAND FREE ENERGY PREDICTED BY IDOCK:   -0.86 KCAL/MOL
REMARK 927      BINDING AFFINITY PREDICTED BY RF-SCORE:    0.00 PKD
ROOT
HETATM    1  O   UNL     1      -7.684   2.532  69.845  1.00  0.00    -0.043 OA 
HETATM    2  C   UNL     1      -8.667   3.142  68.984  1.00  0.00    -0.086 C  
HETATM    3  H   UNL     1      -7.280   1.816  69.369  1.00  0.00     0.000 HD 
HETATM    4  C   UNL     1      -9.320   4.300  69.753  1.00  0.00    -0.161 C  
HETATM    5  C   UNL     1      -8.339   5.506  69.878  1.00  0.00    -0.105 C  
HETATM    6  O   UNL     1      -9.758   3.743  71.006  1.00  0.00    -0.176 OA 
HETATM    7  O   UNL     1      -5.449   4.451  66.212  1.00  0.00    -0.012 OA 
HETATM    8  H   UNL     1     -10.162   4.459  71.481  1.00  0.00     0.000 HD 
HETATM    9  O   UNL     1      -7.808   5.864  68.581  1.00  0.00    -0.099 OA 
HETATM   10  C   UNL     1      -7.045   4.765  68.035  1.00  0.00    -0.062 C  
HETATM   11  O   UNL     1      -6.309   6.515  66.568  1.00  0.00    -0.039 OA 
HETATM   12  P   UNL     1      -9.215   3.992  66.351  1.00  0.00    -0.189 P  
HETATM   13  C   UNL     1      -7.968   3.589  67.696  1.00  0.00    -0.081 C  
HETATM   14  C   UNL     1      -6.190   5.188  66.844  1.00  0.00    -0.032 C  
ENDROOT
BRANCH   5  15
HETATM   15  O   UNL     1      -8.938   6.685  70.452  1.00  0.00    -0.150 OA 
BRANCH  15  16
HETATM   16  C   UNL     1     -10.103   7.223  69.771  1.00  0.00    -0.194 C  
HETATM   17  O   UNL     1     -11.783   6.093  71.204  1.00  0.00    -0.282 OA 
HETATM   18  C   UNL     1     -11.330   7.355  70.688  1.00  0.00    -0.281 C  
HETATM   19  C   UNL     1     -10.963   8.295  71.833  1.00  0.00    -0.287 C  
HETATM   20  O   UNL     1     -11.989   8.215  72.829  1.00  0.00    -0.559 OA 
HETATM   21  H   UNL     1     -12.541   6.174  71.770  1.00  0.00     0.000 HD 
HETATM   22  C   UNL     1     -10.715   9.698  71.240  1.00  0.00    -0.247 C  
HETATM   23  O   UNL     1      -9.687   9.664  70.232  1.00  0.00    -0.240 OA 
HETATM   24  O   UNL     1     -11.888  10.277  70.656  1.00  0.00    -0.294 OA 
HETATM   25  H   UNL     1     -11.760   8.799  73.542  1.00  0.00     0.000 HD 
HETATM   26  C   UNL     1      -9.758   8.632  69.233  1.00  0.00    -0.173 C  
HETATM   27  P   UNL     1     -13.049  10.875  71.623  1.00  0.00    -0.250 P  
HETATM   28  C   UNL     1     -10.661   8.947  68.025  1.00  0.00    -0.168 C  
HETATM   29  O   UNL     1     -11.155  10.203  68.020  1.00  0.00    -0.278 OA 
HETATM   30  O   UNL     1     -10.910   8.156  67.126  1.00  0.00    -0.261 OA 
ENDBRANCH  15  16
ENDBRANCH   5  15
TORSDOF 2
ENDMDL
MODEL      161
REMARK 921   NORMALIZED FREE ENERGY PREDICTED BY IDOCK:   -4.38 KCAL/MOL
REMARK 922        TOTAL FREE ENERGY PREDICTED BY IDOCK:   -5.60 KCAL/MOL
REMARK 923 INTER-LIGAND FREE ENERGY PREDICTED BY IDOCK:   -4.82 KCAL/MOL
REMARK 924 INTRA-LIGAND FREE ENERGY PREDICTED BY IDOCK:   -0.79 KCAL/MOL
REMARK 927      BINDING AFFINITY PREDICTED BY RF-SCORE:    0.00 PKD
ROOT
HETATM    1  O   UNL     1      -6.137   6.179  68.863  1.00  0.00    -0.026 OA 
HETATM    2  C   UNL     1      -7.354   6.558  69.537  1.00  0.00    -0.091 C  
HETATM    3  H   UNL     1      -5.942   5.279  69.094  1.00  0.00     0.000 HD 
HETATM    4  C   UNL     1      -7.670   8.014  69.162  1.00  0.00    -0.099 C  
HETATM    5  C   UNL     1      -8.178   8.111  67.691  1.00  0.00    -0.127 C  
HETATM    6  O   UNL     1      -6.472   8.761  69.440  1.00  0.00    -0.043 OA 
HETATM    7  O   UNL     1      -9.626   3.583  67.142  1.00  0.00    -0.207 OA 
HETATM    8  H   UNL     1      -6.667   9.662  69.208  1.00  0.00     0.000 HD 
HETATM    9  O   UNL     1      -9.262   7.179  67.466  1.00  0.00    -0.125 OA 
HETATM   10  C   UNL     1      -8.799   5.823  67.656  1.00  0.00    -0.105 C  
HETATM   11  O   UNL     1     -10.876   5.373  66.542  1.00  0.00    -0.287 OA 
HETATM   12  P   UNL     1      -9.944   5.715  70.267  1.00  0.00    -0.244 P  
HETATM   13  C   UNL     1      -8.456   5.576  69.129  1.00  0.00    -0.104 C  
HETATM   14  C   UNL     1      -9.785   4.793  67.113  1.00  0.00    -0.184 C  
ENDROOT
BRANCH   5  15
HETATM   15  O   UNL     1      -8.640   9.426  67.321  1.00  0.00    -0.127 OA 
BRANCH  15  16
HETATM   16  C   UNL     1      -9.079  10.291  68.402  1.00  0.00    -0.136 C  
HETATM   17  O   UNL     1      -7.040  11.702  68.444  1.00  0.00    -0.072 OA 
HETATM   18  C   UNL     1      -8.473  11.702  68.329  1.00  0.00    -0.160 C  
HETATM   19  C   UNL     1      -8.897  12.329  67.004  1.00  0.00    -0.205 C  
HETATM   20  O   UNL     1      -8.128  13.520  66.802  1.00  0.00    -0.403 OA 
HETATM   21  H   UNL     1      -6.665  12.573  68.399  1.00  0.00     0.000 HD 
HETATM   22  C   UNL     1     -10.428  12.520  67.035  1.00  0.00    -0.231 C  
HETATM   23  O   UNL     1     -11.105  11.272  67.271  1.00  0.00    -0.274 OA 
HETATM   24  O   UNL     1     -10.859  13.453  68.035  1.00  0.00    -0.236 OA 
HETATM   25  H   UNL     1      -8.392  13.910  65.977  1.00  0.00     0.000 HD 
HETATM   26  C   UNL     1     -10.619  10.433  68.334  1.00  0.00    -0.208 C  
HETATM   27  P   UNL     1     -10.651  15.045  67.783  1.00  0.00    -0.277 P  
HETATM   28  C   UNL     1     -11.159  10.768  69.736  1.00  0.00    -0.281 C  
HETATM   29  O   UNL     1     -12.112  11.723  69.746  1.00  0.00    -0.297 OA 
HETATM   30  O   UNL     1     -10.790  10.221  70.766  1.00  0.00    -0.269 OA 
ENDBRANCH  15  16
ENDBRANCH   5  15
TORSDOF 2
ENDMDL
MODEL      162
REMARK 921   NORMALIZED FREE ENERGY PREDICTED BY IDOCK:   -4.38 KCAL/MOL
REMARK 922        TOTAL FREE ENERGY PREDICTED BY IDOCK:   -5.60 KCAL/MOL
REMARK 923 INTER-LIGAND FREE ENERGY PREDICTED BY IDOCK:   -5.66 KCAL/MOL
REMARK 924 INTRA-LIGAND FREE ENERGY PREDICTED BY IDOCK:    0.06 KCAL/MOL
REMARK 927      BINDING AFFINITY PREDICTED BY RF-SCORE:    0.00 PKD
ROOT
HETATM    1  O   UNL     1     -10.751  15.447  64.868  1.00  0.00    -0.439 OA 
HETATM    2  C   UNL     1     -10.857  15.915  66.227  1.00  0.00    -0.200 C  
HETATM    3  H   UNL     1     -10.732  16.205  64.296  1.00  0.00     0.000 HD 
HETATM    4  C   UNL     1     -10.888  14.688  67.151  1.00  0.00    -0.303 C  
HETATM    5  C   UNL     1      -9.479  14.025  67.241  1.00  0.00    -0.231 C  
HETATM    6  O   UNL     1     -11.927  13.834  66.637  1.00  0.00    -0.388 OA 
HETATM    7  O   UNL     1      -6.840  17.791  65.912  1.00  0.00    -0.279 OA 
HETATM    8  H   UNL     1     -11.946  13.076  67.208  1.00  0.00     0.000 HD 
HETATM    9  O   UNL     1      -8.476  15.012  67.579  1.00  0.00    -0.154 OA 
HETATM   10  C   UNL     1      -8.396  16.015  66.541  1.00  0.00    -0.313 C  
HETATM   11  O   UNL     1      -6.360  16.506  67.713  1.00  0.00    -0.126 OA 
HETATM   12  P   UNL     1      -9.957  17.843  68.078  1.00  0.00    -0.375 P  
HETATM   13  C   UNL     1      -9.679  16.853  66.507  1.00  0.00    -0.281 C  
HETATM   14  C   UNL     1      -7.146  16.881  66.667  1.00  0.00    -0.254 C  
ENDROOT
BRANCH   5  15
HETATM   15  O   UNL     1      -9.398  12.962  68.211  1.00  0.00    -0.209 OA 
BRANCH  15  16
HETATM   16  C   UNL     1      -9.505  11.606  67.703  1.00  0.00    -0.177 C  
HETATM   17  O   UNL     1      -8.864  12.155  65.371  1.00  0.00    -0.314 OA 
HETATM   18  C   UNL     1      -8.571  11.333  66.513  1.00  0.00    -0.170 C  
HETATM   19  C   UNL     1      -7.136  11.564  66.977  1.00  0.00    -0.147 C  
HETATM   20  O   UNL     1      -6.285  11.580  65.825  1.00  0.00    -0.423 OA 
HETATM   21  H   UNL     1      -8.287  11.987  64.635  1.00  0.00     0.000 HD 
HETATM   22  C   UNL     1      -6.800  10.498  68.041  1.00  0.00    -0.073 C  
HETATM   23  O   UNL     1      -7.727  10.548  69.141  1.00  0.00    -0.109 OA 
HETATM   24  O   UNL     1      -6.803   9.163  67.520  1.00  0.00    -0.075 OA 
HETATM   25  H   UNL     1      -5.392  11.725  66.114  1.00  0.00     0.000 HD 
HETATM   26  C   UNL     1      -9.131  10.618  68.835  1.00  0.00    -0.176 C  
HETATM   27  P   UNL     1      -5.559   8.661  66.603  1.00  0.00    -0.040 P  
HETATM   28  C   UNL     1      -9.816   9.264  68.572  1.00  0.00    -0.158 C  
HETATM   29  O   UNL     1      -9.024   8.194  68.793  1.00  0.00    -0.143 OA 
HETATM   30  O   UNL     1     -10.978   9.138  68.213  1.00  0.00    -0.103 OA 
ENDBRANCH  15  16
ENDBRANCH   5  15
TORSDOF 2
ENDMDL
MODEL      163
REMARK 921   NORMALIZED FREE ENERGY PREDICTED BY IDOCK:   -4.34 KCAL/MOL
REMARK 922        TOTAL FREE ENERGY PREDICTED BY IDOCK:   -5.55 KCAL/MOL
REMARK 923 INTER-LIGAND FREE ENERGY PREDICTED BY IDOCK:   -4.63 KCAL/MOL
REMARK 924 INTRA-LIGAND FREE ENERGY PREDICTED BY IDOCK:   -0.92 KCAL/MOL
REMARK 927      BINDING AFFINITY PREDICTED BY RF-SCORE:    0.00 PKD
ROOT
HETATM    1  O   UNL     1     -11.758   9.324  69.798  1.00  0.00    -0.445 OA 
HETATM    2  C   UNL     1     -10.359   9.262  69.456  1.00  0.00    -0.216 C  
HETATM    3  H   UNL     1     -11.936  10.187  70.153  1.00  0.00     0.000 HD 
HETATM    4  C   UNL     1     -10.072   7.866  68.882  1.00  0.00    -0.197 C  
HETATM    5  C   UNL     1     -10.670   7.722  67.448  1.00  0.00    -0.230 C  
HETATM    6  O   UNL     1     -10.583   6.930  69.848  1.00  0.00    -0.211 OA 
HETATM    7  O   UNL     1     -10.968  12.367  66.335  1.00  0.00    -0.257 OA 
HETATM    8  H   UNL     1     -10.406   6.067  69.493  1.00  0.00     0.000 HD 
HETATM    9  O   UNL     1     -10.245   8.821  66.609  1.00  0.00    -0.277 OA 
HETATM   10  C   UNL     1     -10.738  10.071  67.139  1.00  0.00    -0.212 C  
HETATM   11  O   UNL     1     -10.093  10.807  64.948  1.00  0.00    -0.278 OA 
HETATM   12  P   UNL     1      -8.203  10.668  68.304  1.00  0.00    -0.132 P  
HETATM   13  C   UNL     1     -10.053  10.395  68.472  1.00  0.00    -0.171 C  
HETATM   14  C   UNL     1     -10.616  11.215  66.136  1.00  0.00    -0.248 C  
ENDROOT
BRANCH   5  15
HETATM   15  O   UNL     1     -10.306   6.493  66.788  1.00  0.00    -0.212 OA 
BRANCH  15  16
HETATM   16  C   UNL     1      -8.935   6.043  66.957  1.00  0.00    -0.113 C  
HETATM   17  O   UNL     1      -9.409   4.479  68.824  1.00  0.00    -0.125 OA 
HETATM   18  C   UNL     1      -8.835   4.613  67.513  1.00  0.00    -0.105 C  
HETATM   19  C   UNL     1      -9.534   3.676  66.531  1.00  0.00    -0.170 C  
HETATM   20  O   UNL     1      -9.686   2.397  67.158  1.00  0.00    -0.399 OA 
HETATM   21  H   UNL     1      -9.347   3.596  69.167  1.00  0.00     0.000 HD 
HETATM   22  C   UNL     1      -8.733   3.683  65.212  1.00  0.00    -0.117 C  
HETATM   23  O   UNL     1      -8.615   5.015  64.680  1.00  0.00    -0.144 OA 
HETATM   24  O   UNL     1      -7.413   3.143  65.352  1.00  0.00    -0.073 OA 
HETATM   25  H   UNL     1     -10.122   1.815  66.547  1.00  0.00     0.000 HD 
HETATM   26  C   UNL     1      -8.228   6.068  65.581  1.00  0.00    -0.139 C  
HETATM   27  P   UNL     1      -7.217   1.535  65.480  1.00  0.00    -0.053 P  
HETATM   28  C   UNL     1      -6.711   6.227  65.794  1.00  0.00    -0.048 C  
HETATM   29  O   UNL     1      -5.958   5.435  65.003  1.00  0.00    -0.021 OA 
HETATM   30  O   UNL     1      -6.205   7.006  66.589  1.00  0.00    -0.039 OA 
ENDBRANCH  15  16
ENDBRANCH   5  15
TORSDOF 2
ENDMDL
MODEL      164
REMARK 921   NORMALIZED FREE ENERGY PREDICTED BY IDOCK:   -4.32 KCAL/MOL
REMARK 922        TOTAL FREE ENERGY PREDICTED BY IDOCK:   -5.53 KCAL/MOL
REMARK 923 INTER-LIGAND FREE ENERGY PREDICTED BY IDOCK:   -4.88 KCAL/MOL
REMARK 924 INTRA-LIGAND FREE ENERGY PREDICTED BY IDOCK:   -0.65 KCAL/MOL
REMARK 927      BINDING AFFINITY PREDICTED BY RF-SCORE:    0.00 PKD
ROOT
HETATM    1  O   UNL     1      -7.663  13.930  69.340  1.00  0.00    -0.340 OA 
HETATM    2  C   UNL     1      -7.900  14.226  67.949  1.00  0.00    -0.152 C  
HETATM    3  H   UNL     1      -8.032  14.635  69.858  1.00  0.00     0.000 HD 
HETATM    4  C   UNL     1      -7.302  13.085  67.112  1.00  0.00     0.044 C  
HETATM    5  C   UNL     1      -8.172  11.796  67.228  1.00  0.00    -0.163 C  
HETATM    6  O   UNL     1      -5.942  12.939  67.559  1.00  0.00    -0.146 OA 
HETATM    7  O   UNL     1     -12.280  13.837  68.598  1.00  0.00    -0.347 OA 
HETATM    8  H   UNL     1      -5.572  12.234  67.041  1.00  0.00     0.000 HD 
HETATM    9  O   UNL     1      -9.560  12.093  66.944  1.00  0.00    -0.197 OA 
HETATM   10  C   UNL     1     -10.076  13.031  67.914  1.00  0.00    -0.235 C  
HETATM   11  O   UNL     1     -12.146  12.286  66.954  1.00  0.00    -0.583 OA 
HETATM   12  P   UNL     1      -9.780  15.204  66.089  1.00  0.00    -0.345 P  
HETATM   13  C   UNL     1      -9.408  14.400  67.744  1.00  0.00    -0.200 C  
HETATM   14  C   UNL     1     -11.599  13.125  67.875  1.00  0.00    -0.336 C  
ENDROOT
BRANCH   5  15
HETATM   15  O   UNL     1      -7.758  10.733  66.347  1.00  0.00    -0.134 OA 
BRANCH  15  16
HETATM   16  C   UNL     1      -8.728   9.684  66.088  1.00  0.00    -0.136 C  
HETATM   17  O   UNL     1      -9.189  10.336  63.740  1.00  0.00    -0.230 OA 
HETATM   18  C   UNL     1      -8.784   9.266  64.610  1.00  0.00    -0.192 C  
HETATM   19  C   UNL     1      -7.402   8.755  64.212  1.00  0.00    -0.103 C  
HETATM   20  O   UNL     1      -7.363   8.619  62.787  1.00  0.00    -0.094 OA 
HETATM   21  H   UNL     1      -9.223  10.078  62.826  1.00  0.00     0.000 HD 
HETATM   22  C   UNL     1      -7.120   7.466  65.014  1.00  0.00    -0.064 C  
HETATM   23  O   UNL     1      -7.210   7.703  66.431  1.00  0.00    -0.075 OA 
HETATM   24  O   UNL     1      -8.012   6.394  64.687  1.00  0.00    -0.114 OA 
HETATM   25  H   UNL     1      -6.503   8.302  62.540  1.00  0.00     0.000 HD 
HETATM   26  C   UNL     1      -8.348   8.436  66.920  1.00  0.00    -0.106 C  
HETATM   27  P   UNL     1      -7.812   5.586  63.291  1.00  0.00    -0.103 P  
HETATM   28  C   UNL     1      -9.611   7.594  67.177  1.00  0.00    -0.162 C  
HETATM   29  O   UNL     1      -9.428   6.266  67.026  1.00  0.00    -0.123 OA 
HETATM   30  O   UNL     1     -10.693   8.058  67.507  1.00  0.00    -0.244 OA 
ENDBRANCH  15  16
ENDBRANCH   5  15
TORSDOF 2
ENDMDL
MODEL      165
REMARK 921   NORMALIZED FREE ENERGY PREDICTED BY IDOCK:   -4.30 KCAL/MOL
REMARK 922        TOTAL FREE ENERGY PREDICTED BY IDOCK:   -5.51 KCAL/MOL
REMARK 923 INTER-LIGAND FREE ENERGY PREDICTED BY IDOCK:   -4.80 KCAL/MOL
REMARK 924 INTRA-LIGAND FREE ENERGY PREDICTED BY IDOCK:   -0.71 KCAL/MOL
REMARK 927      BINDING AFFINITY PREDICTED BY RF-SCORE:    0.00 PKD
ROOT
HETATM    1  O   UNL     1      -7.321  11.991  67.566  1.00  0.00    -0.116 OA 
HETATM    2  C   UNL     1      -7.878  10.693  67.279  1.00  0.00    -0.112 C  
HETATM    3  H   UNL     1      -7.571  12.580  66.864  1.00  0.00     0.000 HD 
HETATM    4  C   UNL     1      -7.473   9.741  68.414  1.00  0.00    -0.083 C  
HETATM    5  C   UNL     1      -8.272  10.056  69.716  1.00  0.00    -0.178 C  
HETATM    6  O   UNL     1      -6.044   9.861  68.537  1.00  0.00    -0.045 OA 
HETATM    7  O   UNL     1     -11.982  12.339  67.733  1.00  0.00    -0.474 OA 
HETATM    8  H   UNL     1      -5.793   9.271  69.239  1.00  0.00     0.000 HD 
HETATM    9  O   UNL     1      -9.692  10.100  69.441  1.00  0.00    -0.207 OA 
HETATM   10  C   UNL     1      -9.985  11.164  68.507  1.00  0.00    -0.199 C  
HETATM   11  O   UNL     1     -12.208  10.709  69.288  1.00  0.00    -0.280 OA 
HETATM   12  P   UNL     1     -10.153   9.319  66.337  1.00  0.00    -0.171 P  
HETATM   13  C   UNL     1      -9.395  10.844  67.129  1.00  0.00    -0.159 C  
HETATM   14  C   UNL     1     -11.476  11.479  68.436  1.00  0.00    -0.298 C  
ENDROOT
BRANCH   5  15
HETATM   15  O   UNL     1      -8.056   9.103  70.776  1.00  0.00    -0.150 OA 
BRANCH  15  16
HETATM   16  C   UNL     1      -9.164   8.221  71.096  1.00  0.00    -0.162 C  
HETATM   17  O   UNL     1      -9.068   6.914  68.990  1.00  0.00    -0.139 OA 
HETATM   18  C   UNL     1      -9.050   6.842  70.426  1.00  0.00    -0.156 C  
HETATM   19  C   UNL     1      -7.757   6.189  70.907  1.00  0.00    -0.098 C  
HETATM   20  O   UNL     1      -7.503   5.038  70.094  1.00  0.00    -0.057 OA 
HETATM   21  H   UNL     1      -8.997   6.063  68.576  1.00  0.00     0.000 HD 
HETATM   22  C   UNL     1      -7.893   5.922  72.421  1.00  0.00    -0.102 C  
HETATM   23  O   UNL     1      -8.174   7.136  73.142  1.00  0.00    -0.105 OA 
HETATM   24  O   UNL     1      -8.919   4.973  72.735  1.00  0.00    -0.121 OA 
HETATM   25  H   UNL     1      -6.698   4.632  70.393  1.00  0.00     0.000 HD 
HETATM   26  C   UNL     1      -9.201   8.002  72.628  1.00  0.00    -0.239 C  
HETATM   27  P   UNL     1      -8.654   3.392  72.465  1.00  0.00    -0.085 P  
HETATM   28  C   UNL     1     -10.637   7.645  73.054  1.00  0.00    -0.375 C  
HETATM   29  O   UNL     1     -10.711   6.643  73.955  1.00  0.00    -0.288 OA 
HETATM   30  O   UNL     1     -11.639   8.214  72.644  1.00  0.00    -0.397 OA 
ENDBRANCH  15  16
ENDBRANCH   5  15
TORSDOF 2
ENDMDL
MODEL      166
REMARK 921   NORMALIZED FREE ENERGY PREDICTED BY IDOCK:   -4.28 KCAL/MOL
REMARK 922        TOTAL FREE ENERGY PREDICTED BY IDOCK:   -5.49 KCAL/MOL
REMARK 923 INTER-LIGAND FREE ENERGY PREDICTED BY IDOCK:   -4.89 KCAL/MOL
REMARK 924 INTRA-LIGAND FREE ENERGY PREDICTED BY IDOCK:   -0.61 KCAL/MOL
REMARK 927      BINDING AFFINITY PREDICTED BY RF-SCORE:    0.00 PKD
ROOT
HETATM    1  O   UNL     1      -7.463  13.654  69.379  1.00  0.00    -0.318 OA 
HETATM    2  C   UNL     1      -7.869  13.704  67.996  1.00  0.00    -0.150 C  
HETATM    3  H   UNL     1      -7.472  14.540  69.720  1.00  0.00     0.000 HD 
HETATM    4  C   UNL     1      -7.853  12.271  67.444  1.00  0.00    -0.171 C  
HETATM    5  C   UNL     1      -9.050  11.446  68.009  1.00  0.00    -0.171 C  
HETATM    6  O   UNL     1      -6.552  11.742  67.757  1.00  0.00    -0.064 OA 
HETATM    7  O   UNL     1     -11.913  15.086  69.219  1.00  0.00    -0.307 OA 
HETATM    8  H   UNL     1      -6.543  10.856  67.415  1.00  0.00     0.000 HD 
HETATM    9  O   UNL     1     -10.294  12.157  67.812  1.00  0.00    -0.199 OA 
HETATM   10  C   UNL     1     -10.273  13.406  68.539  1.00  0.00    -0.223 C  
HETATM   11  O   UNL     1     -12.621  13.274  68.061  1.00  0.00     0.201 OA 
HETATM   12  P   UNL     1      -9.669  14.867  66.164  1.00  0.00    -0.311 P  
HETATM   13  C   UNL     1      -9.249  14.366  67.924  1.00  0.00    -0.195 C  
HETATM   14  C   UNL     1     -11.659  14.036  68.648  1.00  0.00    -0.325 C  
ENDROOT
BRANCH   5  15
HETATM   15  O   UNL     1      -9.187  10.140  67.414  1.00  0.00    -0.140 OA 
BRANCH  15  16
HETATM   16  C   UNL     1      -8.819   9.004  68.241  1.00  0.00    -0.134 C  
HETATM   17  O   UNL     1     -11.126   8.465  68.978  1.00  0.00    -0.430 OA 
HETATM   18  C   UNL     1      -9.936   7.954  68.354  1.00  0.00    -0.180 C  
HETATM   19  C   UNL     1     -10.251   7.447  66.949  1.00  0.00    -0.276 C  
HETATM   20  O   UNL     1     -11.459   6.680  67.006  1.00  0.00    -0.763 OA 
HETATM   21  H   UNL     1     -11.816   7.817  69.048  1.00  0.00     0.000 HD 
HETATM   22  C   UNL     1      -9.009   6.699  66.422  1.00  0.00    -0.148 C  
HETATM   23  O   UNL     1      -7.846   7.548  66.431  1.00  0.00    -0.094 OA 
HETATM   24  O   UNL     1      -8.701   5.519  67.173  1.00  0.00    -0.110 OA 
HETATM   25  H   UNL     1     -11.656   6.366  66.132  1.00  0.00     0.000 HD 
HETATM   26  C   UNL     1      -7.581   8.314  67.619  1.00  0.00    -0.098 C  
HETATM   27  P   UNL     1      -9.607   4.185  66.972  1.00  0.00    -0.143 P  
HETATM   28  C   UNL     1      -6.808   7.570  68.723  1.00  0.00    -0.065 C  
HETATM   29  O   UNL     1      -6.378   6.343  68.363  1.00  0.00    -0.037 OA 
HETATM   30  O   UNL     1      -6.573   8.032  69.831  1.00  0.00    -0.036 OA 
ENDBRANCH  15  16
ENDBRANCH   5  15
TORSDOF 2
ENDMDL
MODEL      167
REMARK 921   NORMALIZED FREE ENERGY PREDICTED BY IDOCK:   -4.28 KCAL/MOL
REMARK 922        TOTAL FREE ENERGY PREDICTED BY IDOCK:   -5.49 KCAL/MOL
REMARK 923 INTER-LIGAND FREE ENERGY PREDICTED BY IDOCK:   -4.61 KCAL/MOL
REMARK 924 INTRA-LIGAND FREE ENERGY PREDICTED BY IDOCK:   -0.87 KCAL/MOL
REMARK 927      BINDING AFFINITY PREDICTED BY RF-SCORE:    0.00 PKD
ROOT
HETATM    1  O   UNL     1     -11.180   8.562  69.770  1.00  0.00    -0.434 OA 
HETATM    2  C   UNL     1     -11.277   7.380  70.590  1.00  0.00    -0.270 C  
HETATM    3  H   UNL     1     -11.437   9.308  70.298  1.00  0.00     0.000 HD 
HETATM    4  C   UNL     1     -10.860   6.173  69.736  1.00  0.00    -0.353 C  
HETATM    5  C   UNL     1      -9.319   6.167  69.498  1.00  0.00    -0.137 C  
HETATM    6  O   UNL     1     -11.657   6.244  68.539  1.00  0.00    -0.414 OA 
HETATM    7  O   UNL     1      -8.020   8.907  73.201  1.00  0.00    -0.378 OA 
HETATM    8  H   UNL     1     -11.400   5.498  68.011  1.00  0.00     0.000 HD 
HETATM    9  O   UNL     1      -8.612   6.292  70.754  1.00  0.00    -0.133 OA 
HETATM   10  C   UNL     1      -8.929   7.556  71.379  1.00  0.00    -0.133 C  
HETATM   11  O   UNL     1      -7.011   6.947  72.686  1.00  0.00    -0.069 OA 
HETATM   12  P   UNL     1     -10.783   6.304  73.150  1.00  0.00    -0.240 P  
HETATM   13  C   UNL     1     -10.395   7.578  71.827  1.00  0.00    -0.192 C  
HETATM   14  C   UNL     1      -7.974   7.894  72.520  1.00  0.00    -0.120 C  
ENDROOT
BRANCH   5  15
HETATM   15  O   UNL     1      -8.838   4.980  68.835  1.00  0.00    -0.092 OA 
BRANCH  15  16
HETATM   16  C   UNL     1      -8.077   5.178  67.614  1.00  0.00    -0.099 C  
HETATM   17  O   UNL     1      -7.207   2.859  67.477  1.00  0.00    -0.052 OA 
HETATM   18  C   UNL     1      -7.926   3.893  66.784  1.00  0.00    -0.096 C  
HETATM   19  C   UNL     1      -9.323   3.406  66.409  1.00  0.00    -0.149 C  
HETATM   20  O   UNL     1      -9.213   2.082  65.876  1.00  0.00    -0.267 OA 
HETATM   21  H   UNL     1      -7.114   2.065  66.964  1.00  0.00     0.000 HD 
HETATM   22  C   UNL     1      -9.958   4.454  65.470  1.00  0.00    -0.230 C  
HETATM   23  O   UNL     1      -9.998   5.753  66.088  1.00  0.00    -0.119 OA 
HETATM   24  O   UNL     1      -9.270   4.579  64.220  1.00  0.00    -0.154 OA 
HETATM   25  H   UNL     1     -10.082   1.779  65.644  1.00  0.00     0.000 HD 
HETATM   26  C   UNL     1      -8.804   6.226  66.737  1.00  0.00    -0.126 C  
HETATM   27  P   UNL     1      -9.456   3.429  63.087  1.00  0.00    -0.110 P  
HETATM   28  C   UNL     1      -7.780   6.911  65.813  1.00  0.00    -0.100 C  
HETATM   29  O   UNL     1      -8.210   7.081  64.546  1.00  0.00    -0.097 OA 
HETATM   30  O   UNL     1      -6.675   7.293  66.173  1.00  0.00    -0.051 OA 
ENDBRANCH  15  16
ENDBRANCH   5  15
TORSDOF 2
ENDMDL
MODEL      168
REMARK 921   NORMALIZED FREE ENERGY PREDICTED BY IDOCK:   -4.28 KCAL/MOL
REMARK 922        TOTAL FREE ENERGY PREDICTED BY IDOCK:   -5.49 KCAL/MOL
REMARK 923 INTER-LIGAND FREE ENERGY PREDICTED BY IDOCK:   -4.80 KCAL/MOL
REMARK 924 INTRA-LIGAND FREE ENERGY PREDICTED BY IDOCK:   -0.68 KCAL/MOL
REMARK 927      BINDING AFFINITY PREDICTED BY RF-SCORE:    0.00 PKD
ROOT
HETATM    1  O   UNL     1     -10.165   2.911  74.447  1.00  0.00    -0.131 OA 
HETATM    2  C   UNL     1     -10.342   3.008  73.020  1.00  0.00    -0.159 C  
HETATM    3  H   UNL     1      -9.836   2.043  74.645  1.00  0.00     0.000 HD 
HETATM    4  C   UNL     1     -10.874   4.413  72.701  1.00  0.00    -0.086 C  
HETATM    5  C   UNL     1      -9.753   5.483  72.870  1.00  0.00    -0.154 C  
HETATM    6  O   UNL     1     -12.023   4.600  73.547  1.00  0.00    -0.315 OA 
HETATM    7  O   UNL     1      -5.954   2.604  72.435  1.00  0.00    -0.008 OA 
HETATM    8  H   UNL     1     -12.352   5.469  73.350  1.00  0.00     0.000 HD 
HETATM    9  O   UNL     1      -8.571   5.101  72.128  1.00  0.00    -0.123 OA 
HETATM   10  C   UNL     1      -8.040   3.860  72.645  1.00  0.00    -0.089 C  
HETATM   11  O   UNL     1      -6.160   4.572  71.335  1.00  0.00    -0.016 OA 
HETATM   12  P   UNL     1      -9.219   2.377  70.511  1.00  0.00    -0.117 P  
HETATM   13  C   UNL     1      -9.000   2.702  72.347  1.00  0.00    -0.081 C  
HETATM   14  C   UNL     1      -6.627   3.580  72.141  1.00  0.00    -0.015 C  
ENDROOT
BRANCH   5  15
HETATM   15  O   UNL     1     -10.139   6.803  72.438  1.00  0.00    -0.170 OA 
BRANCH  15  16
HETATM   16  C   UNL     1     -10.072   7.068  71.011  1.00  0.00    -0.195 C  
HETATM   17  O   UNL     1     -12.495   6.762  70.579  1.00  0.00    -0.553 OA 
HETATM   18  C   UNL     1     -11.375   7.653  70.445  1.00  0.00    -0.219 C  
HETATM   19  C   UNL     1     -11.656   8.968  71.168  1.00  0.00    -0.306 C  
HETATM   20  O   UNL     1     -12.989   9.383  70.850  1.00  0.00    -0.518 OA 
HETATM   21  H   UNL     1     -13.300   7.123  70.229  1.00  0.00     0.000 HD 
HETATM   22  C   UNL     1     -10.538   9.965  70.796  1.00  0.00    -0.239 C  
HETATM   23  O   UNL     1      -9.239   9.443  71.131  1.00  0.00    -0.230 OA 
HETATM   24  O   UNL     1     -10.532  10.310  69.405  1.00  0.00    -0.206 OA 
HETATM   25  H   UNL     1     -13.163  10.200  71.300  1.00  0.00     0.000 HD 
HETATM   26  C   UNL     1      -8.939   8.089  70.747  1.00  0.00    -0.144 C  
HETATM   27  P   UNL     1     -11.656  11.333  68.831  1.00  0.00    -0.357 P  
HETATM   28  C   UNL     1      -8.424   7.913  69.307  1.00  0.00    -0.137 C  
HETATM   29  O   UNL     1      -8.209   9.073  68.653  1.00  0.00    -0.115 OA 
HETATM   30  O   UNL     1      -8.204   6.831  68.781  1.00  0.00    -0.118 OA 
ENDBRANCH  15  16
ENDBRANCH   5  15
TORSDOF 2
ENDMDL
MODEL      169
REMARK 921   NORMALIZED FREE ENERGY PREDICTED BY IDOCK:   -4.27 KCAL/MOL
REMARK 922        TOTAL FREE ENERGY PREDICTED BY IDOCK:   -5.48 KCAL/MOL
REMARK 923 INTER-LIGAND FREE ENERGY PREDICTED BY IDOCK:   -4.65 KCAL/MOL
REMARK 924 INTRA-LIGAND FREE ENERGY PREDICTED BY IDOCK:   -0.83 KCAL/MOL
REMARK 927      BINDING AFFINITY PREDICTED BY RF-SCORE:    0.00 PKD
ROOT
HETATM    1  O   UNL     1      -5.840   9.516  67.992  1.00  0.00    -0.041 OA 
HETATM    2  C   UNL     1      -7.216   9.797  68.319  1.00  0.00    -0.078 C  
HETATM    3  H   UNL     1      -5.751   8.577  67.879  1.00  0.00     0.000 HD 
HETATM    4  C   UNL     1      -7.360  11.315  68.502  1.00  0.00    -0.106 C  
HETATM    5  C   UNL     1      -7.291  12.050  67.128  1.00  0.00    -0.134 C  
HETATM    6  O   UNL     1      -6.341  11.697  69.444  1.00  0.00    -0.083 OA 
HETATM    7  O   UNL     1      -8.475   8.373  64.301  1.00  0.00    -0.129 OA 
HETATM    8  H   UNL     1      -6.430  12.635  69.558  1.00  0.00     0.000 HD 
HETATM    9  O   UNL     1      -8.224  11.462  66.192  1.00  0.00    -0.140 OA 
HETATM   10  C   UNL     1      -7.875  10.081  65.942  1.00  0.00    -0.122 C  
HETATM   11  O   UNL     1      -9.402  10.431  64.124  1.00  0.00    -0.228 OA 
HETATM   12  P   UNL     1      -9.900   9.164  67.730  1.00  0.00    -0.197 P  
HETATM   13  C   UNL     1      -8.100   9.236  67.200  1.00  0.00    -0.109 C  
HETATM   14  C   UNL     1      -8.602   9.511  64.728  1.00  0.00    -0.176 C  
ENDROOT
BRANCH   5  15
HETATM   15  O   UNL     1      -7.574  13.461  67.208  1.00  0.00    -0.147 OA 
BRANCH  15  16
HETATM   16  C   UNL     1      -8.720  13.852  68.010  1.00  0.00    -0.183 C  
HETATM   17  O   UNL     1      -7.408  14.726  69.924  1.00  0.00    -0.346 OA 
HETATM   18  C   UNL     1      -8.423  15.029  68.953  1.00  0.00    -0.192 C  
HETATM   19  C   UNL     1      -8.000  16.221  68.100  1.00  0.00    -0.157 C  
HETATM   20  O   UNL     1      -7.465  17.229  68.965  1.00  0.00    -0.248 OA 
HETATM   21  H   UNL     1      -7.224  15.453  70.507  1.00  0.00     0.000 HD 
HETATM   22  C   UNL     1      -9.212  16.650  67.244  1.00  0.00    -0.221 C  
HETATM   23  O   UNL     1      -9.689  15.561  66.433  1.00  0.00    -0.247 OA 
HETATM   24  O   UNL     1     -10.310  17.134  68.027  1.00  0.00    -0.318 OA 
HETATM   25  H   UNL     1      -7.201  17.971  68.434  1.00  0.00     0.000 HD 
HETATM   26  C   UNL     1      -9.868  14.280  67.063  1.00  0.00    -0.254 C  
HETATM   27  P   UNL     1     -10.230  18.618  68.683  1.00  0.00    -0.102 P  
HETATM   28  C   UNL     1     -11.216  14.082  67.780  1.00  0.00    -0.281 C  
HETATM   29  O   UNL     1     -12.088  15.096  67.604  1.00  0.00    -0.137 OA 
HETATM   30  O   UNL     1     -11.506  13.095  68.442  1.00  0.00    -0.271 OA 
ENDBRANCH  15  16
ENDBRANCH   5  15
TORSDOF 2
ENDMDL
MODEL      170
REMARK 921   NORMALIZED FREE ENERGY PREDICTED BY IDOCK:   -4.25 KCAL/MOL
REMARK 922        TOTAL FREE ENERGY PREDICTED BY IDOCK:   -5.45 KCAL/MOL
REMARK 923 INTER-LIGAND FREE ENERGY PREDICTED BY IDOCK:   -4.65 KCAL/MOL
REMARK 924 INTRA-LIGAND FREE ENERGY PREDICTED BY IDOCK:   -0.80 KCAL/MOL
REMARK 927      BINDING AFFINITY PREDICTED BY RF-SCORE:    0.00 PKD
ROOT
HETATM    1  O   UNL     1     -12.256  10.505  68.087  1.00  0.00    -0.644 OA 
HETATM    2  C   UNL     1     -11.840  11.494  69.050  1.00  0.00    -0.343 C  
HETATM    3  H   UNL     1     -12.961  10.876  67.570  1.00  0.00     0.000 HD 
HETATM    4  C   UNL     1     -10.699  10.893  69.885  1.00  0.00    -0.075 C  
HETATM    5  C   UNL     1      -9.384  10.811  69.051  1.00  0.00    -0.156 C  
HETATM    6  O   UNL     1     -11.189   9.630  70.370  1.00  0.00    -0.248 OA 
HETATM    7  O   UNL     1     -10.426  14.124  65.758  1.00  0.00    -0.289 OA 
HETATM    8  H   UNL     1     -10.483   9.259  70.887  1.00  0.00     0.000 HD 
HETATM    9  O   UNL     1      -9.084  12.093  68.450  1.00  0.00    -0.191 OA 
HETATM   10  C   UNL     1     -10.134  12.468  67.531  1.00  0.00    -0.207 C  
HETATM   11  O   UNL     1      -8.449  14.038  66.857  1.00  0.00    -0.179 OA 
HETATM   12  P   UNL     1     -11.293  14.231  69.452  1.00  0.00    -0.274 P  
HETATM   13  C   UNL     1     -11.432  12.761  68.292  1.00  0.00    -0.314 C  
HETATM   14  C   UNL     1      -9.725  13.626  66.625  1.00  0.00    -0.284 C  
ENDROOT
BRANCH   5  15
HETATM   15  O   UNL     1      -8.234  10.403  69.819  1.00  0.00    -0.138 OA 
BRANCH  15  16
HETATM   16  C   UNL     1      -7.532   9.216  69.361  1.00  0.00    -0.077 C  
HETATM   17  O   UNL     1      -6.126   8.952  71.387  1.00  0.00    -0.049 OA 
HETATM   18  C   UNL     1      -7.067   8.309  70.512  1.00  0.00    -0.037 C  
HETATM   19  C   UNL     1      -8.302   7.869  71.293  1.00  0.00    -0.113 C  
HETATM   20  O   UNL     1      -7.870   7.255  72.512  1.00  0.00    -0.093 OA 
HETATM   21  H   UNL     1      -5.839   8.392  72.098  1.00  0.00     0.000 HD 
HETATM   22  C   UNL     1      -9.163   6.983  70.367  1.00  0.00    -0.156 C  
HETATM   23  O   UNL     1      -9.520   7.683  69.161  1.00  0.00    -0.154 OA 
HETATM   24  O   UNL     1      -8.513   5.762  69.995  1.00  0.00    -0.120 OA 
HETATM   25  H   UNL     1      -8.638   6.982  72.999  1.00  0.00     0.000 HD 
HETATM   26  C   UNL     1      -8.482   8.391  68.461  1.00  0.00    -0.132 C  
HETATM   27  P   UNL     1      -8.406   4.553  71.075  1.00  0.00    -0.096 P  
HETATM   28  C   UNL     1      -7.646   7.539  67.488  1.00  0.00    -0.113 C  
HETATM   29  O   UNL     1      -8.092   6.274  67.340  1.00  0.00    -0.108 OA 
HETATM   30  O   UNL     1      -6.670   7.950  66.877  1.00  0.00    -0.064 OA 
ENDBRANCH  15  16
ENDBRANCH   5  15
TORSDOF 2
ENDMDL
MODEL      171
REMARK 921   NORMALIZED FREE ENERGY PREDICTED BY IDOCK:   -4.24 KCAL/MOL
REMARK 922        TOTAL FREE ENERGY PREDICTED BY IDOCK:   -5.45 KCAL/MOL
REMARK 923 INTER-LIGAND FREE ENERGY PREDICTED BY IDOCK:   -4.74 KCAL/MOL
REMARK 924 INTRA-LIGAND FREE ENERGY PREDICTED BY IDOCK:   -0.70 KCAL/MOL
REMARK 927      BINDING AFFINITY PREDICTED BY RF-SCORE:    0.00 PKD
ROOT
HETATM    1  O   UNL     1      -7.233  12.448  69.343  1.00  0.00    -0.322 OA 
HETATM    2  C   UNL     1      -6.889  11.123  68.890  1.00  0.00    -0.086 C  
HETATM    3  H   UNL     1      -7.197  13.033  68.595  1.00  0.00     0.000 HD 
HETATM    4  C   UNL     1      -6.947  10.178  70.100  1.00  0.00    -0.155 C  
HETATM    5  C   UNL     1      -8.424   9.906  70.521  1.00  0.00     0.220 C  
HETATM    6  O   UNL     1      -6.131  10.788  71.116  1.00  0.00    -0.351 OA 
HETATM    7  O   UNL     1     -10.556  11.012  66.381  1.00  0.00    -0.257 OA 
HETATM    8  H   UNL     1      -6.166  10.204  71.864  1.00  0.00     0.000 HD 
HETATM    9  O   UNL     1      -9.205   9.478  69.381  1.00  0.00    -0.156 OA 
HETATM   10  C   UNL     1      -9.245  10.525  68.385  1.00  0.00    -0.154 C  
HETATM   11  O   UNL     1     -11.018   9.135  67.559  1.00  0.00    -0.176 OA 
HETATM   12  P   UNL     1      -7.234   9.229  66.830  1.00  0.00    -0.082 P  
HETATM   13  C   UNL     1      -7.857  10.731  67.770  1.00  0.00    -0.109 C  
HETATM   14  C   UNL     1     -10.314  10.275  67.325  1.00  0.00    -0.232 C  
ENDROOT
BRANCH   5  15
HETATM   15  O   UNL     1      -8.559   8.906  71.551  1.00  0.00    -0.234 OA 
BRANCH  15  16
HETATM   16  C   UNL     1      -9.356   7.736  71.224  1.00  0.00    -0.152 C  
HETATM   17  O   UNL     1      -7.438   6.187  70.951  1.00  0.00    -0.089 OA 
HETATM   18  C   UNL     1      -8.684   6.415  71.631  1.00  0.00    -0.133 C  
HETATM   19  C   UNL     1      -8.464   6.444  73.141  1.00  0.00    -0.119 C  
HETATM   20  O   UNL     1      -7.605   5.354  73.493  1.00  0.00    -0.094 OA 
HETATM   21  H   UNL     1      -7.023   5.371  71.202  1.00  0.00     0.000 HD 
HETATM   22  C   UNL     1      -9.848   6.451  73.825  1.00  0.00    -0.212 C  
HETATM   23  O   UNL     1     -10.642   7.568  73.383  1.00  0.00    -0.375 OA 
HETATM   24  O   UNL     1     -10.598   5.254  73.589  1.00  0.00    -0.233 OA 
HETATM   25  H   UNL     1      -7.467   5.373  74.433  1.00  0.00     0.000 HD 
HETATM   26  C   UNL     1     -10.709   7.830  71.970  1.00  0.00    -0.231 C  
HETATM   27  P   UNL     1     -10.199   3.892  74.380  1.00  0.00    -0.220 P  
HETATM   28  C   UNL     1     -11.769   7.021  71.201  1.00  0.00    -0.325 C  
HETATM   29  O   UNL     1     -12.570   6.274  71.988  1.00  0.00    -0.269 OA 
HETATM   30  O   UNL     1     -11.908   7.047  69.986  1.00  0.00    -0.194 OA 
ENDBRANCH  15  16
ENDBRANCH   5  15
TORSDOF 2
ENDMDL
MODEL      172
REMARK 921   NORMALIZED FREE ENERGY PREDICTED BY IDOCK:   -4.23 KCAL/MOL
REMARK 922        TOTAL FREE ENERGY PREDICTED BY IDOCK:   -5.43 KCAL/MOL
REMARK 923 INTER-LIGAND FREE ENERGY PREDICTED BY IDOCK:   -4.49 KCAL/MOL
REMARK 924 INTRA-LIGAND FREE ENERGY PREDICTED BY IDOCK:   -0.93 KCAL/MOL
REMARK 927      BINDING AFFINITY PREDICTED BY RF-SCORE:    0.00 PKD
ROOT
HETATM    1  O   UNL     1      -7.552   9.566  70.803  1.00  0.00    -0.217 OA 
HETATM    2  C   UNL     1      -8.616   9.921  69.896  1.00  0.00    -0.194 C  
HETATM    3  H   UNL     1      -7.718   9.998  71.633  1.00  0.00     0.000 HD 
HETATM    4  C   UNL     1      -8.348   9.223  68.554  1.00  0.00    -0.119 C  
HETATM    5  C   UNL     1      -8.630   7.693  68.658  1.00  0.00    -0.129 C  
HETATM    6  O   UNL     1      -6.998   9.567  68.194  1.00  0.00    -0.076 OA 
HETATM    7  O   UNL     1     -11.539   7.766  72.458  1.00  0.00    -0.343 OA 
HETATM    8  H   UNL     1      -6.832   9.136  67.364  1.00  0.00     0.000 HD 
HETATM    9  O   UNL     1      -9.946   7.456  69.212  1.00  0.00    -0.166 OA 
HETATM   10  C   UNL     1     -10.022   7.984  70.555  1.00  0.00    -0.190 C  
HETATM   11  O   UNL     1     -11.994   6.616  70.562  1.00  0.00    -0.400 OA 
HETATM   12  P   UNL     1     -11.397  10.313  69.647  1.00  0.00    -0.221 P  
HETATM   13  C   UNL     1      -9.948   9.514  70.534  1.00  0.00    -0.273 C  
HETATM   14  C   UNL     1     -11.249   7.477  71.307  1.00  0.00    -0.251 C  
ENDROOT
BRANCH   5  15
HETATM   15  O   UNL     1      -8.549   7.000  67.396  1.00  0.00    -0.121 OA 
BRANCH  15  16
HETATM   16  C   UNL     1      -8.406   5.556  67.453  1.00  0.00    -0.103 C  
HETATM   17  O   UNL     1     -10.777   5.086  68.012  1.00  0.00     0.040 OA 
HETATM   18  C   UNL     1      -9.702   4.807  67.099  1.00  0.00    -0.184 C  
HETATM   19  C   UNL     1     -10.099   5.199  65.679  1.00  0.00     0.012 C  
HETATM   20  O   UNL     1     -11.430   4.730  65.436  1.00  0.00    -0.990 OA 
HETATM   21  H   UNL     1     -11.577   4.624  67.794  1.00  0.00     0.000 HD 
HETATM   22  C   UNL     1      -9.017   4.665  64.716  1.00  0.00    -0.153 C  
HETATM   23  O   UNL     1      -7.715   5.173  65.061  1.00  0.00    -0.080 OA 
HETATM   24  O   UNL     1      -8.942   3.235  64.692  1.00  0.00    -0.119 OA 
HETATM   25  H   UNL     1     -11.678   4.974  64.553  1.00  0.00     0.000 HD 
HETATM   26  C   UNL     1      -7.317   5.122  66.443  1.00  0.00    -0.086 C  
HETATM   27  P   UNL     1     -10.082   2.388  63.902  1.00  0.00    -0.021 P  
HETATM   28  C   UNL     1      -6.704   3.786  66.901  1.00  0.00    -0.046 C  
HETATM   29  O   UNL     1      -6.511   2.898  65.904  1.00  0.00    -0.027 OA 
HETATM   30  O   UNL     1      -6.391   3.532  68.056  1.00  0.00    -0.035 OA 
ENDBRANCH  15  16
ENDBRANCH   5  15
TORSDOF 2
ENDMDL
MODEL      173
REMARK 921   NORMALIZED FREE ENERGY PREDICTED BY IDOCK:   -4.20 KCAL/MOL
REMARK 922        TOTAL FREE ENERGY PREDICTED BY IDOCK:   -5.40 KCAL/MOL
REMARK 923 INTER-LIGAND FREE ENERGY PREDICTED BY IDOCK:   -4.64 KCAL/MOL
REMARK 924 INTRA-LIGAND FREE ENERGY PREDICTED BY IDOCK:   -0.76 KCAL/MOL
REMARK 927      BINDING AFFINITY PREDICTED BY RF-SCORE:    0.00 PKD
ROOT
HETATM    1  O   UNL     1      -7.737   6.620  73.367  1.00  0.00    -0.091 OA 
HETATM    2  C   UNL     1      -8.830   6.337  72.470  1.00  0.00    -0.123 C  
HETATM    3  H   UNL     1      -7.424   5.796  73.718  1.00  0.00     0.000 HD 
HETATM    4  C   UNL     1      -9.337   7.672  71.903  1.00  0.00    -0.145 C  
HETATM    5  C   UNL     1      -8.328   8.252  70.865  1.00  0.00    -0.130 C  
HETATM    6  O   UNL     1      -9.586   8.515  73.041  1.00  0.00    -0.198 OA 
HETATM    7  O   UNL     1      -6.055   4.192  69.741  1.00  0.00    -0.021 OA 
HETATM    8  H   UNL     1      -9.900   9.340  72.690  1.00  0.00     0.000 HD 
HETATM    9  O   UNL     1      -7.997   7.256  69.868  1.00  0.00    -0.116 OA 
HETATM   10  C   UNL     1      -7.346   6.126  70.491  1.00  0.00    -0.085 C  
HETATM   11  O   UNL     1      -6.814   5.664  68.197  1.00  0.00    -0.056 OA 
HETATM   12  P   UNL     1      -9.762   4.610  70.446  1.00  0.00    -0.239 P  
HETATM   13  C   UNL     1      -8.330   5.372  71.392  1.00  0.00    -0.122 C  
HETATM   14  C   UNL     1      -6.677   5.208  69.472  1.00  0.00    -0.051 C  
ENDROOT
BRANCH   5  15
HETATM   15  O   UNL     1      -8.810   9.423  70.177  1.00  0.00    -0.184 OA 
BRANCH  15  16
HETATM   16  C   UNL     1      -8.944   9.324  68.734  1.00  0.00    -0.132 C  
HETATM   17  O   UNL     1     -11.261   8.436  68.753  1.00  0.00    -0.357 OA 
HETATM   18  C   UNL     1     -10.397   9.470  68.252  1.00  0.00    -0.207 C  
HETATM   19  C   UNL     1     -10.903  10.841  68.692  1.00  0.00    -0.220 C  
HETATM   20  O   UNL     1     -12.321  10.885  68.492  1.00  0.00    -0.807 OA 
HETATM   21  H   UNL     1     -12.158   8.526  68.455  1.00  0.00     0.000 HD 
HETATM   22  C   UNL     1     -10.089  11.915  67.938  1.00  0.00    -0.192 C  
HETATM   23  O   UNL     1      -8.678  11.767  68.183  1.00  0.00    -0.155 OA 
HETATM   24  O   UNL     1     -10.298  11.887  66.521  1.00  0.00    -0.210 OA 
HETATM   25  H   UNL     1     -12.636  11.737  68.766  1.00  0.00     0.000 HD 
HETATM   26  C   UNL     1      -8.111  10.450  68.077  1.00  0.00    -0.110 C  
HETATM   27  P   UNL     1     -11.679  12.482  65.905  1.00  0.00    -0.392 P  
HETATM   28  C   UNL     1      -7.711  10.019  66.653  1.00  0.00    -0.104 C  
HETATM   29  O   UNL     1      -7.835  10.993  65.728  1.00  0.00    -0.106 OA 
HETATM   30  O   UNL     1      -7.298   8.906  66.361  1.00  0.00    -0.086 OA 
ENDBRANCH  15  16
ENDBRANCH   5  15
TORSDOF 2
ENDMDL
MODEL      174
REMARK 921   NORMALIZED FREE ENERGY PREDICTED BY IDOCK:   -4.20 KCAL/MOL
REMARK 922        TOTAL FREE ENERGY PREDICTED BY IDOCK:   -5.40 KCAL/MOL
REMARK 923 INTER-LIGAND FREE ENERGY PREDICTED BY IDOCK:   -5.55 KCAL/MOL
REMARK 924 INTRA-LIGAND FREE ENERGY PREDICTED BY IDOCK:    0.15 KCAL/MOL
REMARK 927      BINDING AFFINITY PREDICTED BY RF-SCORE:    0.00 PKD
ROOT
HETATM    1  O   UNL     1      -8.154  11.386  65.532  1.00  0.00    -0.361 OA 
HETATM    2  C   UNL     1      -9.507  11.334  65.038  1.00  0.00    -0.209 C  
HETATM    3  H   UNL     1      -7.859  12.288  65.490  1.00  0.00     0.000 HD 
HETATM    4  C   UNL     1      -9.982   9.875  65.105  1.00  0.00    -0.208 C  
HETATM    5  C   UNL     1     -10.255   9.448  66.580  1.00  0.00    -0.249 C  
HETATM    6  O   UNL     1      -8.976   9.101  64.427  1.00  0.00    -0.371 OA 
HETATM    7  O   UNL     1     -10.870  13.800  68.475  1.00  0.00    -0.248 OA 
HETATM    8  H   UNL     1      -9.271   8.199  64.469  1.00  0.00     0.000 HD 
HETATM    9  O   UNL     1     -11.130  10.400  67.230  1.00  0.00    -0.278 OA 
HETATM   10  C   UNL     1     -10.497  11.699  67.285  1.00  0.00    -0.216 C  
HETATM   11  O   UNL     1     -12.272  12.064  68.859  1.00  0.00    -0.214 OA 
HETATM   12  P   UNL     1     -12.016  12.621  65.054  1.00  0.00    -0.441 P  
HETATM   13  C   UNL     1     -10.362  12.288  65.877  1.00  0.00    -0.252 C  
HETATM   14  C   UNL     1     -11.209  12.650  68.242  1.00  0.00    -0.272 C  
ENDROOT
BRANCH   5  15
HETATM   15  O   UNL     1     -10.852   8.142  66.706  1.00  0.00    -0.197 OA 
BRANCH  15  16
HETATM   16  C   UNL     1      -9.949   7.034  66.964  1.00  0.00    -0.210 C  
HETATM   17  O   UNL     1      -8.027   8.431  67.674  1.00  0.00    -0.108 OA 
HETATM   18  C   UNL     1      -8.900   7.351  68.042  1.00  0.00    -0.126 C  
HETATM   19  C   UNL     1      -9.638   7.685  69.336  1.00  0.00    -0.159 C  
HETATM   20  O   UNL     1      -8.698   8.240  70.262  1.00  0.00    -0.134 OA 
HETATM   21  H   UNL     1      -7.378   8.627  68.340  1.00  0.00     0.000 HD 
HETATM   22  C   UNL     1     -10.372   6.412  69.809  1.00  0.00    -0.200 C  
HETATM   23  O   UNL     1     -11.270   5.920  68.798  1.00  0.00    -0.258 OA 
HETATM   24  O   UNL     1      -9.480   5.348  70.164  1.00  0.00    -0.149 OA 
HETATM   25  H   UNL     1      -9.158   8.448  71.067  1.00  0.00     0.000 HD 
HETATM   26  C   UNL     1     -10.776   5.819  67.450  1.00  0.00    -0.248 C  
HETATM   27  P   UNL     1      -8.669   5.421  71.570  1.00  0.00    -0.136 P  
HETATM   28  C   UNL     1     -10.011   4.523  67.125  1.00  0.00    -0.159 C  
HETATM   29  O   UNL     1     -10.025   3.611  68.120  1.00  0.00     0.007 OA 
HETATM   30  O   UNL     1      -9.447   4.304  66.063  1.00  0.00    -0.150 OA 
ENDBRANCH  15  16
ENDBRANCH   5  15
TORSDOF 2
ENDMDL
MODEL      175
REMARK 921   NORMALIZED FREE ENERGY PREDICTED BY IDOCK:   -4.20 KCAL/MOL
REMARK 922        TOTAL FREE ENERGY PREDICTED BY IDOCK:   -5.39 KCAL/MOL
REMARK 923 INTER-LIGAND FREE ENERGY PREDICTED BY IDOCK:   -6.02 KCAL/MOL
REMARK 924 INTRA-LIGAND FREE ENERGY PREDICTED BY IDOCK:    0.63 KCAL/MOL
REMARK 927      BINDING AFFINITY PREDICTED BY RF-SCORE:    0.00 PKD
ROOT
HETATM    1  O   UNL     1     -10.453  15.308  65.054  1.00  0.00    -0.399 OA 
HETATM    2  C   UNL     1     -10.584  15.996  66.314  1.00  0.00    -0.285 C  
HETATM    3  H   UNL     1     -10.043  15.902  64.436  1.00  0.00     0.000 HD 
HETATM    4  C   UNL     1     -11.247  15.035  67.312  1.00  0.00    -0.338 C  
HETATM    5  C   UNL     1     -10.249  13.922  67.757  1.00  0.00    -0.237 C  
HETATM    6  O   UNL     1     -12.440  14.556  66.666  1.00  0.00    -0.494 OA 
HETATM    7  O   UNL     1      -6.160  16.172  66.698  1.00  0.00    -0.247 OA 
HETATM    8  H   UNL     1     -12.850  13.962  67.283  1.00  0.00     0.000 HD 
HETATM    9  O   UNL     1      -9.007  14.507  68.213  1.00  0.00    -0.171 OA 
HETATM   10  C   UNL     1      -8.371  15.227  67.133  1.00  0.00    -0.216 C  
HETATM   11  O   UNL     1      -6.526  15.111  68.664  1.00  0.00    -0.084 OA 
HETATM   12  P   UNL     1      -9.310  17.726  68.140  1.00  0.00    -0.298 P  
HETATM   13  C   UNL     1      -9.194  16.463  66.755  1.00  0.00    -0.237 C  
HETATM   14  C   UNL     1      -6.919  15.576  67.446  1.00  0.00    -0.198 C  
ENDROOT
BRANCH   5  15
HETATM   15  O   UNL     1     -10.754  13.077  68.810  1.00  0.00    -0.248 OA 
BRANCH  15  16
HETATM   16  C   UNL     1     -10.797  11.650  68.538  1.00  0.00    -0.219 C  
HETATM   17  O   UNL     1     -12.259  11.815  66.541  1.00  0.00    -0.348 OA 
HETATM   18  C   UNL     1     -11.006  11.327  67.050  1.00  0.00    -0.294 C  
HETATM   19  C   UNL     1      -9.845  11.934  66.268  1.00  0.00    -0.225 C  
HETATM   20  O   UNL     1     -10.162  11.877  64.872  1.00  0.00    -0.255 OA 
HETATM   21  H   UNL     1     -12.389  11.616  65.622  1.00  0.00     0.000 HD 
HETATM   22  C   UNL     1      -8.552  11.203  66.689  1.00  0.00    -0.165 C  
HETATM   23  O   UNL     1      -8.340  11.296  68.110  1.00  0.00    -0.129 OA 
HETATM   24  O   UNL     1      -8.547   9.816  66.331  1.00  0.00    -0.123 OA 
HETATM   25  H   UNL     1      -9.440  12.255  64.386  1.00  0.00     0.000 HD 
HETATM   26  C   UNL     1      -9.454  11.018  68.976  1.00  0.00    -0.108 C  
HETATM   27  P   UNL     1      -8.298   9.392  64.782  1.00  0.00    -0.177 P  
HETATM   28  C   UNL     1      -9.678   9.530  69.303  1.00  0.00    -0.176 C  
HETATM   29  O   UNL     1      -8.716   8.711  68.829  1.00  0.00    -0.133 OA 
HETATM   30  O   UNL     1     -10.624   9.101  69.948  1.00  0.00    -0.216 OA 
ENDBRANCH  15  16
ENDBRANCH   5  15
TORSDOF 2
ENDMDL
MODEL      176
REMARK 921   NORMALIZED FREE ENERGY PREDICTED BY IDOCK:   -4.19 KCAL/MOL
REMARK 922        TOTAL FREE ENERGY PREDICTED BY IDOCK:   -5.39 KCAL/MOL
REMARK 923 INTER-LIGAND FREE ENERGY PREDICTED BY IDOCK:   -4.82 KCAL/MOL
REMARK 924 INTRA-LIGAND FREE ENERGY PREDICTED BY IDOCK:   -0.57 KCAL/MOL
REMARK 927      BINDING AFFINITY PREDICTED BY RF-SCORE:    0.00 PKD
ROOT
HETATM    1  O   UNL     1      -7.000   6.060  67.242  1.00  0.00    -0.065 OA 
HETATM    2  C   UNL     1      -8.080   5.766  66.334  1.00  0.00    -0.106 C  
HETATM    3  H   UNL     1      -6.297   5.444  67.072  1.00  0.00     0.000 HD 
HETATM    4  C   UNL     1      -9.217   6.761  66.610  1.00  0.00    -0.159 C  
HETATM    5  C   UNL     1      -8.850   8.183  66.085  1.00  0.00    -0.162 C  
HETATM    6  O   UNL     1      -9.473   6.685  68.024  1.00  0.00    -0.120 OA 
HETATM    7  O   UNL     1      -5.516   6.920  62.891  1.00  0.00    -0.031 OA 
HETATM    8  H   UNL     1     -10.176   7.300  68.194  1.00  0.00     0.000 HD 
HETATM    9  O   UNL     1      -8.424   8.119  64.704  1.00  0.00    -0.129 OA 
HETATM   10  C   UNL     1      -7.228   7.314  64.589  1.00  0.00    -0.073 C  
HETATM   11  O   UNL     1      -7.192   8.373  62.436  1.00  0.00    -0.097 OA 
HETATM   12  P   UNL     1      -8.734   5.067  63.681  1.00  0.00     0.050 P  
HETATM   13  C   UNL     1      -7.540   5.846  64.902  1.00  0.00    -0.090 C  
HETATM   14  C   UNL     1      -6.545   7.481  63.235  1.00  0.00    -0.058 C  
ENDROOT
BRANCH   5  15
HETATM   15  O   UNL     1      -9.933   9.131  66.170  1.00  0.00    -0.286 OA 
BRANCH  15  16
HETATM   16  C   UNL     1      -9.726  10.281  67.033  1.00  0.00    -0.176 C  
HETATM   17  O   UNL     1      -7.857  11.252  65.722  1.00  0.00    -0.368 OA 
HETATM   18  C   UNL     1      -9.155  11.499  66.288  1.00  0.00    -0.208 C  
HETATM   19  C   UNL     1     -10.144  11.887  65.192  1.00  0.00    -0.261 C  
HETATM   20  O   UNL     1      -9.510  12.835  64.326  1.00  0.00    -0.377 OA 
HETATM   21  H   UNL     1      -7.504  12.003  65.262  1.00  0.00     0.000 HD 
HETATM   22  C   UNL     1     -11.444  12.369  65.871  1.00  0.00    -0.374 C  
HETATM   23  O   UNL     1     -11.986  11.356  66.739  1.00  0.00    -0.383 OA 
HETATM   24  O   UNL     1     -11.267  13.563  66.642  1.00  0.00    -0.301 OA 
HETATM   25  H   UNL     1     -10.125  13.076  63.644  1.00  0.00     0.000 HD 
HETATM   26  C   UNL     1     -11.085  10.696  67.646  1.00  0.00    -0.319 C  
HETATM   27  P   UNL     1     -11.120  14.991  65.879  1.00  0.00    -0.276 P  
HETATM   28  C   UNL     1     -10.838  11.429  68.977  1.00  0.00    -0.219 C  
HETATM   29  O   UNL     1     -11.603  12.526  69.152  1.00  0.00    -0.281 OA 
HETATM   30  O   UNL     1     -10.038  11.063  69.827  1.00  0.00     0.044 OA 
ENDBRANCH  15  16
ENDBRANCH   5  15
TORSDOF 2
ENDMDL
MODEL      177
REMARK 921   NORMALIZED FREE ENERGY PREDICTED BY IDOCK:   -4.19 KCAL/MOL
REMARK 922        TOTAL FREE ENERGY PREDICTED BY IDOCK:   -5.39 KCAL/MOL
REMARK 923 INTER-LIGAND FREE ENERGY PREDICTED BY IDOCK:   -4.76 KCAL/MOL
REMARK 924 INTRA-LIGAND FREE ENERGY PREDICTED BY IDOCK:   -0.63 KCAL/MOL
REMARK 927      BINDING AFFINITY PREDICTED BY RF-SCORE:    0.00 PKD
ROOT
HETATM    1  O   UNL     1     -10.924   8.398  72.163  1.00  0.00    -0.293 OA 
HETATM    2  C   UNL     1     -11.244   7.025  72.463  1.00  0.00    -0.275 C  
HETATM    3  H   UNL     1     -10.766   8.849  72.984  1.00  0.00     0.000 HD 
HETATM    4  C   UNL     1     -11.500   6.296  71.135  1.00  0.00    -0.299 C  
HETATM    5  C   UNL     1     -10.165   6.062  70.364  1.00  0.00    -0.204 C  
HETATM    6  O   UNL     1     -12.474   7.088  70.433  1.00  0.00    -0.622 OA 
HETATM    7  O   UNL     1      -7.142   6.403  74.060  1.00  0.00    -0.085 OA 
HETATM    8  H   UNL     1     -12.633   6.637  69.612  1.00  0.00     0.000 HD 
HETATM    9  O   UNL     1      -9.187   5.430  71.223  1.00  0.00    -0.143 OA 
HETATM   10  C   UNL     1      -8.874   6.293  72.339  1.00  0.00    -0.131 C  
HETATM   11  O   UNL     1      -7.054   4.740  72.526  1.00  0.00    -0.074 OA 
HETATM   12  P   UNL     1     -10.585   4.803  74.070  1.00  0.00    -0.253 P  
HETATM   13  C   UNL     1     -10.086   6.426  73.268  1.00  0.00    -0.200 C  
HETATM   14  C   UNL     1      -7.623   5.842  73.087  1.00  0.00    -0.096 C  
ENDROOT
BRANCH   5  15
HETATM   15  O   UNL     1     -10.311   5.247  69.184  1.00  0.00    -0.220 OA 
BRANCH  15  16
HETATM   16  C   UNL     1      -9.086   4.822  68.529  1.00  0.00    -0.117 C  
HETATM   17  O   UNL     1     -10.019   2.734  67.569  1.00  0.00    -0.179 OA 
HETATM   18  C   UNL     1      -9.337   3.965  67.277  1.00  0.00    -0.191 C  
HETATM   19  C   UNL     1     -10.150   4.799  66.291  1.00  0.00    -0.264 C  
HETATM   20  O   UNL     1     -10.620   3.935  65.249  1.00  0.00    -0.470 OA 
HETATM   21  H   UNL     1     -10.175   2.204  66.797  1.00  0.00     0.000 HD 
HETATM   22  C   UNL     1      -9.274   5.984  65.832  1.00  0.00    -0.065 C  
HETATM   23  O   UNL     1      -8.833   6.772  66.953  1.00  0.00    -0.114 OA 
HETATM   24  O   UNL     1      -8.116   5.575  65.095  1.00  0.00    -0.111 OA 
HETATM   25  H   UNL     1     -11.126   4.454  64.636  1.00  0.00     0.000 HD 
HETATM   26  C   UNL     1      -8.293   6.078  68.092  1.00  0.00    -0.113 C  
HETATM   27  P   UNL     1      -8.282   5.083  63.555  1.00  0.00    -0.116 P  
HETATM   28  C   UNL     1      -6.797   5.725  67.999  1.00  0.00    -0.064 C  
HETATM   29  O   UNL     1      -6.178   6.232  66.912  1.00  0.00    -0.036 OA 
HETATM   30  O   UNL     1      -6.193   5.062  68.829  1.00  0.00    -0.028 OA 
ENDBRANCH  15  16
ENDBRANCH   5  15
TORSDOF 2
ENDMDL
MODEL      178
REMARK 921   NORMALIZED FREE ENERGY PREDICTED BY IDOCK:   -4.17 KCAL/MOL
REMARK 922        TOTAL FREE ENERGY PREDICTED BY IDOCK:   -5.36 KCAL/MOL
REMARK 923 INTER-LIGAND FREE ENERGY PREDICTED BY IDOCK:   -4.77 KCAL/MOL
REMARK 924 INTRA-LIGAND FREE ENERGY PREDICTED BY IDOCK:   -0.60 KCAL/MOL
REMARK 927      BINDING AFFINITY PREDICTED BY RF-SCORE:    0.00 PKD
ROOT
HETATM    1  O   UNL     1      -7.266  10.775  65.936  1.00  0.00    -0.205 OA 
HETATM    2  C   UNL     1      -8.682  10.729  65.666  1.00  0.00    -0.190 C  
HETATM    3  H   UNL     1      -6.894  11.492  65.436  1.00  0.00     0.000 HD 
HETATM    4  C   UNL     1      -9.283   9.570  66.475  1.00  0.00    -0.160 C  
HETATM    5  C   UNL     1      -9.346   9.926  67.992  1.00  0.00    -0.130 C  
HETATM    6  O   UNL     1      -8.487   8.414  66.157  1.00  0.00    -0.117 OA 
HETATM    7  O   UNL     1      -9.196  14.695  67.606  1.00  0.00    -0.186 OA 
HETATM    8  H   UNL     1      -8.859   7.697  66.658  1.00  0.00     0.000 HD 
HETATM    9  O   UNL     1     -10.000  11.203  68.186  1.00  0.00    -0.168 OA 
HETATM   10  C   UNL     1      -9.240  12.252  67.545  1.00  0.00    -0.181 C  
HETATM   11  O   UNL     1     -10.681  13.596  68.916  1.00  0.00    -0.245 OA 
HETATM   12  P   UNL     1     -11.011  12.278  65.309  1.00  0.00    -0.330 P  
HETATM   13  C   UNL     1      -9.284  12.092  66.022  1.00  0.00    -0.149 C  
HETATM   14  C   UNL     1      -9.683  13.643  67.991  1.00  0.00    -0.226 C  
ENDROOT
BRANCH   5  15
HETATM   15  O   UNL     1     -10.041   8.947  68.790  1.00  0.00    -0.188 OA 
BRANCH  15  16
HETATM   16  C   UNL     1      -9.454   8.618  70.077  1.00  0.00    -0.166 C  
HETATM   17  O   UNL     1     -11.429   9.261  71.432  1.00  0.00    -0.311 OA 
HETATM   18  C   UNL     1     -10.497   8.209  71.129  1.00  0.00    -0.199 C  
HETATM   19  C   UNL     1     -11.237   6.981  70.607  1.00  0.00    -0.288 C  
HETATM   20  O   UNL     1     -12.380   6.755  71.439  1.00  0.00    -0.354 OA 
HETATM   21  H   UNL     1     -12.074   9.009  72.082  1.00  0.00     0.000 HD 
HETATM   22  C   UNL     1     -10.229   5.815  70.524  1.00  0.00    -0.221 C  
HETATM   23  O   UNL     1      -9.107   6.153  69.688  1.00  0.00    -0.135 OA 
HETATM   24  O   UNL     1      -9.723   5.418  71.805  1.00  0.00    -0.156 OA 
HETATM   25  H   UNL     1     -12.841   5.991  71.114  1.00  0.00     0.000 HD 
HETATM   26  C   UNL     1      -8.478   7.431  69.890  1.00  0.00    -0.139 C  
HETATM   27  P   UNL     1     -10.667   4.550  72.802  1.00  0.00    -0.116 P  
HETATM   28  C   UNL     1      -7.413   7.472  71.002  1.00  0.00    -0.072 C  
HETATM   29  O   UNL     1      -7.134   6.267  71.541  1.00  0.00    -0.074 OA 
HETATM   30  O   UNL     1      -6.841   8.488  71.372  1.00  0.00    -0.062 OA 
ENDBRANCH  15  16
ENDBRANCH   5  15
TORSDOF 2
ENDMDL
MODEL      179
REMARK 921   NORMALIZED FREE ENERGY PREDICTED BY IDOCK:   -4.16 KCAL/MOL
REMARK 922        TOTAL FREE ENERGY PREDICTED BY IDOCK:   -5.35 KCAL/MOL
REMARK 923 INTER-LIGAND FREE ENERGY PREDICTED BY IDOCK:   -4.46 KCAL/MOL
REMARK 924 INTRA-LIGAND FREE ENERGY PREDICTED BY IDOCK:   -0.90 KCAL/MOL
REMARK 927      BINDING AFFINITY PREDICTED BY RF-SCORE:    0.00 PKD
ROOT
HETATM    1  O   UNL     1     -12.275   5.582  72.679  1.00  0.00    -0.426 OA 
HETATM    2  C   UNL     1     -10.898   5.932  72.918  1.00  0.00    -0.258 C  
HETATM    3  H   UNL     1     -12.816   6.096  73.267  1.00  0.00     0.000 HD 
HETATM    4  C   UNL     1     -10.024   5.099  71.968  1.00  0.00    -0.187 C  
HETATM    5  C   UNL     1     -10.146   5.619  70.503  1.00  0.00    -0.217 C  
HETATM    6  O   UNL     1     -10.426   3.731  72.160  1.00  0.00    -0.102 OA 
HETATM    7  O   UNL     1     -11.675  10.055  71.452  1.00  0.00    -0.367 OA 
HETATM    8  H   UNL     1      -9.886   3.216  71.572  1.00  0.00     0.000 HD 
HETATM    9  O   UNL     1      -9.909   7.046  70.450  1.00  0.00    -0.179 OA 
HETATM   10  C   UNL     1     -10.911   7.745  71.223  1.00  0.00    -0.231 C  
HETATM   11  O   UNL     1     -10.002   9.597  69.996  1.00  0.00    -0.216 OA 
HETATM   12  P   UNL     1      -9.112   8.057  73.416  1.00  0.00    -0.191 P  
HETATM   13  C   UNL     1     -10.743   7.442  72.715  1.00  0.00    -0.314 C  
HETATM   14  C   UNL     1     -10.920   9.244  70.937  1.00  0.00    -0.299 C  
ENDROOT
BRANCH   5  15
HETATM   15  O   UNL     1      -9.236   4.985  69.583  1.00  0.00    -0.108 OA 
BRANCH  15  16
HETATM   16  C   UNL     1      -9.365   5.347  68.182  1.00  0.00    -0.114 C  
HETATM   17  O   UNL     1      -8.260   7.558  68.387  1.00  0.00    -0.123 OA 
HETATM   18  C   UNL     1      -8.255   6.296  67.700  1.00  0.00    -0.117 C  
HETATM   19  C   UNL     1      -6.915   5.592  67.896  1.00  0.00    -0.066 C  
HETATM   20  O   UNL     1      -5.869   6.552  67.709  1.00  0.00    -0.015 OA 
HETATM   21  H   UNL     1      -7.574   8.145  68.089  1.00  0.00     0.000 HD 
HETATM   22  C   UNL     1      -6.876   4.369  66.954  1.00  0.00    -0.052 C  
HETATM   23  O   UNL     1      -7.983   3.482  67.204  1.00  0.00    -0.082 OA 
HETATM   24  O   UNL     1      -6.900   4.727  65.567  1.00  0.00    -0.058 OA 
HETATM   25  H   UNL     1      -5.036   6.114  67.832  1.00  0.00     0.000 HD 
HETATM   26  C   UNL     1      -9.294   4.061  67.325  1.00  0.00    -0.184 C  
HETATM   27  P   UNL     1      -5.558   5.323  64.872  1.00  0.00    -0.017 P  
HETATM   28  C   UNL     1     -10.035   4.296  65.996  1.00  0.00    -0.219 C  
HETATM   29  O   UNL     1      -9.394   3.807  64.914  1.00  0.00    -0.137 OA 
HETATM   30  O   UNL     1     -11.117   4.857  65.900  1.00  0.00    -0.178 OA 
ENDBRANCH  15  16
ENDBRANCH   5  15
TORSDOF 2
ENDMDL
MODEL      180
REMARK 921   NORMALIZED FREE ENERGY PREDICTED BY IDOCK:   -4.10 KCAL/MOL
REMARK 922        TOTAL FREE ENERGY PREDICTED BY IDOCK:   -5.29 KCAL/MOL
REMARK 923 INTER-LIGAND FREE ENERGY PREDICTED BY IDOCK:   -4.36 KCAL/MOL
REMARK 924 INTRA-LIGAND FREE ENERGY PREDICTED BY IDOCK:   -0.93 KCAL/MOL
REMARK 927      BINDING AFFINITY PREDICTED BY RF-SCORE:    0.00 PKD
ROOT
HETATM    1  O   UNL     1      -9.853  10.979  69.620  1.00  0.00    -0.423 OA 
HETATM    2  C   UNL     1     -10.812   9.951  69.940  1.00  0.00    -0.278 C  
HETATM    3  H   UNL     1      -9.862  11.618  70.322  1.00  0.00     0.000 HD 
HETATM    4  C   UNL     1     -10.797   8.917  68.804  1.00  0.00    -0.002 C  
HETATM    5  C   UNL     1      -9.501   8.052  68.858  1.00  0.00    -0.151 C  
HETATM    6  O   UNL     1     -10.976   9.666  67.588  1.00  0.00    -0.428 OA 
HETATM    7  O   UNL     1      -8.374   8.750  73.457  1.00  0.00    -0.357 OA 
HETATM    8  H   UNL     1     -10.966   9.026  66.886  1.00  0.00     0.000 HD 
HETATM    9  O   UNL     1      -9.315   7.499  70.182  1.00  0.00    -0.158 OA 
HETATM   10  C   UNL     1      -9.143   8.563  71.145  1.00  0.00    -0.190 C  
HETATM   11  O   UNL     1      -8.391   6.711  72.473  1.00  0.00    -0.113 OA 
HETATM   12  P   UNL     1     -11.855   8.333  72.001  1.00  0.00    -0.401 P  
HETATM   13  C   UNL     1     -10.444   9.357  71.303  1.00  0.00    -0.315 C  
HETATM   14  C   UNL     1      -8.613   8.054  72.483  1.00  0.00    -0.169 C  
ENDROOT
BRANCH   5  15
HETATM   15  O   UNL     1      -9.492   6.960  67.917  1.00  0.00    -0.122 OA 
BRANCH  15  16
HETATM   16  C   UNL     1      -8.224   6.278  67.721  1.00  0.00    -0.118 C  
HETATM   17  O   UNL     1      -8.343   4.916  69.790  1.00  0.00    -0.075 OA 
HETATM   18  C   UNL     1      -8.185   4.882  68.362  1.00  0.00    -0.084 C  
HETATM   19  C   UNL     1      -9.290   4.041  67.727  1.00  0.00    -0.176 C  
HETATM   20  O   UNL     1      -9.442   2.842  68.495  1.00  0.00    -0.192 OA 
HETATM   21  H   UNL     1      -8.320   4.053  70.186  1.00  0.00     0.000 HD 
HETATM   22  C   UNL     1      -8.941   3.841  66.237  1.00  0.00    -0.136 C  
HETATM   23  O   UNL     1      -8.783   5.103  65.564  1.00  0.00    -0.137 OA 
HETATM   24  O   UNL     1      -7.744   3.079  66.037  1.00  0.00    -0.076 OA 
HETATM   25  H   UNL     1     -10.130   2.319  68.101  1.00  0.00     0.000 HD 
HETATM   26  C   UNL     1      -7.978   6.110  66.202  1.00  0.00    -0.108 C  
HETATM   27  P   UNL     1      -7.774   1.470  66.261  1.00  0.00    -0.068 P  
HETATM   28  C   UNL     1      -6.464   6.003  65.944  1.00  0.00    -0.043 C  
HETATM   29  O   UNL     1      -6.124   5.052  65.049  1.00  0.00    -0.028 OA 
HETATM   30  O   UNL     1      -5.622   6.715  66.473  1.00  0.00    -0.013 OA 
ENDBRANCH  15  16
ENDBRANCH   5  15
TORSDOF 2
ENDMDL
MODEL      181
REMARK 921   NORMALIZED FREE ENERGY PREDICTED BY IDOCK:   -4.10 KCAL/MOL
REMARK 922        TOTAL FREE ENERGY PREDICTED BY IDOCK:   -5.28 KCAL/MOL
REMARK 923 INTER-LIGAND FREE ENERGY PREDICTED BY IDOCK:   -4.57 KCAL/MOL
REMARK 924 INTRA-LIGAND FREE ENERGY PREDICTED BY IDOCK:   -0.71 KCAL/MOL
REMARK 927      BINDING AFFINITY PREDICTED BY RF-SCORE:    0.00 PKD
ROOT
HETATM    1  O   UNL     1      -8.593  12.798  68.942  1.00  0.00    -0.357 OA 
HETATM    2  C   UNL     1      -7.878  11.742  68.269  1.00  0.00    -0.137 C  
HETATM    3  H   UNL     1      -8.331  13.624  68.554  1.00  0.00     0.000 HD 
HETATM    4  C   UNL     1      -8.301  10.406  68.898  1.00  0.00    -0.138 C  
HETATM    5  C   UNL     1      -9.748  10.022  68.462  1.00  0.00    -0.155 C  
HETATM    6  O   UNL     1      -8.117  10.562  70.317  1.00  0.00    -0.373 OA 
HETATM    7  O   UNL     1     -10.021  12.678  64.490  1.00  0.00    -0.253 OA 
HETATM    8  H   UNL     1      -8.379   9.735  70.705  1.00  0.00     0.000 HD 
HETATM    9  O   UNL     1      -9.877  10.081  67.022  1.00  0.00    -0.173 OA 
HETATM   10  C   UNL     1      -9.650  11.431  66.558  1.00  0.00    -0.198 C  
HETATM   11  O   UNL     1     -10.638  10.501  64.579  1.00  0.00    -0.246 OA 
HETATM   12  P   UNL     1      -6.983  10.794  65.769  1.00  0.00     0.090 P  
HETATM   13  C   UNL     1      -8.186  11.831  66.772  1.00  0.00    -0.147 C  
HETATM   14  C   UNL     1     -10.096  11.630  65.113  1.00  0.00    -0.262 C  
ENDROOT
BRANCH   5  15
HETATM   15  O   UNL     1     -10.153   8.705  68.889  1.00  0.00    -0.191 OA 
BRANCH  15  16
HETATM   16  C   UNL     1      -9.469   7.581  68.274  1.00  0.00    -0.144 C  
HETATM   17  O   UNL     1      -7.574   7.530  69.874  1.00  0.00    -0.089 OA 
HETATM   18  C   UNL     1      -8.633   6.765  69.274  1.00  0.00    -0.129 C  
HETATM   19  C   UNL     1      -9.574   6.230  70.349  1.00  0.00    -0.165 C  
HETATM   20  O   UNL     1      -8.783   5.704  71.421  1.00  0.00    -0.130 OA 
HETATM   21  H   UNL     1      -7.057   7.026  70.491  1.00  0.00     0.000 HD 
HETATM   22  C   UNL     1     -10.543   5.231  69.682  1.00  0.00    -0.191 C  
HETATM   23  O   UNL     1     -11.268   5.849  68.603  1.00  0.00    -0.238 OA 
HETATM   24  O   UNL     1      -9.884   4.069  69.163  1.00  0.00    -0.153 OA 
HETATM   25  H   UNL     1      -9.368   5.372  72.090  1.00  0.00     0.000 HD 
HETATM   26  C   UNL     1     -10.524   6.634  67.654  1.00  0.00    -0.227 C  
HETATM   27  P   UNL     1      -9.377   2.914  70.189  1.00  0.00    -0.074 P  
HETATM   28  C   UNL     1      -9.877   5.838  66.506  1.00  0.00    -0.161 C  
HETATM   29  O   UNL     1     -10.210   4.531  66.486  1.00  0.00    -0.243 OA 
HETATM   30  O   UNL     1      -9.138   6.325  65.661  1.00  0.00    -0.090 OA 
ENDBRANCH  15  16
ENDBRANCH   5  15
TORSDOF 2
ENDMDL
MODEL      182
REMARK 921   NORMALIZED FREE ENERGY PREDICTED BY IDOCK:   -4.08 KCAL/MOL
REMARK 922        TOTAL FREE ENERGY PREDICTED BY IDOCK:   -5.26 KCAL/MOL
REMARK 923 INTER-LIGAND FREE ENERGY PREDICTED BY IDOCK:   -5.10 KCAL/MOL
REMARK 924 INTRA-LIGAND FREE ENERGY PREDICTED BY IDOCK:   -0.16 KCAL/MOL
REMARK 927      BINDING AFFINITY PREDICTED BY RF-SCORE:    0.00 PKD
ROOT
HETATM    1  O   UNL     1     -10.412  16.217  70.357  1.00  0.00    -0.155 OA 
HETATM    2  C   UNL     1     -11.747  15.977  69.869  1.00  0.00    -0.271 C  
HETATM    3  H   UNL     1     -10.475  16.769  71.127  1.00  0.00     0.000 HD 
HETATM    4  C   UNL     1     -11.644  15.085  68.623  1.00  0.00    -0.325 C  
HETATM    5  C   UNL     1     -11.274  13.622  69.016  1.00  0.00    -0.273 C  
HETATM    6  O   UNL     1     -10.703  15.734  67.750  1.00  0.00    -0.291 OA 
HETATM    7  O   UNL     1     -12.715  13.730  73.579  1.00  0.00    -0.020 OA 
HETATM    8  H   UNL     1     -10.640  15.183  66.979  1.00  0.00     0.000 HD 
HETATM    9  O   UNL     1     -12.169  13.131  70.041  1.00  0.00    -0.306 OA 
HETATM   10  C   UNL     1     -12.038  13.928  71.240  1.00  0.00    -0.167 C  
HETATM   11  O   UNL     1     -13.237  12.057  72.146  1.00  0.00    -0.495 OA 
HETATM   12  P   UNL     1     -14.404  15.396  70.615  1.00  0.00     1.579 P  
HETATM   13  C   UNL     1     -12.566  15.346  70.999  1.00  0.00    -0.431 C  
HETATM   14  C   UNL     1     -12.694  13.267  72.449  1.00  0.00     0.032 C  
ENDROOT
BRANCH   5  15
HETATM   15  O   UNL     1     -11.313  12.696  67.912  1.00  0.00    -0.250 OA 
BRANCH  15  16
HETATM   16  C   UNL     1     -11.054  13.243  66.592  1.00  0.00    -0.291 C  
HETATM   17  O   UNL     1      -8.580  13.178  66.769  1.00  0.00    -0.384 OA 
HETATM   18  C   UNL     1      -9.719  12.768  65.994  1.00  0.00    -0.224 C  
HETATM   19  C   UNL     1      -9.766  11.246  65.887  1.00  0.00    -0.224 C  
HETATM   20  O   UNL     1      -8.447  10.773  65.591  1.00  0.00    -0.170 OA 
HETATM   21  H   UNL     1      -7.756  12.884  66.400  1.00  0.00     0.000 HD 
HETATM   22  C   UNL     1     -10.856  10.873  64.859  1.00  0.00    -0.080 C  
HETATM   23  O   UNL     1     -12.135  11.417  65.234  1.00  0.00     0.112 OA 
HETATM   24  O   UNL     1     -10.555  11.322  63.532  1.00  0.00    -0.371 OA 
HETATM   25  H   UNL     1      -8.476   9.826  65.525  1.00  0.00     0.000 HD 
HETATM   26  C   UNL     1     -12.187  12.797  65.636  1.00  0.00    -0.444 C  
HETATM   27  P   UNL     1      -9.437  10.532  62.656  1.00  0.00    -0.174 P  
HETATM   28  C   UNL     1     -12.308  13.814  64.486  1.00  0.00    -0.358 C  
HETATM   29  O   UNL     1     -12.477  13.253  63.271  1.00  0.00    -0.736 OA 
HETATM   30  O   UNL     1     -12.277  15.028  64.634  1.00  0.00    -0.380 OA 
ENDBRANCH  15  16
ENDBRANCH   5  15
TORSDOF 2
ENDMDL
MODEL      183
REMARK 921   NORMALIZED FREE ENERGY PREDICTED BY IDOCK:   -4.07 KCAL/MOL
REMARK 922        TOTAL FREE ENERGY PREDICTED BY IDOCK:   -5.25 KCAL/MOL
REMARK 923 INTER-LIGAND FREE ENERGY PREDICTED BY IDOCK:   -4.52 KCAL/MOL
REMARK 924 INTRA-LIGAND FREE ENERGY PREDICTED BY IDOCK:   -0.73 KCAL/MOL
REMARK 927      BINDING AFFINITY PREDICTED BY RF-SCORE:    0.00 PKD
ROOT
HETATM    1  O   UNL     1      -6.922   5.094  69.145  1.00  0.00    -0.052 OA 
HETATM    2  C   UNL     1      -6.835   6.218  70.043  1.00  0.00    -0.058 C  
HETATM    3  H   UNL     1      -6.667   4.314  69.625  1.00  0.00     0.000 HD 
HETATM    4  C   UNL     1      -7.246   7.478  69.266  1.00  0.00    -0.086 C  
HETATM    5  C   UNL     1      -8.785   7.498  69.015  1.00  0.00    -0.136 C  
HETATM    6  O   UNL     1      -6.438   7.489  68.076  1.00  0.00    -0.046 OA 
HETATM    7  O   UNL     1     -10.112   4.517  72.516  1.00  0.00    -0.163 OA 
HETATM    8  H   UNL     1      -6.692   8.268  67.596  1.00  0.00     0.000 HD 
HETATM    9  O   UNL     1      -9.503   7.289  70.254  1.00  0.00    -0.165 OA 
HETATM   10  C   UNL     1      -9.189   5.987  70.797  1.00  0.00    -0.154 C  
HETATM   11  O   UNL     1     -11.120   6.505  72.123  1.00  0.00    -0.238 OA 
HETATM   12  P   UNL     1      -7.354   7.121  72.663  1.00  0.00    -0.077 P  
HETATM   13  C   UNL     1      -7.728   5.937  71.255  1.00  0.00    -0.110 C  
HETATM   14  C   UNL     1     -10.154   5.572  71.903  1.00  0.00    -0.189 C  
ENDROOT
BRANCH   5  15
HETATM   15  O   UNL     1      -9.262   8.726  68.429  1.00  0.00    -0.138 OA 
BRANCH  15  16
HETATM   16  C   UNL     1      -9.769   9.733  69.345  1.00  0.00    -0.202 C  
HETATM   17  O   UNL     1      -7.661  11.032  69.489  1.00  0.00    -0.312 OA 
HETATM   18  C   UNL     1      -9.067  11.092  69.195  1.00  0.00     0.010 C  
HETATM   19  C   UNL     1      -9.288  11.582  67.767  1.00  0.00    -0.168 C  
HETATM   20  O   UNL     1      -8.423  12.700  67.534  1.00  0.00    -0.155 OA 
HETATM   21  H   UNL     1      -7.227  11.871  69.397  1.00  0.00     0.000 HD 
HETATM   22  C   UNL     1     -10.796  11.854  67.584  1.00  0.00    -0.227 C  
HETATM   23  O   UNL     1     -11.577  10.679  67.867  1.00  0.00    -0.491 OA 
HETATM   24  O   UNL     1     -11.280  12.918  68.412  1.00  0.00    -0.237 OA 
HETATM   25  H   UNL     1      -8.561  13.004  66.645  1.00  0.00     0.000 HD 
HETATM   26  C   UNL     1     -11.277   9.945  69.068  1.00  0.00    -0.087 C  
HETATM   27  P   UNL     1     -10.940  14.457  68.017  1.00  0.00    -0.278 P  
HETATM   28  C   UNL     1     -11.957  10.469  70.346  1.00  0.00    -0.335 C  
HETATM   29  O   UNL     1     -12.840  11.467  70.131  1.00  0.00    -0.061 OA 
HETATM   30  O   UNL     1     -11.750  10.027  71.467  1.00  0.00    -0.365 OA 
ENDBRANCH  15  16
ENDBRANCH   5  15
TORSDOF 2
ENDMDL
MODEL      184
REMARK 921   NORMALIZED FREE ENERGY PREDICTED BY IDOCK:   -4.07 KCAL/MOL
REMARK 922        TOTAL FREE ENERGY PREDICTED BY IDOCK:   -5.25 KCAL/MOL
REMARK 923 INTER-LIGAND FREE ENERGY PREDICTED BY IDOCK:   -5.01 KCAL/MOL
REMARK 924 INTRA-LIGAND FREE ENERGY PREDICTED BY IDOCK:   -0.24 KCAL/MOL
REMARK 927      BINDING AFFINITY PREDICTED BY RF-SCORE:    0.00 PKD
ROOT
HETATM    1  O   UNL     1      -7.761  12.648  69.198  1.00  0.00    -0.328 OA 
HETATM    2  C   UNL     1      -7.283  11.509  68.454  1.00  0.00    -0.089 C  
HETATM    3  H   UNL     1      -7.503  13.434  68.731  1.00  0.00     0.000 HD 
HETATM    4  C   UNL     1      -7.701  10.239  69.209  1.00  0.00    -0.130 C  
HETATM    5  C   UNL     1      -9.233   9.986  69.064  1.00  0.00    -0.178 C  
HETATM    6  O   UNL     1      -7.242  10.415  70.561  1.00  0.00    -0.429 OA 
HETATM    7  O   UNL     1     -10.000  12.546  65.093  1.00  0.00    -0.263 OA 
HETATM    8  H   UNL     1      -7.501   9.629  71.028  1.00  0.00     0.000 HD 
HETATM    9  O   UNL     1      -9.623  10.018  67.670  1.00  0.00    -0.146 OA 
HETATM   10  C   UNL     1      -9.364  11.326  67.112  1.00  0.00    -0.163 C  
HETATM   11  O   UNL     1     -10.785  10.443  65.391  1.00  0.00    -0.101 OA 
HETATM   12  P   UNL     1      -6.961  10.410  65.877  1.00  0.00    -0.117 P  
HETATM   13  C   UNL     1      -7.856  11.586  67.035  1.00  0.00    -0.161 C  
HETATM   14  C   UNL     1     -10.052  11.528  65.765  1.00  0.00    -0.237 C  
ENDROOT
BRANCH   5  15
HETATM   15  O   UNL     1      -9.670   8.728  69.616  1.00  0.00    -0.168 OA 
BRANCH  15  16
HETATM   16  C   UNL     1      -9.204   8.406  70.954  1.00  0.00    -0.160 C  
HETATM   17  O   UNL     1     -11.289   9.076  72.119  1.00  0.00    -0.357 OA 
HETATM   18  C   UNL     1     -10.342   8.014  71.910  1.00  0.00    -0.223 C  
HETATM   19  C   UNL     1     -11.042   6.787  71.333  1.00  0.00    -0.254 C  
HETATM   20  O   UNL     1     -12.258   6.577  72.060  1.00  0.00    -0.372 OA 
HETATM   21  H   UNL     1     -11.992   8.834  72.709  1.00  0.00     0.000 HD 
HETATM   22  C   UNL     1     -10.040   5.613  71.353  1.00  0.00    -0.200 C  
HETATM   23  O   UNL     1      -8.844   5.935  70.619  1.00  0.00    -0.138 OA 
HETATM   24  O   UNL     1      -9.655   5.224  72.677  1.00  0.00    -0.146 OA 
HETATM   25  H   UNL     1     -12.693   5.813  71.700  1.00  0.00     0.000 HD 
HETATM   26  C   UNL     1      -8.225   7.210  70.867  1.00  0.00    -0.116 C  
HETATM   27  P   UNL     1     -10.693   4.372  73.592  1.00  0.00    -0.300 P  
HETATM   28  C   UNL     1      -7.266   7.253  72.071  1.00  0.00    -0.071 C  
HETATM   29  O   UNL     1      -7.047   6.051  72.643  1.00  0.00    -0.081 OA 
HETATM   30  O   UNL     1      -6.722   8.268  72.482  1.00  0.00    -0.079 OA 
ENDBRANCH  15  16
ENDBRANCH   5  15
TORSDOF 2
ENDMDL
MODEL      185
REMARK 921   NORMALIZED FREE ENERGY PREDICTED BY IDOCK:   -4.05 KCAL/MOL
REMARK 922        TOTAL FREE ENERGY PREDICTED BY IDOCK:   -5.23 KCAL/MOL
REMARK 923 INTER-LIGAND FREE ENERGY PREDICTED BY IDOCK:   -4.95 KCAL/MOL
REMARK 924 INTRA-LIGAND FREE ENERGY PREDICTED BY IDOCK:   -0.28 KCAL/MOL
REMARK 927      BINDING AFFINITY PREDICTED BY RF-SCORE:    0.00 PKD
ROOT
HETATM    1  O   UNL     1      -5.410   9.788  68.438  1.00  0.00    -0.033 OA 
HETATM    2  C   UNL     1      -6.377   9.316  69.398  1.00  0.00    -0.044 C  
HETATM    3  H   UNL     1      -4.752   9.112  68.327  1.00  0.00     0.000 HD 
HETATM    4  C   UNL     1      -7.441  10.409  69.577  1.00  0.00    -0.148 C  
HETATM    5  C   UNL     1      -8.371  10.489  68.328  1.00  0.00    -0.122 C  
HETATM    6  O   UNL     1      -6.718  11.618  69.872  1.00  0.00    -0.309 OA 
HETATM    7  O   UNL     1      -7.607   6.093  66.594  1.00  0.00    -0.091 OA 
HETATM    8  H   UNL     1      -7.376  12.294  69.983  1.00  0.00     0.000 HD 
HETATM    9  O   UNL     1      -8.896   9.180  68.002  1.00  0.00    -0.129 OA 
HETATM   10  C   UNL     1      -7.817   8.283  67.658  1.00  0.00    -0.106 C  
HETATM   11  O   UNL     1      -9.668   6.998  66.834  1.00  0.00    -0.157 OA 
HETATM   12  P   UNL     1      -7.881   7.087  70.248  1.00  0.00    -0.107 P  
HETATM   13  C   UNL     1      -6.952   7.990  68.889  1.00  0.00    -0.062 C  
HETATM   14  C   UNL     1      -8.316   7.006  66.989  1.00  0.00    -0.121 C  
ENDROOT
BRANCH   5  15
HETATM   15  O   UNL     1      -9.488  11.386  68.491  1.00  0.00    -0.182 OA 
BRANCH  15  16
HETATM   16  C   UNL     1      -9.317  12.739  67.991  1.00  0.00    -0.213 C  
HETATM   17  O   UNL     1      -8.440  12.080  65.766  1.00  0.00    -0.350 OA 
HETATM   18  C   UNL     1      -9.445  12.837  66.463  1.00  0.00    -0.253 C  
HETATM   19  C   UNL     1     -10.838  12.350  66.074  1.00  0.00    -0.273 C  
HETATM   20  O   UNL     1     -10.877  12.180  64.652  1.00  0.00    -0.282 OA 
HETATM   21  H   UNL     1      -8.519  12.141  64.822  1.00  0.00     0.000 HD 
HETATM   22  C   UNL     1     -11.869  13.340  66.657  1.00  0.00    -0.395 C  
HETATM   23  O   UNL     1     -11.729  13.459  68.084  1.00  0.00    -0.320 OA 
HETATM   24  O   UNL     1     -11.771  14.653  66.091  1.00  0.00    -0.365 OA 
HETATM   25  H   UNL     1     -11.743  11.877  64.410  1.00  0.00     0.000 HD 
HETATM   26  C   UNL     1     -10.405  13.643  68.617  1.00  0.00    -0.219 C  
HETATM   27  P   UNL     1     -12.340  14.921  64.592  1.00  0.00     0.034 P  
HETATM   28  C   UNL     1      -9.902  15.098  68.641  1.00  0.00    -0.218 C  
HETATM   29  O   UNL     1     -10.829  16.008  68.274  1.00  0.00    -0.290 OA 
HETATM   30  O   UNL     1      -8.774  15.432  68.976  1.00  0.00    -0.196 OA 
ENDBRANCH  15  16
ENDBRANCH   5  15
TORSDOF 2
ENDMDL
MODEL      186
REMARK 921   NORMALIZED FREE ENERGY PREDICTED BY IDOCK:   -4.02 KCAL/MOL
REMARK 922        TOTAL FREE ENERGY PREDICTED BY IDOCK:   -5.20 KCAL/MOL
REMARK 923 INTER-LIGAND FREE ENERGY PREDICTED BY IDOCK:   -4.46 KCAL/MOL
REMARK 924 INTRA-LIGAND FREE ENERGY PREDICTED BY IDOCK:   -0.74 KCAL/MOL
REMARK 927      BINDING AFFINITY PREDICTED BY RF-SCORE:    0.00 PKD
ROOT
HETATM    1  O   UNL     1      -9.168   3.482  69.593  1.00  0.00    -0.122 OA 
HETATM    2  C   UNL     1      -9.806   4.140  68.480  1.00  0.00    -0.015 C  
HETATM    3  H   UNL     1      -8.992   2.583  69.341  1.00  0.00     0.000 HD 
HETATM    4  C   UNL     1     -10.091   5.593  68.888  1.00  0.00    -0.192 C  
HETATM    5  C   UNL     1      -8.773   6.427  68.928  1.00  0.00    -0.126 C  
HETATM    6  O   UNL     1     -10.799   5.520  70.139  1.00  0.00    -0.306 OA 
HETATM    7  O   UNL     1      -6.108   3.672  66.061  1.00  0.00    -0.026 OA 
HETATM    8  H   UNL     1     -10.974   6.419  70.391  1.00  0.00     0.000 HD 
HETATM    9  O   UNL     1      -8.042   6.278  67.688  1.00  0.00    -0.115 OA 
HETATM   10  C   UNL     1      -7.654   4.898  67.503  1.00  0.00    -0.086 C  
HETATM   11  O   UNL     1      -6.242   5.923  65.855  1.00  0.00    -0.034 OA 
HETATM   12  P   UNL     1      -9.802   4.457  65.678  1.00  0.00    -0.223 P  
HETATM   13  C   UNL     1      -8.888   4.023  67.260  1.00  0.00    -0.119 C  
HETATM   14  C   UNL     1      -6.606   4.733  66.405  1.00  0.00    -0.046 C  
ENDROOT
BRANCH   5  15
HETATM   15  O   UNL     1      -8.983   7.835  69.151  1.00  0.00    -0.145 OA 
BRANCH  15  16
HETATM   16  C   UNL     1      -8.835   8.708  68.000  1.00  0.00    -0.141 C  
HETATM   17  O   UNL     1     -11.115   8.332  67.099  1.00  0.00    -0.393 OA 
HETATM   18  C   UNL     1     -10.165   9.320  67.532  1.00  0.00    -0.242 C  
HETATM   19  C   UNL     1     -10.740  10.136  68.687  1.00  0.00    -0.222 C  
HETATM   20  O   UNL     1     -12.091  10.484  68.365  1.00  0.00    -0.804 OA 
HETATM   21  H   UNL     1     -11.937   8.710  66.810  1.00  0.00     0.000 HD 
HETATM   22  C   UNL     1      -9.790  11.323  68.952  1.00  0.00    -0.139 C  
HETATM   23  O   UNL     1      -8.454  10.868  69.238  1.00  0.00    -0.108 OA 
HETATM   24  O   UNL     1      -9.719  12.243  67.856  1.00  0.00    -0.190 OA 
HETATM   25  H   UNL     1     -12.449  10.991  69.084  1.00  0.00     0.000 HD 
HETATM   26  C   UNL     1      -7.883   9.870  68.374  1.00  0.00    -0.085 C  
HETATM   27  P   UNL     1     -10.951  13.270  67.594  1.00  0.00    -0.280 P  
HETATM   28  C   UNL     1      -7.217  10.410  67.095  1.00  0.00    -0.091 C  
HETATM   29  O   UNL     1      -7.154  11.757  67.034  1.00  0.00    -0.137 OA 
HETATM   30  O   UNL     1      -6.761   9.706  66.205  1.00  0.00    -0.073 OA 
ENDBRANCH  15  16
ENDBRANCH   5  15
TORSDOF 2
ENDMDL
MODEL      187
REMARK 921   NORMALIZED FREE ENERGY PREDICTED BY IDOCK:   -4.02 KCAL/MOL
REMARK 922        TOTAL FREE ENERGY PREDICTED BY IDOCK:   -5.20 KCAL/MOL
REMARK 923 INTER-LIGAND FREE ENERGY PREDICTED BY IDOCK:   -4.48 KCAL/MOL
REMARK 924 INTRA-LIGAND FREE ENERGY PREDICTED BY IDOCK:   -0.73 KCAL/MOL
REMARK 927      BINDING AFFINITY PREDICTED BY RF-SCORE:    0.00 PKD
ROOT
HETATM    1  O   UNL     1     -11.147   5.513  71.975  1.00  0.00    -0.239 OA 
HETATM    2  C   UNL     1     -10.384   5.493  70.753  1.00  0.00    -0.251 C  
HETATM    3  H   UNL     1     -11.017   4.682  72.417  1.00  0.00     0.000 HD 
HETATM    4  C   UNL     1     -10.594   6.837  70.039  1.00  0.00    -0.220 C  
HETATM    5  C   UNL     1      -9.829   7.981  70.773  1.00  0.00    -0.183 C  
HETATM    6  O   UNL     1     -12.019   7.019  69.954  1.00  0.00    -0.593 OA 
HETATM    7  O   UNL     1      -6.611   5.305  73.094  1.00  0.00    -0.062 OA 
HETATM    8  H   UNL     1     -12.149   7.850  69.512  1.00  0.00     0.000 HD 
HETATM    9  O   UNL     1      -8.445   7.614  70.979  1.00  0.00    -0.114 OA 
HETATM   10  C   UNL     1      -8.360   6.448  71.828  1.00  0.00    -0.120 C  
HETATM   11  O   UNL     1      -6.073   7.170  71.930  1.00  0.00    -0.037 OA 
HETATM   12  P   UNL     1      -7.931   4.745  69.579  1.00  0.00    -0.065 P  
HETATM   13  C   UNL     1      -8.918   5.218  71.105  1.00  0.00    -0.139 C  
HETATM   14  C   UNL     1      -6.946   6.215  72.352  1.00  0.00    -0.079 C  
ENDROOT
BRANCH   5  15
HETATM   15  O   UNL     1      -9.855   9.240  70.072  1.00  0.00    -0.180 OA 
BRANCH  15  16
HETATM   16  C   UNL     1      -9.183   9.284  68.785  1.00  0.00    -0.136 C  
HETATM   17  O   UNL     1     -11.129   8.508  67.455  1.00  0.00    -0.459 OA 
HETATM   18  C   UNL     1     -10.144   9.543  67.612  1.00  0.00    -0.205 C  
HETATM   19  C   UNL     1     -10.824  10.889  67.849  1.00  0.00    -0.247 C  
HETATM   20  O   UNL     1     -11.906  11.018  66.921  1.00  0.00    -0.237 OA 
HETATM   21  H   UNL     1     -11.722   8.668  66.731  1.00  0.00     0.000 HD 
HETATM   22  C   UNL     1      -9.744  11.989  67.773  1.00  0.00    -0.192 C  
HETATM   23  O   UNL     1      -8.690  11.753  68.725  1.00  0.00    -0.099 OA 
HETATM   24  O   UNL     1      -9.149  12.105  66.475  1.00  0.00    -0.208 OA 
HETATM   25  H   UNL     1     -12.330  11.855  67.069  1.00  0.00     0.000 HD 
HETATM   26  C   UNL     1      -8.140  10.427  68.805  1.00  0.00    -0.125 C  
HETATM   27  P   UNL     1      -9.982  12.820  65.276  1.00  0.00    -0.056 P  
HETATM   28  C   UNL     1      -7.027  10.114  67.787  1.00  0.00    -0.084 C  
HETATM   29  O   UNL     1      -6.640  11.176  67.050  1.00  0.00    -0.088 OA 
HETATM   30  O   UNL     1      -6.508   9.015  67.650  1.00  0.00    -0.059 OA 
ENDBRANCH  15  16
ENDBRANCH   5  15
TORSDOF 2
ENDMDL
MODEL      188
REMARK 921   NORMALIZED FREE ENERGY PREDICTED BY IDOCK:   -4.01 KCAL/MOL
REMARK 922        TOTAL FREE ENERGY PREDICTED BY IDOCK:   -5.19 KCAL/MOL
REMARK 923 INTER-LIGAND FREE ENERGY PREDICTED BY IDOCK:   -4.53 KCAL/MOL
REMARK 924 INTRA-LIGAND FREE ENERGY PREDICTED BY IDOCK:   -0.66 KCAL/MOL
REMARK 927      BINDING AFFINITY PREDICTED BY RF-SCORE:    0.00 PKD
ROOT
HETATM    1  O   UNL     1      -6.560  16.557  69.621  1.00  0.00    -0.218 OA 
HETATM    2  C   UNL     1      -6.972  16.253  68.273  1.00  0.00    -0.128 C  
HETATM    3  H   UNL     1      -6.213  17.441  69.630  1.00  0.00     0.000 HD 
HETATM    4  C   UNL     1      -7.532  14.823  68.258  1.00  0.00    -0.115 C  
HETATM    5  C   UNL     1      -8.930  14.767  68.948  1.00  0.00    -0.167 C  
HETATM    6  O   UNL     1      -6.523  13.998  68.868  1.00  0.00    -0.086 OA 
HETATM    7  O   UNL     1     -10.118  19.383  68.515  1.00  0.00    -0.400 OA 
HETATM    8  H   UNL     1      -6.869  13.114  68.858  1.00  0.00     0.000 HD 
HETATM    9  O   UNL     1      -9.812  15.769  68.388  1.00  0.00    -0.203 OA 
HETATM   10  C   UNL     1      -9.281  17.091  68.634  1.00  0.00    -0.266 C  
HETATM   11  O   UNL     1     -11.517  17.681  67.992  1.00  0.00     0.242 OA 
HETATM   12  P   UNL     1      -8.260  17.260  65.975  1.00  0.00     0.167 P  
HETATM   13  C   UNL     1      -7.993  17.307  67.833  1.00  0.00    -0.205 C  
HETATM   14  C   UNL     1     -10.312  18.186  68.373  1.00  0.00    -0.356 C  
ENDROOT
BRANCH   5  15
HETATM   15  O   UNL     1      -9.584  13.487  68.833  1.00  0.00    -0.043 OA 
BRANCH  15  16
HETATM   16  C   UNL     1      -9.357  12.747  67.603  1.00  0.00    -0.191 C  
HETATM   17  O   UNL     1      -7.347  11.533  68.402  1.00  0.00    -0.084 OA 
HETATM   18  C   UNL     1      -8.660  11.397  67.833  1.00  0.00    -0.140 C  
HETATM   19  C   UNL     1      -9.548  10.557  68.747  1.00  0.00    -0.179 C  
HETATM   20  O   UNL     1      -8.797   9.419  69.185  1.00  0.00    -0.134 OA 
HETATM   21  H   UNL     1      -6.916  10.699  68.544  1.00  0.00     0.000 HD 
HETATM   22  C   UNL     1     -10.854  10.243  67.987  1.00  0.00    -0.275 C  
HETATM   23  O   UNL     1     -11.517  11.450  67.567  1.00  0.00    -0.399 OA 
HETATM   24  O   UNL     1     -10.648   9.426  66.828  1.00  0.00    -0.218 OA 
HETATM   25  H   UNL     1      -9.349   8.897  69.754  1.00  0.00     0.000 HD 
HETATM   26  C   UNL     1     -10.723  12.467  66.931  1.00  0.00    -0.243 C  
HETATM   27  P   UNL     1     -10.357   7.838  67.012  1.00  0.00    -0.288 P  
HETATM   28  C   UNL     1     -10.514  12.286  65.416  1.00  0.00    -0.269 C  
HETATM   29  O   UNL     1     -11.214  11.265  64.882  1.00  0.00    -0.176 OA 
HETATM   30  O   UNL     1      -9.797  13.001  64.729  1.00  0.00    -0.154 OA 
ENDBRANCH  15  16
ENDBRANCH   5  15
TORSDOF 2
ENDMDL
MODEL      189
REMARK 921   NORMALIZED FREE ENERGY PREDICTED BY IDOCK:   -3.99 KCAL/MOL
REMARK 922        TOTAL FREE ENERGY PREDICTED BY IDOCK:   -5.16 KCAL/MOL
REMARK 923 INTER-LIGAND FREE ENERGY PREDICTED BY IDOCK:   -4.43 KCAL/MOL
REMARK 924 INTRA-LIGAND FREE ENERGY PREDICTED BY IDOCK:   -0.73 KCAL/MOL
REMARK 927      BINDING AFFINITY PREDICTED BY RF-SCORE:    0.00 PKD
ROOT
HETATM    1  O   UNL     1      -8.761   8.718  72.778  1.00  0.00    -0.398 OA 
HETATM    2  C   UNL     1      -9.814   8.329  71.873  1.00  0.00    -0.232 C  
HETATM    3  H   UNL     1      -9.161   8.996  73.593  1.00  0.00     0.000 HD 
HETATM    4  C   UNL     1      -9.165   7.880  70.555  1.00  0.00    -0.158 C  
HETATM    5  C   UNL     1      -8.476   6.491  70.721  1.00  0.00    -0.134 C  
HETATM    6  O   UNL     1      -8.286   8.950  70.164  1.00  0.00    -0.104 OA 
HETATM    7  O   UNL     1     -10.894   4.954  74.555  1.00  0.00    -0.343 OA 
HETATM    8  H   UNL     1      -7.885   8.671  69.349  1.00  0.00     0.000 HD 
HETATM    9  O   UNL     1      -9.394   5.535  71.301  1.00  0.00    -0.144 OA 
HETATM   10  C   UNL     1      -9.787   5.963  72.624  1.00  0.00    -0.164 C  
HETATM   11  O   UNL     1     -10.547   3.688  72.710  1.00  0.00    -0.161 OA 
HETATM   12  P   UNL     1     -12.272   6.967  71.647  1.00  0.00    -0.372 P  
HETATM   13  C   UNL     1     -10.644   7.231  72.544  1.00  0.00    -0.247 C  
HETATM   14  C   UNL     1     -10.475   4.852  73.412  1.00  0.00    -0.216 C  
ENDROOT
BRANCH   5  15
HETATM   15  O   UNL     1      -7.981   5.936  69.486  1.00  0.00    -0.101 OA 
BRANCH  15  16
HETATM   16  C   UNL     1      -8.539   4.660  69.074  1.00  0.00    -0.084 C  
HETATM   17  O   UNL     1     -10.847   5.493  68.712  1.00  0.00    -0.195 OA 
HETATM   18  C   UNL     1      -9.734   4.803  68.118  1.00  0.00    -0.143 C  
HETATM   19  C   UNL     1      -9.255   5.546  66.873  1.00  0.00    -0.119 C  
HETATM   20  O   UNL     1     -10.402   5.923  66.104  1.00  0.00    -0.416 OA 
HETATM   21  H   UNL     1     -11.585   5.582  68.122  1.00  0.00     0.000 HD 
HETATM   22  C   UNL     1      -8.229   4.649  66.148  1.00  0.00    -0.107 C  
HETATM   23  O   UNL     1      -7.132   4.305  67.015  1.00  0.00    -0.065 OA 
HETATM   24  O   UNL     1      -8.798   3.432  65.650  1.00  0.00    -0.123 OA 
HETATM   25  H   UNL     1     -10.104   6.386  65.329  1.00  0.00     0.000 HD 
HETATM   26  C   UNL     1      -7.441   3.849  68.343  1.00  0.00    -0.058 C  
HETATM   27  P   UNL     1      -9.726   3.472  64.317  1.00  0.00    -0.191 P  
HETATM   28  C   UNL     1      -7.756   2.346  68.466  1.00  0.00    -0.054 C  
HETATM   29  O   UNL     1      -7.570   1.650  67.325  1.00  0.00    -0.058 OA 
HETATM   30  O   UNL     1      -8.125   1.802  69.497  1.00  0.00    -0.045 OA 
ENDBRANCH  15  16
ENDBRANCH   5  15
TORSDOF 2
ENDMDL
MODEL      190
REMARK 921   NORMALIZED FREE ENERGY PREDICTED BY IDOCK:   -3.92 KCAL/MOL
REMARK 922        TOTAL FREE ENERGY PREDICTED BY IDOCK:   -5.09 KCAL/MOL
REMARK 923 INTER-LIGAND FREE ENERGY PREDICTED BY IDOCK:   -4.44 KCAL/MOL
REMARK 924 INTRA-LIGAND FREE ENERGY PREDICTED BY IDOCK:   -0.64 KCAL/MOL
REMARK 927      BINDING AFFINITY PREDICTED BY RF-SCORE:    0.00 PKD
ROOT
HETATM    1  O   UNL     1      -7.244   6.377  73.408  1.00  0.00    -0.082 OA 
HETATM    2  C   UNL     1      -8.679   6.503  73.441  1.00  0.00    -0.123 C  
HETATM    3  H   UNL     1      -7.010   5.564  73.839  1.00  0.00     0.000 HD 
HETATM    4  C   UNL     1      -9.056   7.819  72.743  1.00  0.00    -0.186 C  
HETATM    5  C   UNL     1      -8.868   7.702  71.200  1.00  0.00    -0.137 C  
HETATM    6  O   UNL     1      -8.264   8.841  73.375  1.00  0.00    -0.389 OA 
HETATM    7  O   UNL     1      -9.070   2.935  70.820  1.00  0.00    -0.096 OA 
HETATM    8  H   UNL     1      -8.498   9.654  72.943  1.00  0.00     0.000 HD 
HETATM    9  O   UNL     1      -9.550   6.531  70.693  1.00  0.00    -0.171 OA 
HETATM   10  C   UNL     1      -8.980   5.335  71.271  1.00  0.00    -0.140 C  
HETATM   11  O   UNL     1     -10.228   4.343  69.477  1.00  0.00    -0.115 OA 
HETATM   12  P   UNL     1     -11.122   5.126  73.144  1.00  0.00    -0.301 P  
HETATM   13  C   UNL     1      -9.287   5.267  72.771  1.00  0.00    -0.139 C  
HETATM   14  C   UNL     1      -9.417   4.071  70.536  1.00  0.00    -0.178 C  
ENDROOT
BRANCH   5  15
HETATM   15  O   UNL     1      -9.351   8.847  70.467  1.00  0.00    -0.171 OA 
BRANCH  15  16
HETATM   16  C   UNL     1      -8.463   9.396  69.457  1.00  0.00    -0.152 C  
HETATM   17  O   UNL     1      -8.085   7.258  68.259  1.00  0.00    -0.121 OA 
HETATM   18  C   UNL     1      -8.511   8.624  68.129  1.00  0.00    -0.131 C  
HETATM   19  C   UNL     1      -9.942   8.684  67.600  1.00  0.00    -0.194 C  
HETATM   20  O   UNL     1     -10.063   7.753  66.519  1.00  0.00    -0.398 OA 
HETATM   21  H   UNL     1      -8.114   6.780  67.438  1.00  0.00     0.000 HD 
HETATM   22  C   UNL     1     -10.263  10.154  67.256  1.00  0.00    -0.222 C  
HETATM   23  O   UNL     1     -10.085  11.009  68.400  1.00  0.00    -0.170 OA 
HETATM   24  O   UNL     1      -9.459  10.670  66.188  1.00  0.00    -0.169 OA 
HETATM   25  H   UNL     1     -10.953   7.789  66.190  1.00  0.00     0.000 HD 
HETATM   26  C   UNL     1      -8.879  10.859  69.171  1.00  0.00    -0.037 C  
HETATM   27  P   UNL     1      -9.782  10.226  64.659  1.00  0.00    -0.277 P  
HETATM   28  C   UNL     1      -7.660  11.638  68.642  1.00  0.00    -0.133 C  
HETATM   29  O   UNL     1      -7.935  12.451  67.601  1.00  0.00    -0.140 OA 
HETATM   30  O   UNL     1      -6.535  11.560  69.115  1.00  0.00    -0.074 OA 
ENDBRANCH  15  16
ENDBRANCH   5  15
TORSDOF 2
ENDMDL
MODEL      191
REMARK 921   NORMALIZED FREE ENERGY PREDICTED BY IDOCK:   -3.92 KCAL/MOL
REMARK 922        TOTAL FREE ENERGY PREDICTED BY IDOCK:   -5.08 KCAL/MOL
REMARK 923 INTER-LIGAND FREE ENERGY PREDICTED BY IDOCK:   -4.21 KCAL/MOL
REMARK 924 INTRA-LIGAND FREE ENERGY PREDICTED BY IDOCK:   -0.87 KCAL/MOL
REMARK 927      BINDING AFFINITY PREDICTED BY RF-SCORE:    0.00 PKD
ROOT
HETATM    1  O   UNL     1     -11.553  16.956  68.912  1.00  0.00    -0.094 OA 
HETATM    2  C   UNL     1     -12.525  15.942  69.235  1.00  0.00     0.287 C  
HETATM    3  H   UNL     1     -11.882  17.789  69.226  1.00  0.00     0.000 HD 
HETATM    4  C   UNL     1     -11.992  14.593  68.727  1.00  0.00    -0.266 C  
HETATM    5  C   UNL     1     -10.820  14.087  69.623  1.00  0.00     0.030 C  
HETATM    6  O   UNL     1     -11.650  14.800  67.344  1.00  0.00    -0.353 OA 
HETATM    7  O   UNL     1     -11.807  16.610  73.570  1.00  0.00    -0.382 OA 
HETATM    8  H   UNL     1     -11.321  13.966  67.031  1.00  0.00     0.000 HD 
HETATM    9  O   UNL     1     -11.207  14.099  71.018  1.00  0.00     0.192 OA 
HETATM   10  C   UNL     1     -11.499  15.450  71.441  1.00  0.00    -0.406 C  
HETATM   11  O   UNL     1     -11.338  14.395  73.591  1.00  0.00     0.724 OA 
HETATM   12  P   UNL     1     -14.306  15.001  71.208  1.00  0.00    -0.186 P  
HETATM   13  C   UNL     1     -12.764  15.967  70.747  1.00  0.00    -0.159 C  
HETATM   14  C   UNL     1     -11.582  15.576  72.960  1.00  0.00    -0.263 C  
ENDROOT
BRANCH   5  15
HETATM   15  O   UNL     1     -10.374  12.755  69.299  1.00  0.00     0.096 OA 
BRANCH  15  16
HETATM   16  C   UNL     1     -11.375  11.703  69.344  1.00  0.00    -0.278 C  
HETATM   17  O   UNL     1     -11.905  11.751  66.922  1.00  0.00    -0.591 OA 
HETATM   18  C   UNL     1     -11.491  10.925  68.023  1.00  0.00    -0.281 C  
HETATM   19  C   UNL     1     -10.135  10.291  67.728  1.00  0.00    -0.180 C  
HETATM   20  O   UNL     1     -10.150   9.798  66.384  1.00  0.00    -0.233 OA 
HETATM   21  H   UNL     1     -11.977  11.271  66.105  1.00  0.00     0.000 HD 
HETATM   22  C   UNL     1      -9.851   9.240  68.823  1.00  0.00    -0.165 C  
HETATM   23  O   UNL     1      -9.886   9.831  70.135  1.00  0.00    -0.240 OA 
HETATM   24  O   UNL     1     -10.776   8.146  68.805  1.00  0.00    -0.159 OA 
HETATM   25  H   UNL     1      -9.306   9.403  66.200  1.00  0.00     0.000 HD 
HETATM   26  C   UNL     1     -10.990  10.696  70.455  1.00  0.00    -0.086 C  
HETATM   27  P   UNL     1     -10.643   7.005  67.656  1.00  0.00    -0.265 P  
HETATM   28  C   UNL     1     -12.260   9.983  70.954  1.00  0.00    -0.346 C  
HETATM   29  O   UNL     1     -12.110   8.655  71.141  1.00  0.00    -0.291 OA 
HETATM   30  O   UNL     1     -13.320  10.547  71.187  1.00  0.00    -0.317 OA 
ENDBRANCH  15  16
ENDBRANCH   5  15
TORSDOF 2
ENDMDL
MODEL      192
REMARK 921   NORMALIZED FREE ENERGY PREDICTED BY IDOCK:   -3.88 KCAL/MOL
REMARK 922        TOTAL FREE ENERGY PREDICTED BY IDOCK:   -5.04 KCAL/MOL
REMARK 923 INTER-LIGAND FREE ENERGY PREDICTED BY IDOCK:   -4.11 KCAL/MOL
REMARK 924 INTRA-LIGAND FREE ENERGY PREDICTED BY IDOCK:   -0.93 KCAL/MOL
REMARK 927      BINDING AFFINITY PREDICTED BY RF-SCORE:    0.00 PKD
ROOT
HETATM    1  O   UNL     1     -10.019   6.289  74.289  1.00  0.00    -0.242 OA 
HETATM    2  C   UNL     1     -10.664   5.096  73.802  1.00  0.00    -0.299 C  
HETATM    3  H   UNL     1      -9.726   6.124  75.177  1.00  0.00     0.000 HD 
HETATM    4  C   UNL     1     -11.138   5.364  72.366  1.00  0.00    -0.229 C  
HETATM    5  C   UNL     1      -9.931   5.395  71.379  1.00  0.00    -0.184 C  
HETATM    6  O   UNL     1     -11.903   6.581  72.424  1.00  0.00    -0.412 OA 
HETATM    7  O   UNL     1      -6.804   2.904  74.011  1.00  0.00    -0.032 OA 
HETATM    8  H   UNL     1     -12.197   6.747  71.536  1.00  0.00     0.000 HD 
HETATM    9  O   UNL     1      -9.117   4.209  71.537  1.00  0.00    -0.114 OA 
HETATM   10  C   UNL     1      -8.561   4.161  72.870  1.00  0.00    -0.100 C  
HETATM   11  O   UNL     1      -7.186   2.500  71.816  1.00  0.00    -0.037 OA 
HETATM   12  P   UNL     1     -10.536   2.280  73.709  1.00  0.00    -0.181 P  
HETATM   13  C   UNL     1      -9.670   3.935  73.904  1.00  0.00    -0.107 C  
HETATM   14  C   UNL     1      -7.441   3.132  72.994  1.00  0.00    -0.051 C  
ENDROOT
BRANCH   5  15
HETATM   15  O   UNL     1     -10.315   5.487  69.993  1.00  0.00    -0.239 OA 
BRANCH  15  16
HETATM   16  C   UNL     1      -9.288   5.913  69.058  1.00  0.00    -0.123 C  
HETATM   17  O   UNL     1      -8.097   3.739  68.978  1.00  0.00    -0.058 OA 
HETATM   18  C   UNL     1      -8.740   4.762  68.199  1.00  0.00    -0.102 C  
HETATM   19  C   UNL     1      -9.902   4.171  67.405  1.00  0.00    -0.101 C  
HETATM   20  O   UNL     1      -9.467   2.941  66.816  1.00  0.00    -0.363 OA 
HETATM   21  H   UNL     1      -7.759   3.027  68.448  1.00  0.00     0.000 HD 
HETATM   22  C   UNL     1     -10.400   5.247  66.417  1.00  0.00    -0.268 C  
HETATM   23  O   UNL     1     -10.786   6.451  67.106  1.00  0.00    -0.311 OA 
HETATM   24  O   UNL     1      -9.424   5.597  65.428  1.00  0.00     0.011 OA 
HETATM   25  H   UNL     1     -10.190   2.573  66.322  1.00  0.00     0.000 HD 
HETATM   26  C   UNL     1      -9.890   6.972  68.103  1.00  0.00    -0.139 C  
HETATM   27  P   UNL     1      -9.134   4.578  64.195  1.00  0.00    -0.043 P  
HETATM   28  C   UNL     1      -8.761   7.872  67.568  1.00  0.00    -0.125 C  
HETATM   29  O   UNL     1      -8.852   8.144  66.250  1.00  0.00    -0.146 OA 
HETATM   30  O   UNL     1      -7.860   8.329  68.256  1.00  0.00    -0.114 OA 
ENDBRANCH  15  16
ENDBRANCH   5  15
TORSDOF 2
ENDMDL
MODEL      193
REMARK 921   NORMALIZED FREE ENERGY PREDICTED BY IDOCK:   -3.86 KCAL/MOL
REMARK 922        TOTAL FREE ENERGY PREDICTED BY IDOCK:   -5.02 KCAL/MOL
REMARK 923 INTER-LIGAND FREE ENERGY PREDICTED BY IDOCK:   -4.09 KCAL/MOL
REMARK 924 INTRA-LIGAND FREE ENERGY PREDICTED BY IDOCK:   -0.92 KCAL/MOL
REMARK 927      BINDING AFFINITY PREDICTED BY RF-SCORE:    0.00 PKD
ROOT
HETATM    1  O   UNL     1      -5.994  12.089  66.166  1.00  0.00    -0.422 OA 
HETATM    2  C   UNL     1      -5.633  10.740  66.523  1.00  0.00    -0.085 C  
HETATM    3  H   UNL     1      -5.561  12.303  65.349  1.00  0.00     0.000 HD 
HETATM    4  C   UNL     1      -6.334  10.394  67.845  1.00  0.00    -0.060 C  
HETATM    5  C   UNL     1      -7.862  10.175  67.623  1.00  0.00    -0.098 C  
HETATM    6  O   UNL     1      -6.001  11.456  68.757  1.00  0.00    -0.043 OA 
HETATM    7  O   UNL     1      -7.763   9.205  62.937  1.00  0.00    -0.110 OA 
HETATM    8  H   UNL     1      -6.434  11.242  69.575  1.00  0.00     0.000 HD 
HETATM    9  O   UNL     1      -8.088   9.229  66.552  1.00  0.00    -0.103 OA 
HETATM   10  C   UNL     1      -7.559   9.747  65.310  1.00  0.00    -0.119 C  
HETATM   11  O   UNL     1      -8.911   7.964  64.442  1.00  0.00     0.263 OA 
HETATM   12  P   UNL     1      -5.220   8.128  65.542  1.00  0.00    -0.032 P  
HETATM   13  C   UNL     1      -6.028   9.814  65.368  1.00  0.00    -0.072 C  
HETATM   14  C   UNL     1      -8.055   8.965  64.098  1.00  0.00    -0.160 C  
ENDROOT
BRANCH   5  15
HETATM   15  O   UNL     1      -8.557   9.696  68.791  1.00  0.00    -0.119 OA 
BRANCH  15  16
HETATM   16  C   UNL     1     -10.002   9.845  68.798  1.00  0.00    -0.173 C  
HETATM   17  O   UNL     1     -10.465   7.914  67.311  1.00  0.00    -0.275 OA 
HETATM   18  C   UNL     1     -10.746   8.516  68.586  1.00  0.00    -0.041 C  
HETATM   19  C   UNL     1     -10.351   7.569  69.716  1.00  0.00    -0.221 C  
HETATM   20  O   UNL     1     -10.816   6.255  69.387  1.00  0.00    -0.266 OA 
HETATM   21  H   UNL     1     -10.925   7.094  67.180  1.00  0.00     0.000 HD 
HETATM   22  C   UNL     1     -10.887   8.156  71.039  1.00  0.00    -0.235 C  
HETATM   23  O   UNL     1     -10.383   9.486  71.262  1.00  0.00    -0.312 OA 
HETATM   24  O   UNL     1     -12.318   8.210  71.092  1.00  0.00    -0.294 OA 
HETATM   25  H   UNL     1     -10.570   5.666  70.090  1.00  0.00     0.000 HD 
HETATM   26  C   UNL     1     -10.437  10.418  70.168  1.00  0.00    -0.128 C  
HETATM   27  P   UNL     1     -13.160   6.843  71.341  1.00  0.00     0.034 P  
HETATM   28  C   UNL     1     -11.775  11.162  70.003  1.00  0.00    -0.356 C  
HETATM   29  O   UNL     1     -12.664  10.923  70.990  1.00  0.00    -0.363 OA 
HETATM   30  O   UNL     1     -12.032  11.922  69.080  1.00  0.00    -0.306 OA 
ENDBRANCH  15  16
ENDBRANCH   5  15
TORSDOF 2
ENDMDL
MODEL      194
REMARK 921   NORMALIZED FREE ENERGY PREDICTED BY IDOCK:   -3.85 KCAL/MOL
REMARK 922        TOTAL FREE ENERGY PREDICTED BY IDOCK:   -5.01 KCAL/MOL
REMARK 923 INTER-LIGAND FREE ENERGY PREDICTED BY IDOCK:   -4.26 KCAL/MOL
REMARK 924 INTRA-LIGAND FREE ENERGY PREDICTED BY IDOCK:   -0.75 KCAL/MOL
REMARK 927      BINDING AFFINITY PREDICTED BY RF-SCORE:    0.00 PKD
ROOT
HETATM    1  O   UNL     1      -6.910  10.499  68.169  1.00  0.00    -0.070 OA 
HETATM    2  C   UNL     1      -7.821   9.867  67.248  1.00  0.00    -0.102 C  
HETATM    3  H   UNL     1      -6.601  11.304  67.771  1.00  0.00     0.000 HD 
HETATM    4  C   UNL     1      -8.320   8.565  67.892  1.00  0.00    -0.126 C  
HETATM    5  C   UNL     1      -9.325   8.866  69.047  1.00  0.00    -0.144 C  
HETATM    6  O   UNL     1      -7.140   7.844  68.290  1.00  0.00    -0.083 OA 
HETATM    7  O   UNL     1     -10.653  13.263  67.701  1.00  0.00    -0.232 OA 
HETATM    8  H   UNL     1      -7.449   7.039  68.688  1.00  0.00     0.000 HD 
HETATM    9  O   UNL     1     -10.371   9.755  68.589  1.00  0.00    -0.186 OA 
HETATM   10  C   UNL     1      -9.806  11.024  68.191  1.00  0.00    -0.176 C  
HETATM   11  O   UNL     1     -12.120  11.649  68.309  1.00  0.00    -0.552 OA 
HETATM   12  P   UNL     1      -9.935  10.304  65.433  1.00  0.00    -0.244 P  
HETATM   13  C   UNL     1      -8.948  10.856  66.932  1.00  0.00    -0.151 C  
HETATM   14  C   UNL     1     -10.870  12.104  68.022  1.00  0.00    -0.222 C  
ENDROOT
BRANCH   5  15
HETATM   15  O   UNL     1      -9.952   7.688  69.593  1.00  0.00    -0.180 OA 
BRANCH  15  16
HETATM   16  C   UNL     1      -9.735   7.429  71.005  1.00  0.00    -0.164 C  
HETATM   17  O   UNL     1     -11.645   5.869  71.276  1.00  0.00    -0.203 OA 
HETATM   18  C   UNL     1     -10.228   6.041  71.446  1.00  0.00    -0.206 C  
HETATM   19  C   UNL     1      -9.467   4.992  70.639  1.00  0.00    -0.169 C  
HETATM   20  O   UNL     1     -10.099   3.723  70.839  1.00  0.00    -0.105 OA 
HETATM   21  H   UNL     1     -11.950   5.012  71.548  1.00  0.00     0.000 HD 
HETATM   22  C   UNL     1      -7.979   5.068  71.040  1.00  0.00    -0.093 C  
HETATM   23  O   UNL     1      -7.447   6.389  70.827  1.00  0.00    -0.083 OA 
HETATM   24  O   UNL     1      -7.746   4.713  72.409  1.00  0.00    -0.083 OA 
HETATM   25  H   UNL     1      -9.627   3.071  70.336  1.00  0.00     0.000 HD 
HETATM   26  C   UNL     1      -8.217   7.508  71.299  1.00  0.00    -0.100 C  
HETATM   27  P   UNL     1      -7.800   3.150  72.848  1.00  0.00    -0.057 P  
HETATM   28  C   UNL     1      -8.007   7.873  72.780  1.00  0.00    -0.133 C  
HETATM   29  O   UNL     1      -7.032   7.166  73.389  1.00  0.00    -0.072 OA 
HETATM   30  O   UNL     1      -8.640   8.735  73.374  1.00  0.00    -0.320 OA 
ENDBRANCH  15  16
ENDBRANCH   5  15
TORSDOF 2
ENDMDL
MODEL      195
REMARK 921   NORMALIZED FREE ENERGY PREDICTED BY IDOCK:   -3.84 KCAL/MOL
REMARK 922        TOTAL FREE ENERGY PREDICTED BY IDOCK:   -4.99 KCAL/MOL
REMARK 923 INTER-LIGAND FREE ENERGY PREDICTED BY IDOCK:   -4.46 KCAL/MOL
REMARK 924 INTRA-LIGAND FREE ENERGY PREDICTED BY IDOCK:   -0.54 KCAL/MOL
REMARK 927      BINDING AFFINITY PREDICTED BY RF-SCORE:    0.00 PKD
ROOT
HETATM    1  O   UNL     1      -9.642   3.645  70.455  1.00  0.00    -0.177 OA 
HETATM    2  C   UNL     1      -8.431   4.337  70.821  1.00  0.00    -0.078 C  
HETATM    3  H   UNL     1      -9.945   3.161  71.214  1.00  0.00     0.000 HD 
HETATM    4  C   UNL     1      -7.941   5.119  69.593  1.00  0.00    -0.079 C  
HETATM    5  C   UNL     1      -8.848   6.360  69.327  1.00  0.00    -0.128 C  
HETATM    6  O   UNL     1      -7.886   4.167  68.516  1.00  0.00    -0.072 OA 
HETATM    7  O   UNL     1     -10.712   6.827  73.711  1.00  0.00    -0.325 OA 
HETATM    8  H   UNL     1      -7.583   4.651  67.757  1.00  0.00     0.000 HD 
HETATM    9  O   UNL     1      -8.993   7.150  70.531  1.00  0.00    -0.153 OA 
HETATM   10  C   UNL     1      -9.645   6.373  71.561  1.00  0.00    -0.158 C  
HETATM   11  O   UNL     1      -9.860   8.559  72.527  1.00  0.00    -0.290 OA 
HETATM   12  P   UNL     1      -7.153   5.833  72.841  1.00  0.00    -0.087 P  
HETATM   13  C   UNL     1      -8.735   5.232  72.027  1.00  0.00    -0.130 C  
HETATM   14  C   UNL     1     -10.125   7.238  72.722  1.00  0.00    -0.210 C  
ENDROOT
BRANCH   5  15
HETATM   15  O   UNL     1      -8.357   7.226  68.285  1.00  0.00    -0.123 OA 
BRANCH  15  16
HETATM   16  C   UNL     1      -8.876   6.997  66.948  1.00  0.00    -0.124 C  
HETATM   17  O   UNL     1     -11.110   7.990  67.366  1.00  0.00    -0.486 OA 
HETATM   18  C   UNL     1      -9.941   8.024  66.530  1.00  0.00    -0.213 C  
HETATM   19  C   UNL     1      -9.301   9.409  66.571  1.00  0.00    -0.171 C  
HETATM   20  O   UNL     1     -10.339  10.389  66.451  1.00  0.00    -0.236 OA 
HETATM   21  H   UNL     1     -11.768   8.625  67.108  1.00  0.00     0.000 HD 
HETATM   22  C   UNL     1      -8.205   9.461  65.486  1.00  0.00    -0.126 C  
HETATM   23  O   UNL     1      -7.229   8.421  65.680  1.00  0.00    -0.073 OA 
HETATM   24  O   UNL     1      -8.723   9.338  64.156  1.00  0.00    -0.201 OA 
HETATM   25  H   UNL     1      -9.941  11.251  66.477  1.00  0.00     0.000 HD 
HETATM   26  C   UNL     1      -7.707   7.089  65.937  1.00  0.00    -0.101 C  
HETATM   27  P   UNL     1      -9.478  10.605  63.473  1.00  0.00    -0.355 P  
HETATM   28  C   UNL     1      -8.054   6.261  64.686  1.00  0.00    -0.115 C  
HETATM   29  O   UNL     1      -7.737   6.865  63.521  1.00  0.00    -0.099 OA 
HETATM   30  O   UNL     1      -8.555   5.146  64.714  1.00  0.00    -0.146 OA 
ENDBRANCH  15  16
ENDBRANCH   5  15
TORSDOF 2
ENDMDL
MODEL      196
REMARK 921   NORMALIZED FREE ENERGY PREDICTED BY IDOCK:   -3.83 KCAL/MOL
REMARK 922        TOTAL FREE ENERGY PREDICTED BY IDOCK:   -4.99 KCAL/MOL
REMARK 923 INTER-LIGAND FREE ENERGY PREDICTED BY IDOCK:   -5.63 KCAL/MOL
REMARK 924 INTRA-LIGAND FREE ENERGY PREDICTED BY IDOCK:    0.64 KCAL/MOL
REMARK 927      BINDING AFFINITY PREDICTED BY RF-SCORE:    0.00 PKD
ROOT
HETATM    1  O   UNL     1     -12.434  12.484  65.962  1.00  0.00    -0.565 OA 
HETATM    2  C   UNL     1     -12.285  13.142  67.236  1.00  0.00    -0.177 C  
HETATM    3  H   UNL     1     -12.801  13.110  65.349  1.00  0.00     0.000 HD 
HETATM    4  C   UNL     1     -11.691  12.129  68.227  1.00  0.00    -0.342 C  
HETATM    5  C   UNL     1     -10.184  11.870  67.920  1.00  0.00    -0.193 C  
HETATM    6  O   UNL     1     -12.533  10.964  68.151  1.00  0.00    -0.415 OA 
HETATM    7  O   UNL     1      -9.259  15.885  65.484  1.00  0.00    -0.323 OA 
HETATM    8  H   UNL     1     -12.165  10.338  68.764  1.00  0.00     0.000 HD 
HETATM    9  O   UNL     1      -9.463  13.122  67.828  1.00  0.00    -0.194 OA 
HETATM   10  C   UNL     1      -9.979  13.913  66.734  1.00  0.00    -0.269 C  
HETATM   11  O   UNL     1      -7.934  15.101  67.143  1.00  0.00    -0.193 OA 
HETATM   12  P   UNL     1     -11.508  15.528  68.521  1.00  0.00    -0.334 P  
HETATM   13  C   UNL     1     -11.406  14.381  67.039  1.00  0.00    -0.346 C  
HETATM   14  C   UNL     1      -9.057  15.075  66.375  1.00  0.00    -0.277 C  
ENDROOT
BRANCH   5  15
HETATM   15  O   UNL     1      -9.523  11.050  68.903  1.00  0.00    -0.195 OA 
BRANCH  15  16
HETATM   16  C   UNL     1      -8.903   9.827  68.423  1.00  0.00    -0.120 C  
HETATM   17  O   UNL     1     -10.974   8.848  67.471  1.00  0.00    -0.475 OA 
HETATM   18  C   UNL     1      -9.616   9.231  67.198  1.00  0.00    -0.159 C  
HETATM   19  C   UNL     1      -9.574  10.267  66.078  1.00  0.00    -0.206 C  
HETATM   20  O   UNL     1     -10.458   9.841  65.035  1.00  0.00    -0.074 OA 
HETATM   21  H   UNL     1     -11.415   8.480  66.715  1.00  0.00     0.000 HD 
HETATM   22  C   UNL     1      -8.099  10.464  65.665  1.00  0.00    -0.156 C  
HETATM   23  O   UNL     1      -7.292  10.864  66.788  1.00  0.00    -0.119 OA 
HETATM   24  O   UNL     1      -7.513   9.287  65.095  1.00  0.00    -0.101 OA 
HETATM   25  H   UNL     1     -10.432  10.486  64.339  1.00  0.00     0.000 HD 
HETATM   26  C   UNL     1      -7.441  10.134  68.018  1.00  0.00    -0.087 C  
HETATM   27  P   UNL     1      -7.896   8.860  63.575  1.00  0.00    -0.156 P  
HETATM   28  C   UNL     1      -6.606   8.845  68.124  1.00  0.00    -0.061 C  
HETATM   29  O   UNL     1      -5.755   8.654  67.095  1.00  0.00    -0.041 OA 
HETATM   30  O   UNL     1      -6.672   8.055  69.056  1.00  0.00    -0.050 OA 
ENDBRANCH  15  16
ENDBRANCH   5  15
TORSDOF 2
ENDMDL
MODEL      197
REMARK 921   NORMALIZED FREE ENERGY PREDICTED BY IDOCK:   -3.83 KCAL/MOL
REMARK 922        TOTAL FREE ENERGY PREDICTED BY IDOCK:   -4.98 KCAL/MOL
REMARK 923 INTER-LIGAND FREE ENERGY PREDICTED BY IDOCK:   -6.12 KCAL/MOL
REMARK 924 INTRA-LIGAND FREE ENERGY PREDICTED BY IDOCK:    1.14 KCAL/MOL
REMARK 927      BINDING AFFINITY PREDICTED BY RF-SCORE:    0.00 PKD
ROOT
HETATM    1  O   UNL     1      -6.876  17.496  70.200  1.00  0.00     0.420 OA 
HETATM    2  C   UNL     1      -6.879  16.998  68.847  1.00  0.00    -0.211 C  
HETATM    3  H   UNL     1      -6.119  18.059  70.304  1.00  0.00     0.000 HD 
HETATM    4  C   UNL     1      -8.104  16.086  68.679  1.00  0.00    -0.187 C  
HETATM    5  C   UNL     1      -9.417  16.925  68.621  1.00  0.00    -0.268 C  
HETATM    6  O   UNL     1      -8.039  15.136  69.758  1.00  0.00    -0.365 OA 
HETATM    7  O   UNL     1      -7.519  21.120  67.315  1.00  0.00    -0.412 OA 
HETATM    8  H   UNL     1      -8.796  14.572  69.654  1.00  0.00     0.000 HD 
HETATM    9  O   UNL     1      -9.304  17.976  67.633  1.00  0.00    -0.256 OA 
HETATM   10  C   UNL     1      -8.244  18.889  67.997  1.00  0.00    -0.293 C  
HETATM   11  O   UNL     1      -9.342  20.214  66.324  1.00  0.00    -0.367 OA 
HETATM   12  P   UNL     1      -6.451  17.671  66.142  1.00  0.00    -0.193 P  
HETATM   13  C   UNL     1      -6.881  18.196  67.893  1.00  0.00    -0.211 C  
HETATM   14  C   UNL     1      -8.294  20.184  67.192  1.00  0.00    -0.337 C  
ENDROOT
BRANCH   5  15
HETATM   15  O   UNL     1     -10.590  16.147  68.309  1.00  0.00    -0.263 OA 
BRANCH  15  16
HETATM   16  C   UNL     1     -10.380  14.742  68.009  1.00  0.00    -0.237 C  
HETATM   17  O   UNL     1     -12.738  14.052  68.356  1.00  0.00    -0.232 OA 
HETATM   18  C   UNL     1     -11.631  14.054  67.438  1.00  0.00    -0.368 C  
HETATM   19  C   UNL     1     -12.016  14.772  66.147  1.00  0.00    -0.149 C  
HETATM   20  O   UNL     1     -13.318  14.325  65.753  1.00  0.00    -0.632 OA 
HETATM   21  H   UNL     1     -13.511  13.628  68.004  1.00  0.00     0.000 HD 
HETATM   22  C   UNL     1     -10.890  14.540  65.118  1.00  0.00    -0.395 C  
HETATM   23  O   UNL     1      -9.621  14.998  65.621  1.00  0.00    -0.333 OA 
HETATM   24  O   UNL     1     -10.747  13.165  64.741  1.00  0.00    -0.323 OA 
HETATM   25  H   UNL     1     -13.558  14.772  64.950  1.00  0.00     0.000 HD 
HETATM   26  C   UNL     1      -9.251  14.619  66.958  1.00  0.00    -0.239 C  
HETATM   27  P   UNL     1     -11.829  12.498  63.729  1.00  0.00    -0.575 P  
HETATM   28  C   UNL     1      -8.585  13.237  67.090  1.00  0.00    -0.193 C  
HETATM   29  O   UNL     1      -8.330  12.634  65.910  1.00  0.00     0.662 OA 
HETATM   30  O   UNL     1      -8.286  12.714  68.155  1.00  0.00    -0.162 OA 
ENDBRANCH  15  16
ENDBRANCH   5  15
TORSDOF 2
ENDMDL
MODEL      198
REMARK 921   NORMALIZED FREE ENERGY PREDICTED BY IDOCK:   -3.81 KCAL/MOL
REMARK 922        TOTAL FREE ENERGY PREDICTED BY IDOCK:   -4.96 KCAL/MOL
REMARK 923 INTER-LIGAND FREE ENERGY PREDICTED BY IDOCK:   -4.47 KCAL/MOL
REMARK 924 INTRA-LIGAND FREE ENERGY PREDICTED BY IDOCK:   -0.49 KCAL/MOL
REMARK 927      BINDING AFFINITY PREDICTED BY RF-SCORE:    0.00 PKD
ROOT
HETATM    1  O   UNL     1     -10.443   8.784  72.476  1.00  0.00    -0.255 OA 
HETATM    2  C   UNL     1     -10.098   7.931  71.366  1.00  0.00    -0.176 C  
HETATM    3  H   UNL     1     -10.301   8.295  73.277  1.00  0.00     0.000 HD 
HETATM    4  C   UNL     1     -10.328   8.722  70.069  1.00  0.00    -0.203 C  
HETATM    5  C   UNL     1      -9.227   9.810  69.880  1.00  0.00    -0.234 C  
HETATM    6  O   UNL     1     -11.673   9.229  70.151  1.00  0.00    -0.455 OA 
HETATM    7  O   UNL     1      -5.855   7.902  72.690  1.00  0.00    -0.040 OA 
HETATM    8  H   UNL     1     -11.815   9.718  69.349  1.00  0.00     0.000 HD 
HETATM    9  O   UNL     1      -7.910   9.226  70.006  1.00  0.00    -0.087 OA 
HETATM   10  C   UNL     1      -7.732   8.683  71.334  1.00  0.00    -0.122 C  
HETATM   11  O   UNL     1      -5.446   8.678  70.602  1.00  0.00    -0.027 OA 
HETATM   12  P   UNL     1      -8.245   6.034  70.406  1.00  0.00    -0.118 P  
HETATM   13  C   UNL     1      -8.647   7.472  71.544  1.00  0.00    -0.116 C  
HETATM   14  C   UNL     1      -6.271   8.361  71.637  1.00  0.00    -0.052 C  
ENDROOT
BRANCH   5  15
HETATM   15  O   UNL     1      -9.291  10.486  68.608  1.00  0.00    -0.156 OA 
BRANCH  15  16
HETATM   16  C   UNL     1      -9.673   9.682  67.460  1.00  0.00    -0.158 C  
HETATM   17  O   UNL     1     -11.364  11.272  66.585  1.00  0.00    -0.338 OA 
HETATM   18  C   UNL     1     -10.176  10.524  66.276  1.00  0.00    -0.235 C  
HETATM   19  C   UNL     1      -9.052  11.466  65.855  1.00  0.00    -0.198 C  
HETATM   20  O   UNL     1      -9.589  12.431  64.944  1.00  0.00    -0.461 OA 
HETATM   21  H   UNL     1     -11.676  11.792  65.854  1.00  0.00     0.000 HD 
HETATM   22  C   UNL     1      -7.890  10.609  65.310  1.00  0.00    -0.041 C  
HETATM   23  O   UNL     1      -7.442   9.654  66.290  1.00  0.00    -0.096 OA 
HETATM   24  O   UNL     1      -8.230   9.892  64.117  1.00  0.00    -0.140 OA 
HETATM   25  H   UNL     1      -8.890  13.018  64.682  1.00  0.00     0.000 HD 
HETATM   26  C   UNL     1      -8.439   8.880  66.981  1.00  0.00    -0.112 C  
HETATM   27  P   UNL     1      -8.321  10.690  62.705  1.00  0.00    -0.173 P  
HETATM   28  C   UNL     1      -8.913   7.613  66.246  1.00  0.00    -0.169 C  
HETATM   29  O   UNL     1      -8.229   7.343  65.115  1.00  0.00    -0.131 OA 
HETATM   30  O   UNL     1      -9.814   6.885  66.639  1.00  0.00    -0.181 OA 
ENDBRANCH  15  16
ENDBRANCH   5  15
TORSDOF 2
ENDMDL
MODEL      199
REMARK 921   NORMALIZED FREE ENERGY PREDICTED BY IDOCK:   -3.80 KCAL/MOL
REMARK 922        TOTAL FREE ENERGY PREDICTED BY IDOCK:   -4.96 KCAL/MOL
REMARK 923 INTER-LIGAND FREE ENERGY PREDICTED BY IDOCK:   -4.38 KCAL/MOL
REMARK 924 INTRA-LIGAND FREE ENERGY PREDICTED BY IDOCK:   -0.58 KCAL/MOL
REMARK 927      BINDING AFFINITY PREDICTED BY RF-SCORE:    0.00 PKD
ROOT
HETATM    1  O   UNL     1      -5.758   6.774  68.587  1.00  0.00    -0.016 OA 
HETATM    2  C   UNL     1      -5.484   8.049  69.201  1.00  0.00    -0.030 C  
HETATM    3  H   UNL     1      -5.292   6.106  69.075  1.00  0.00     0.000 HD 
HETATM    4  C   UNL     1      -6.238   9.129  68.410  1.00  0.00    -0.053 C  
HETATM    5  C   UNL     1      -7.770   9.057  68.694  1.00  0.00    -0.096 C  
HETATM    6  O   UNL     1      -5.867   8.940  67.033  1.00  0.00    -0.045 OA 
HETATM    7  O   UNL     1      -7.607   6.747  72.882  1.00  0.00    -0.093 OA 
HETATM    8  H   UNL     1      -6.333   9.608  66.544  1.00  0.00     0.000 HD 
HETATM    9  O   UNL     1      -8.023   9.063  70.119  1.00  0.00    -0.090 OA 
HETATM   10  C   UNL     1      -7.433   7.895  70.733  1.00  0.00    -0.072 C  
HETATM   11  O   UNL     1      -8.863   8.597  72.527  1.00  0.00    -0.356 OA 
HETATM   12  P   UNL     1      -5.198   9.412  71.654  1.00  0.00    -0.069 P  
HETATM   13  C   UNL     1      -5.903   7.974  70.673  1.00  0.00    -0.029 C  
HETATM   14  C   UNL     1      -7.942   7.667  72.153  1.00  0.00    -0.105 C  
ENDROOT
BRANCH   5  15
HETATM   15  O   UNL     1      -8.521  10.139  68.107  1.00  0.00    -0.116 OA 
BRANCH  15  16
HETATM   16  C   UNL     1      -9.164   9.870  66.833  1.00  0.00    -0.147 C  
HETATM   17  O   UNL     1     -11.386   9.307  67.782  1.00  0.00    -0.421 OA 
HETATM   18  C   UNL     1     -10.677  10.144  66.852  1.00  0.00    -0.161 C  
HETATM   19  C   UNL     1     -10.886  11.615  67.199  1.00  0.00    -0.261 C  
HETATM   20  O   UNL     1     -12.274  11.819  67.486  1.00  0.00    -0.526 OA 
HETATM   21  H   UNL     1     -12.320   9.475  67.794  1.00  0.00     0.000 HD 
HETATM   22  C   UNL     1     -10.310  12.464  66.046  1.00  0.00    -0.251 C  
HETATM   23  O   UNL     1      -8.920  12.165  65.821  1.00  0.00    -0.026 OA 
HETATM   24  O   UNL     1     -11.008  12.279  64.808  1.00  0.00    -0.284 OA 
HETATM   25  H   UNL     1     -12.404  12.734  67.702  1.00  0.00     0.000 HD 
HETATM   26  C   UNL     1      -8.532  10.781  65.753  1.00  0.00    -0.174 C  
HETATM   27  P   UNL     1     -12.467  12.965  64.604  1.00  0.00    -0.364 P  
HETATM   28  C   UNL     1      -8.698  10.119  64.372  1.00  0.00    -0.202 C  
HETATM   29  O   UNL     1      -9.065  10.972  63.393  1.00  0.00    -0.213 OA 
HETATM   30  O   UNL     1      -8.503   8.933  64.149  1.00  0.00    -0.178 OA 
ENDBRANCH  15  16
ENDBRANCH   5  15
TORSDOF 2
ENDMDL
MODEL      200
REMARK 921   NORMALIZED FREE ENERGY PREDICTED BY IDOCK:   -3.79 KCAL/MOL
REMARK 922        TOTAL FREE ENERGY PREDICTED BY IDOCK:   -4.94 KCAL/MOL
REMARK 923 INTER-LIGAND FREE ENERGY PREDICTED BY IDOCK:   -4.13 KCAL/MOL
REMARK 924 INTRA-LIGAND FREE ENERGY PREDICTED BY IDOCK:   -0.81 KCAL/MOL
REMARK 927      BINDING AFFINITY PREDICTED BY RF-SCORE:    0.00 PKD
ROOT
HETATM    1  O   UNL     1     -10.052   3.076  71.304  1.00  0.00    -0.060 OA 
HETATM    2  C   UNL     1      -8.894   3.927  71.184  1.00  0.00    -0.088 C  
HETATM    3  H   UNL     1     -10.045   2.691  72.173  1.00  0.00     0.000 HD 
HETATM    4  C   UNL     1      -8.906   4.549  69.779  1.00  0.00    -0.086 C  
HETATM    5  C   UNL     1     -10.013   5.642  69.665  1.00  0.00    -0.203 C  
HETATM    6  O   UNL     1      -9.045   3.448  68.863  1.00  0.00    -0.116 OA 
HETATM    7  O   UNL     1     -10.527   6.616  74.323  1.00  0.00    -0.344 OA 
HETATM    8  H   UNL     1      -9.052   3.833  67.994  1.00  0.00     0.000 HD 
HETATM    9  O   UNL     1      -9.898   6.594  70.749  1.00  0.00    -0.182 OA 
HETATM   10  C   UNL     1     -10.099   5.932  72.017  1.00  0.00    -0.189 C  
HETATM   11  O   UNL     1     -10.314   8.212  72.732  1.00  0.00    -0.313 OA 
HETATM   12  P   UNL     1      -7.289   5.834  72.502  1.00  0.00    -0.097 P  
HETATM   13  C   UNL     1      -8.944   4.968  72.307  1.00  0.00    -0.131 C  
HETATM   14  C   UNL     1     -10.324   6.920  73.158  1.00  0.00    -0.266 C  
ENDROOT
BRANCH   5  15
HETATM   15  O   UNL     1      -9.979   6.376  68.425  1.00  0.00    -0.133 OA 
BRANCH  15  16
HETATM   16  C   UNL     1      -9.703   7.799  68.516  1.00  0.00    -0.160 C  
HETATM   17  O   UNL     1      -7.327   7.557  69.183  1.00  0.00    -0.081 OA 
HETATM   18  C   UNL     1      -8.232   8.147  68.236  1.00  0.00    -0.129 C  
HETATM   19  C   UNL     1      -7.898   7.679  66.822  1.00  0.00    -0.107 C  
HETATM   20  O   UNL     1      -6.479   7.749  66.647  1.00  0.00    -0.048 OA 
HETATM   21  H   UNL     1      -6.418   7.772  69.011  1.00  0.00     0.000 HD 
HETATM   22  C   UNL     1      -8.735   8.516  65.832  1.00  0.00    -0.174 C  
HETATM   23  O   UNL     1     -10.143   8.400  66.110  1.00  0.00    -0.182 OA 
HETATM   24  O   UNL     1      -8.395   9.908  65.845  1.00  0.00    -0.119 OA 
HETATM   25  H   UNL     1      -6.271   7.457  65.768  1.00  0.00     0.000 HD 
HETATM   26  C   UNL     1     -10.573   8.543  67.475  1.00  0.00    -0.214 C  
HETATM   27  P   UNL     1      -7.024  10.402  65.125  1.00  0.00     0.035 P  
HETATM   28  C   UNL     1     -10.798   9.992  67.945  1.00  0.00    -0.271 C  
HETATM   29  O   UNL     1     -10.680  10.913  66.967  1.00  0.00    -0.247 OA 
HETATM   30  O   UNL     1     -11.078  10.308  69.093  1.00  0.00    -0.224 OA 
ENDBRANCH  15  16
ENDBRANCH   5  15
TORSDOF 2
ENDMDL
MODEL      201
REMARK 921   NORMALIZED FREE ENERGY PREDICTED BY IDOCK:   -3.78 KCAL/MOL
REMARK 922        TOTAL FREE ENERGY PREDICTED BY IDOCK:   -4.93 KCAL/MOL
REMARK 923 INTER-LIGAND FREE ENERGY PREDICTED BY IDOCK:   -4.47 KCAL/MOL
REMARK 924 INTRA-LIGAND FREE ENERGY PREDICTED BY IDOCK:   -0.46 KCAL/MOL
REMARK 927      BINDING AFFINITY PREDICTED BY RF-SCORE:    0.00 PKD
ROOT
HETATM    1  O   UNL     1     -10.805   5.811  68.756  1.00  0.00    -0.264 OA 
HETATM    2  C   UNL     1     -10.407   5.708  70.138  1.00  0.00    -0.271 C  
HETATM    3  H   UNL     1     -11.564   5.254  68.627  1.00  0.00     0.000 HD 
HETATM    4  C   UNL     1      -9.179   6.608  70.346  1.00  0.00    -0.156 C  
HETATM    5  C   UNL     1      -9.586   8.113  70.331  1.00  0.00    -0.170 C  
HETATM    6  O   UNL     1      -8.234   6.226  69.331  1.00  0.00    -0.111 OA 
HETATM    7  O   UNL     1     -14.225   7.605  71.394  1.00  0.00    -0.419 OA 
HETATM    8  H   UNL     1      -7.475   6.782  69.460  1.00  0.00     0.000 HD 
HETATM    9  O   UNL     1     -10.676   8.353  71.252  1.00  0.00    -0.216 OA 
HETATM   10  C   UNL     1     -11.844   7.605  70.846  1.00  0.00    -0.250 C  
HETATM   11  O   UNL     1     -12.869   9.104  72.415  1.00  0.00    -0.396 OA 
HETATM   12  P   UNL     1     -11.330   5.591  72.800  1.00  0.00    -0.190 P  
HETATM   13  C   UNL     1     -11.601   6.101  71.013  1.00  0.00    -0.191 C  
HETATM   14  C   UNL     1     -13.107   8.068  71.565  1.00  0.00    -0.296 C  
ENDROOT
BRANCH   5  15
HETATM   15  O   UNL     1      -8.510   9.009  70.676  1.00  0.00    -0.158 OA 
BRANCH  15  16
HETATM   16  C   UNL     1      -8.364  10.199  69.857  1.00  0.00    -0.089 C  
HETATM   17  O   UNL     1      -5.934  10.492  70.260  1.00  0.00    -0.076 OA 
HETATM   18  C   UNL     1      -6.956  10.351  69.259  1.00  0.00    -0.080 C  
HETATM   19  C   UNL     1      -6.679   9.128  68.389  1.00  0.00    -0.059 C  
HETATM   20  O   UNL     1      -5.288   9.121  68.048  1.00  0.00    -0.034 OA 
HETATM   21  H   UNL     1      -5.064  10.585  69.891  1.00  0.00     0.000 HD 
HETATM   22  C   UNL     1      -7.659   9.159  67.196  1.00  0.00    -0.091 C  
HETATM   23  O   UNL     1      -9.026   9.191  67.645  1.00  0.00    -0.123 OA 
HETATM   24  O   UNL     1      -7.452  10.278  66.327  1.00  0.00    -0.106 OA 
HETATM   25  H   UNL     1      -5.116   8.360  67.507  1.00  0.00     0.000 HD 
HETATM   26  C   UNL     1      -9.372  10.124  68.684  1.00  0.00    -0.161 C  
HETATM   27  P   UNL     1      -6.187  10.274  65.306  1.00  0.00    -0.105 P  
HETATM   28  C   UNL     1      -9.698  11.551  68.205  1.00  0.00    -0.198 C  
HETATM   29  O   UNL     1      -9.737  11.686  66.863  1.00  0.00    -0.191 OA 
HETATM   30  O   UNL     1      -9.925  12.493  68.951  1.00  0.00    -0.070 OA 
ENDBRANCH  15  16
ENDBRANCH   5  15
TORSDOF 2
ENDMDL
MODEL      202
REMARK 921   NORMALIZED FREE ENERGY PREDICTED BY IDOCK:   -3.76 KCAL/MOL
REMARK 922        TOTAL FREE ENERGY PREDICTED BY IDOCK:   -4.90 KCAL/MOL
REMARK 923 INTER-LIGAND FREE ENERGY PREDICTED BY IDOCK:   -4.06 KCAL/MOL
REMARK 924 INTRA-LIGAND FREE ENERGY PREDICTED BY IDOCK:   -0.84 KCAL/MOL
REMARK 927      BINDING AFFINITY PREDICTED BY RF-SCORE:    0.00 PKD
ROOT
HETATM    1  O   UNL     1      -5.143   6.861  67.562  1.00  0.00    -0.007 OA 
HETATM    2  C   UNL     1      -6.263   6.931  66.656  1.00  0.00    -0.041 C  
HETATM    3  H   UNL     1      -4.359   7.090  67.078  1.00  0.00     0.000 HD 
HETATM    4  C   UNL     1      -7.531   6.561  67.440  1.00  0.00    -0.092 C  
HETATM    5  C   UNL     1      -7.941   7.712  68.408  1.00  0.00    -0.123 C  
HETATM    6  O   UNL     1      -7.246   5.304  68.080  1.00  0.00    -0.069 OA 
HETATM    7  O   UNL     1      -5.663  11.315  66.231  1.00  0.00    -0.142 OA 
HETATM    8  H   UNL     1      -8.030   5.075  68.564  1.00  0.00     0.000 HD 
HETATM    9  O   UNL     1      -8.014   8.970  67.697  1.00  0.00    -0.100 OA 
HETATM   10  C   UNL     1      -6.715   9.318  67.168  1.00  0.00    -0.076 C  
HETATM   11  O   UNL     1      -7.816  11.436  66.919  1.00  0.00    -0.147 OA 
HETATM   12  P   UNL     1      -7.446   8.406  64.565  1.00  0.00    -0.112 P  
HETATM   13  C   UNL     1      -6.311   8.341  66.059  1.00  0.00    -0.049 C  
HETATM   14  C   UNL     1      -6.648  10.771  66.707  1.00  0.00    -0.105 C  
ENDROOT
BRANCH   5  15
HETATM   15  O   UNL     1      -9.209   7.498  69.061  1.00  0.00    -0.147 OA 
BRANCH  15  16
HETATM   16  C   UNL     1      -9.346   8.024  70.408  1.00  0.00    -0.158 C  
HETATM   17  O   UNL     1      -9.762  10.372  69.726  1.00  0.00    -0.378 OA 
HETATM   18  C   UNL     1     -10.260   9.257  70.484  1.00  0.00    -0.251 C  
HETATM   19  C   UNL     1     -11.643   8.850  69.980  1.00  0.00     0.124 C  
HETATM   20  O   UNL     1     -12.421  10.037  69.790  1.00  0.00    -0.487 OA 
HETATM   21  H   UNL     1     -10.327  11.134  69.772  1.00  0.00     0.000 HD 
HETATM   22  C   UNL     1     -12.227   7.819  70.969  1.00  0.00    -0.215 C  
HETATM   23  O   UNL     1     -11.358   6.680  71.110  1.00  0.00    -0.274 OA 
HETATM   24  O   UNL     1     -12.460   8.362  72.275  1.00  0.00    -0.346 OA 
HETATM   25  H   UNL     1     -13.281   9.784  69.476  1.00  0.00     0.000 HD 
HETATM   26  C   UNL     1      -9.955   6.925  71.312  1.00  0.00    -0.179 C  
HETATM   27  P   UNL     1     -13.736   9.339  72.518  1.00  0.00    -0.094 P  
HETATM   28  C   UNL     1      -9.536   7.181  72.772  1.00  0.00    -0.146 C  
HETATM   29  O   UNL     1     -10.530   7.011  73.668  1.00  0.00    -0.337 OA 
HETATM   30  O   UNL     1      -8.405   7.493  73.119  1.00  0.00    -0.109 OA 
ENDBRANCH  15  16
ENDBRANCH   5  15
TORSDOF 2
ENDMDL
MODEL      203
REMARK 921   NORMALIZED FREE ENERGY PREDICTED BY IDOCK:   -3.71 KCAL/MOL
REMARK 922        TOTAL FREE ENERGY PREDICTED BY IDOCK:   -4.85 KCAL/MOL
REMARK 923 INTER-LIGAND FREE ENERGY PREDICTED BY IDOCK:   -4.73 KCAL/MOL
REMARK 924 INTRA-LIGAND FREE ENERGY PREDICTED BY IDOCK:   -0.12 KCAL/MOL
REMARK 927      BINDING AFFINITY PREDICTED BY RF-SCORE:    0.00 PKD
ROOT
HETATM    1  O   UNL     1      -6.085  12.168  66.530  1.00  0.00    -0.492 OA 
HETATM    2  C   UNL     1      -5.714  10.792  66.313  1.00  0.00    -0.113 C  
HETATM    3  H   UNL     1      -5.659  12.695  65.864  1.00  0.00     0.000 HD 
HETATM    4  C   UNL     1      -6.402   9.939  67.389  1.00  0.00    -0.067 C  
HETATM    5  C   UNL     1      -7.931   9.816  67.106  1.00  0.00    -0.102 C  
HETATM    6  O   UNL     1      -6.067  10.548  68.649  1.00  0.00    -0.044 OA 
HETATM    7  O   UNL     1      -7.865  10.808  62.424  1.00  0.00    -0.170 OA 
HETATM    8  H   UNL     1      -6.493  10.021  69.314  1.00  0.00     0.000 HD 
HETATM    9  O   UNL     1      -8.161   9.377  65.746  1.00  0.00    -0.111 OA 
HETATM   10  C   UNL     1      -7.644  10.353  64.814  1.00  0.00    -0.058 C  
HETATM   11  O   UNL     1      -8.995   9.059  63.312  1.00  0.00    -0.100 OA 
HETATM   12  P   UNL     1      -5.296   8.796  64.364  1.00  0.00    -0.052 P  
HETATM   13  C   UNL     1      -6.114  10.404  64.886  1.00  0.00    -0.108 C  
HETATM   14  C   UNL     1      -8.146  10.120  63.393  1.00  0.00    -0.161 C  
ENDROOT
BRANCH   5  15
HETATM   15  O   UNL     1      -8.614   8.903  67.988  1.00  0.00    -0.128 OA 
BRANCH  15  16
HETATM   16  C   UNL     1      -8.816   9.345  69.356  1.00  0.00    -0.159 C  
HETATM   17  O   UNL     1      -9.795  11.548  68.772  1.00  0.00    -0.276 OA 
HETATM   18  C   UNL     1      -9.989  10.327  69.505  1.00  0.00    -0.228 C  
HETATM   19  C   UNL     1     -11.257   9.622  69.033  1.00  0.00     0.011 C  
HETATM   20  O   UNL     1     -12.298  10.598  68.910  1.00  0.00    -0.800 OA 
HETATM   21  H   UNL     1     -10.519  12.155  68.863  1.00  0.00     0.000 HD 
HETATM   22  C   UNL     1     -11.545   8.457  70.003  1.00  0.00     0.196 C  
HETATM   23  O   UNL     1     -10.430   7.549  70.075  1.00  0.00    -0.217 OA 
HETATM   24  O   UNL     1     -11.847   8.894  71.334  1.00  0.00    -0.283 OA 
HETATM   25  H   UNL     1     -13.087  10.159  68.615  1.00  0.00     0.000 HD 
HETATM   26  C   UNL     1      -9.116   8.110  70.240  1.00  0.00    -0.151 C  
HETATM   27  P   UNL     1     -13.304   9.538  71.652  1.00  0.00    -0.381 P  
HETATM   28  C   UNL     1      -8.710   8.418  71.694  1.00  0.00    -0.183 C  
HETATM   29  O   UNL     1      -9.601   7.996  72.615  1.00  0.00    -0.205 OA 
HETATM   30  O   UNL     1      -7.671   8.976  72.015  1.00  0.00    -0.348 OA 
ENDBRANCH  15  16
ENDBRANCH   5  15
TORSDOF 2
ENDMDL
MODEL      204
REMARK 921   NORMALIZED FREE ENERGY PREDICTED BY IDOCK:   -3.71 KCAL/MOL
REMARK 922        TOTAL FREE ENERGY PREDICTED BY IDOCK:   -4.85 KCAL/MOL
REMARK 923 INTER-LIGAND FREE ENERGY PREDICTED BY IDOCK:   -6.93 KCAL/MOL
REMARK 924 INTRA-LIGAND FREE ENERGY PREDICTED BY IDOCK:    2.08 KCAL/MOL
REMARK 927      BINDING AFFINITY PREDICTED BY RF-SCORE:    0.00 PKD
ROOT
HETATM    1  O   UNL     1     -13.480  14.564  65.117  1.00  0.00    -0.308 OA 
HETATM    2  C   UNL     1     -12.399  14.081  64.294  1.00  0.00    -0.355 C  
HETATM    3  H   UNL     1     -14.155  13.896  65.138  1.00  0.00     0.000 HD 
HETATM    4  C   UNL     1     -11.309  15.163  64.260  1.00  0.00    -0.080 C  
HETATM    5  C   UNL     1     -10.553  15.232  65.622  1.00  0.00    -0.362 C  
HETATM    6  O   UNL     1     -11.973  16.379  63.873  1.00  0.00    -1.341 OA 
HETATM    7  O   UNL     1     -11.590  10.846  67.232  1.00  0.00    -0.475 OA 
HETATM    8  H   UNL     1     -11.299  17.048  63.852  1.00  0.00     0.000 HD 
HETATM    9  O   UNL     1     -10.090  13.918  66.013  1.00  0.00    -0.295 OA 
HETATM   10  C   UNL     1     -11.216  13.033  66.209  1.00  0.00    -0.301 C  
HETATM   11  O   UNL     1      -9.505  11.727  67.271  1.00  0.00    -0.168 OA 
HETATM   12  P   UNL     1     -10.820  11.836  63.649  1.00  0.00    -0.450 P  
HETATM   13  C   UNL     1     -11.912  12.749  64.873  1.00  0.00    -0.402 C  
HETATM   14  C   UNL     1     -10.824  11.750  66.937  1.00  0.00    -0.271 C  
ENDROOT
BRANCH   5  15
HETATM   15  O   UNL     1      -9.415  16.117  65.610  1.00  0.00    -0.427 OA 
BRANCH  15  16
HETATM   16  C   UNL     1      -9.113  16.808  66.852  1.00  0.00    -0.229 C  
HETATM   17  O   UNL     1     -11.351  17.845  67.118  1.00  0.00     0.243 OA 
HETATM   18  C   UNL     1     -10.350  17.021  67.739  1.00  0.00    -0.335 C  
HETATM   19  C   UNL     1     -10.929  15.650  68.077  1.00  0.00    -0.318 C  
HETATM   20  O   UNL     1     -12.220  15.838  68.668  1.00  0.00    -0.536 OA 
HETATM   21  H   UNL     1     -12.115  17.976  67.666  1.00  0.00     0.000 HD 
HETATM   22  C   UNL     1      -9.899  14.898  68.947  1.00  0.00    -0.230 C  
HETATM   23  O   UNL     1      -8.631  14.787  68.275  1.00  0.00    -0.151 OA 
HETATM   24  O   UNL     1      -9.674  15.521  70.218  1.00  0.00    -0.098 OA 
HETATM   25  H   UNL     1     -12.580  14.985  68.878  1.00  0.00     0.000 HD 
HETATM   26  C   UNL     1      -8.092  15.967  67.655  1.00  0.00    -0.149 C  
HETATM   27  P   UNL     1     -10.791  15.374  71.388  1.00  0.00     0.526 P  
HETATM   28  C   UNL     1      -7.296  16.896  68.590  1.00  0.00    -0.222 C  
HETATM   29  O   UNL     1      -7.111  16.401  69.832  1.00  0.00     0.005 OA 
HETATM   30  O   UNL     1      -6.842  17.983  68.260  1.00  0.00    -0.205 OA 
ENDBRANCH  15  16
ENDBRANCH   5  15
TORSDOF 2
ENDMDL
MODEL      205
REMARK 921   NORMALIZED FREE ENERGY PREDICTED BY IDOCK:   -3.70 KCAL/MOL
REMARK 922        TOTAL FREE ENERGY PREDICTED BY IDOCK:   -4.84 KCAL/MOL
REMARK 923 INTER-LIGAND FREE ENERGY PREDICTED BY IDOCK:   -3.96 KCAL/MOL
REMARK 924 INTRA-LIGAND FREE ENERGY PREDICTED BY IDOCK:   -0.89 KCAL/MOL
REMARK 927      BINDING AFFINITY PREDICTED BY RF-SCORE:    0.00 PKD
ROOT
HETATM    1  O   UNL     1      -5.414   6.340  66.410  1.00  0.00    -0.012 OA 
HETATM    2  C   UNL     1      -6.449   5.689  65.646  1.00  0.00    -0.040 C  
HETATM    3  H   UNL     1      -4.657   6.449  65.847  1.00  0.00     0.000 HD 
HETATM    4  C   UNL     1      -7.673   5.512  66.557  1.00  0.00    -0.100 C  
HETATM    5  C   UNL     1      -8.386   6.878  66.800  1.00  0.00    -0.116 C  
HETATM    6  O   UNL     1      -7.188   4.862  67.746  1.00  0.00    -0.068 OA 
HETATM    7  O   UNL     1      -6.727   9.233  62.978  1.00  0.00    -0.094 OA 
HETATM    8  H   UNL     1      -7.945   4.753  68.309  1.00  0.00     0.000 HD 
HETATM    9  O   UNL     1      -8.658   7.539  65.542  1.00  0.00    -0.141 OA 
HETATM   10  C   UNL     1      -7.420   7.834  64.857  1.00  0.00    -0.094 C  
HETATM   11  O   UNL     1      -8.907   9.224  63.587  1.00  0.00    -0.203 OA 
HETATM   12  P   UNL     1      -7.739   5.578  63.141  1.00  0.00    -0.095 P  
HETATM   13  C   UNL     1      -6.737   6.539  64.404  1.00  0.00    -0.038 C  
HETATM   14  C   UNL     1      -7.614   8.816  63.706  1.00  0.00    -0.124 C  
ENDROOT
BRANCH   5  15
HETATM   15  O   UNL     1      -9.630   6.764  67.519  1.00  0.00    -0.125 OA 
BRANCH  15  16
HETATM   16  C   UNL     1      -9.807   7.643  68.661  1.00  0.00    -0.171 C  
HETATM   17  O   UNL     1     -11.855   6.538  69.520  1.00  0.00    -0.649 OA 
HETATM   18  C   UNL     1     -10.520   6.962  69.841  1.00  0.00    -0.216 C  
HETATM   19  C   UNL     1      -9.675   5.768  70.276  1.00  0.00    -0.175 C  
HETATM   20  O   UNL     1     -10.450   4.974  71.182  1.00  0.00    -0.205 OA 
HETATM   21  H   UNL     1     -12.296   6.118  70.248  1.00  0.00     0.000 HD 
HETATM   22  C   UNL     1      -8.339   6.304  70.832  1.00  0.00    -0.127 C  
HETATM   23  O   UNL     1      -7.654   7.110  69.855  1.00  0.00    -0.093 OA 
HETATM   24  O   UNL     1      -8.499   7.089  72.020  1.00  0.00    -0.113 OA 
HETATM   25  H   UNL     1      -9.924   4.230  71.452  1.00  0.00     0.000 HD 
HETATM   26  C   UNL     1      -8.415   8.108  69.153  1.00  0.00    -0.135 C  
HETATM   27  P   UNL     1      -8.804   6.346  73.433  1.00  0.00    -0.124 P  
HETATM   28  C   UNL     1      -8.560   9.458  69.880  1.00  0.00    -0.191 C  
HETATM   29  O   UNL     1      -7.842   9.550  71.018  1.00  0.00    -0.316 OA 
HETATM   30  O   UNL     1      -9.243  10.388  69.476  1.00  0.00    -0.194 OA 
ENDBRANCH  15  16
ENDBRANCH   5  15
TORSDOF 2
ENDMDL
MODEL      206
REMARK 921   NORMALIZED FREE ENERGY PREDICTED BY IDOCK:   -3.69 KCAL/MOL
REMARK 922        TOTAL FREE ENERGY PREDICTED BY IDOCK:   -4.83 KCAL/MOL
REMARK 923 INTER-LIGAND FREE ENERGY PREDICTED BY IDOCK:   -4.19 KCAL/MOL
REMARK 924 INTRA-LIGAND FREE ENERGY PREDICTED BY IDOCK:   -0.64 KCAL/MOL
REMARK 927      BINDING AFFINITY PREDICTED BY RF-SCORE:    0.00 PKD
ROOT
HETATM    1  O   UNL     1      -9.980  10.551  65.396  1.00  0.00    -0.252 OA 
HETATM    2  C   UNL     1      -8.808  10.609  66.235  1.00  0.00    -0.161 C  
HETATM    3  H   UNL     1      -9.709  10.718  64.501  1.00  0.00     0.000 HD 
HETATM    4  C   UNL     1      -9.247  10.338  67.682  1.00  0.00    -0.144 C  
HETATM    5  C   UNL     1      -9.603   8.833  67.882  1.00  0.00    -0.145 C  
HETATM    6  O   UNL     1     -10.324  11.255  67.945  1.00  0.00    -0.174 OA 
HETATM    7  O   UNL     1      -7.148   7.029  64.190  1.00  0.00    -0.056 OA 
HETATM    8  H   UNL     1     -10.595  11.088  68.840  1.00  0.00     0.000 HD 
HETATM    9  O   UNL     1      -8.526   7.990  67.407  1.00  0.00    -0.124 OA 
HETATM   10  C   UNL     1      -8.331   8.185  65.988  1.00  0.00    -0.131 C  
HETATM   11  O   UNL     1      -7.069   6.165  66.281  1.00  0.00    -0.065 OA 
HETATM   12  P   UNL     1      -6.090   9.889  66.451  1.00  0.00    -0.071 P  
HETATM   13  C   UNL     1      -7.790   9.592  65.710  1.00  0.00    -0.104 C  
HETATM   14  C   UNL     1      -7.456   7.099  65.369  1.00  0.00    -0.087 C  
ENDROOT
BRANCH   5  15
HETATM   15  O   UNL     1      -9.873   8.477  69.252  1.00  0.00    -0.178 OA 
BRANCH  15  16
HETATM   16  C   UNL     1      -9.205   7.292  69.762  1.00  0.00    -0.140 C  
HETATM   17  O   UNL     1      -7.859   8.474  71.477  1.00  0.00    -0.106 OA 
HETATM   18  C   UNL     1      -8.802   7.416  71.240  1.00  0.00    -0.137 C  
HETATM   19  C   UNL     1     -10.071   7.645  72.057  1.00  0.00    -0.188 C  
HETATM   20  O   UNL     1      -9.691   8.030  73.383  1.00  0.00    -0.280 OA 
HETATM   21  H   UNL     1      -7.610   8.551  72.390  1.00  0.00     0.000 HD 
HETATM   22  C   UNL     1     -10.942   6.375  71.953  1.00  0.00    -0.253 C  
HETATM   23  O   UNL     1     -11.244   6.060  70.581  1.00  0.00    -0.309 OA 
HETATM   24  O   UNL     1     -10.330   5.223  72.547  1.00  0.00    -0.187 OA 
HETATM   25  H   UNL     1     -10.480   8.173  73.891  1.00  0.00     0.000 HD 
HETATM   26  C   UNL     1     -10.164   6.084  69.632  1.00  0.00    -0.208 C  
HETATM   27  P   UNL     1     -10.294   5.084  74.165  1.00  0.00    -0.282 P  
HETATM   28  C   UNL     1      -9.337   4.788  69.544  1.00  0.00    -0.133 C  
HETATM   29  O   UNL     1      -9.827   3.771  70.283  1.00  0.00    -0.190 OA 
HETATM   30  O   UNL     1      -8.332   4.657  68.859  1.00  0.00    -0.081 OA 
ENDBRANCH  15  16
ENDBRANCH   5  15
TORSDOF 2
ENDMDL
MODEL      207
REMARK 921   NORMALIZED FREE ENERGY PREDICTED BY IDOCK:   -3.69 KCAL/MOL
REMARK 922        TOTAL FREE ENERGY PREDICTED BY IDOCK:   -4.83 KCAL/MOL
REMARK 923 INTER-LIGAND FREE ENERGY PREDICTED BY IDOCK:   -4.46 KCAL/MOL
REMARK 924 INTRA-LIGAND FREE ENERGY PREDICTED BY IDOCK:   -0.37 KCAL/MOL
REMARK 927      BINDING AFFINITY PREDICTED BY RF-SCORE:    0.00 PKD
ROOT
HETATM    1  O   UNL     1      -7.819   6.829  72.406  1.00  0.00    -0.094 OA 
HETATM    2  C   UNL     1      -8.831   6.256  71.555  1.00  0.00    -0.138 C  
HETATM    3  H   UNL     1      -7.446   6.131  72.931  1.00  0.00     0.000 HD 
HETATM    4  C   UNL     1      -9.435   7.386  70.707  1.00  0.00    -0.167 C  
HETATM    5  C   UNL     1      -8.434   7.846  69.603  1.00  0.00    -0.132 C  
HETATM    6  O   UNL     1      -9.824   8.412  71.638  1.00  0.00    -0.181 OA 
HETATM    7  O   UNL     1      -5.724   3.905  69.417  1.00  0.00    -0.016 OA 
HETATM    8  H   UNL     1     -10.197   9.111  71.113  1.00  0.00     0.000 HD 
HETATM    9  O   UNL     1      -7.957   6.709  68.845  1.00  0.00    -0.109 OA 
HETATM   10  C   UNL     1      -7.233   5.804  69.709  1.00  0.00    -0.069 C  
HETATM   11  O   UNL     1      -6.541   4.944  67.579  1.00  0.00    -0.044 OA 
HETATM   12  P   UNL     1      -9.485   4.064  69.906  1.00  0.00    -0.193 P  
HETATM   13  C   UNL     1      -8.185   5.149  70.716  1.00  0.00    -0.105 C  
HETATM   14  C   UNL     1      -6.427   4.774  68.924  1.00  0.00    -0.036 C  
ENDROOT
BRANCH   5  15
HETATM   15  O   UNL     1      -8.992   8.795  68.672  1.00  0.00    -0.137 OA 
BRANCH  15  16
HETATM   16  C   UNL     1      -9.588   9.992  69.239  1.00  0.00    -0.216 C  
HETATM   17  O   UNL     1      -7.546  11.392  69.082  1.00  0.00    -0.245 OA 
HETATM   18  C   UNL     1      -8.936  11.288  68.731  1.00  0.00    -0.111 C  
HETATM   19  C   UNL     1      -9.103  11.337  67.214  1.00  0.00    -0.156 C  
HETATM   20  O   UNL     1      -8.275  12.387  66.702  1.00  0.00    -0.381 OA 
HETATM   21  H   UNL     1      -7.143  12.193  68.769  1.00  0.00     0.000 HD 
HETATM   22  C   UNL     1     -10.610  11.462  66.904  1.00  0.00    -0.252 C  
HETATM   23  O   UNL     1     -11.355  10.375  67.485  1.00  0.00    -0.374 OA 
HETATM   24  O   UNL     1     -11.181  12.690  67.372  1.00  0.00    -0.260 OA 
HETATM   25  H   UNL     1      -8.379  12.417  65.759  1.00  0.00     0.000 HD 
HETATM   26  C   UNL     1     -11.087  10.033  68.856  1.00  0.00    -0.176 C  
HETATM   27  P   UNL     1     -10.885  14.068  66.563  1.00  0.00    -0.308 P  
HETATM   28  C   UNL     1     -11.854  10.862  69.903  1.00  0.00    -0.349 C  
HETATM   29  O   UNL     1     -12.765  11.707  69.376  1.00  0.00     0.059 OA 
HETATM   30  O   UNL     1     -11.687  10.772  71.111  1.00  0.00    -0.268 OA 
ENDBRANCH  15  16
ENDBRANCH   5  15
TORSDOF 2
ENDMDL
MODEL      208
REMARK 921   NORMALIZED FREE ENERGY PREDICTED BY IDOCK:   -3.69 KCAL/MOL
REMARK 922        TOTAL FREE ENERGY PREDICTED BY IDOCK:   -4.83 KCAL/MOL
REMARK 923 INTER-LIGAND FREE ENERGY PREDICTED BY IDOCK:   -5.04 KCAL/MOL
REMARK 924 INTRA-LIGAND FREE ENERGY PREDICTED BY IDOCK:    0.21 KCAL/MOL
REMARK 927      BINDING AFFINITY PREDICTED BY RF-SCORE:    0.00 PKD
ROOT
HETATM    1  O   UNL     1     -10.396  12.553  65.699  1.00  0.00    -0.261 OA 
HETATM    2  C   UNL     1      -9.990  13.435  66.765  1.00  0.00    -0.264 C  
HETATM    3  H   UNL     1      -9.971  12.843  64.901  1.00  0.00     0.000 HD 
HETATM    4  C   UNL     1     -10.678  12.966  68.057  1.00  0.00    -0.228 C  
HETATM    5  C   UNL     1     -10.030  11.648  68.583  1.00  0.00    -0.184 C  
HETATM    6  O   UNL     1     -12.079  12.869  67.744  1.00  0.00    -0.312 OA 
HETATM    7  O   UNL     1      -5.800  12.006  66.373  1.00  0.00    -0.183 OA 
HETATM    8  H   UNL     1     -12.504  12.579  68.543  1.00  0.00     0.000 HD 
HETATM    9  O   UNL     1      -8.594  11.793  68.680  1.00  0.00    -0.142 OA 
HETATM   10  C   UNL     1      -8.029  12.038  67.372  1.00  0.00    -0.165 C  
HETATM   11  O   UNL     1      -6.021  11.491  68.566  1.00  0.00    -0.046 OA 
HETATM   12  P   UNL     1      -7.820  14.834  67.900  1.00  0.00    -0.170 P  
HETATM   13  C   UNL     1      -8.461  13.413  66.852  1.00  0.00    -0.051 C  
HETATM   14  C   UNL     1      -6.513  11.865  67.354  1.00  0.00    -0.126 C  
ENDROOT
BRANCH   5  15
HETATM   15  O   UNL     1     -10.522  11.235  69.874  1.00  0.00     0.102 OA 
BRANCH  15  16
HETATM   16  C   UNL     1     -11.482  10.145  69.888  1.00  0.00    -0.254 C  
HETATM   17  O   UNL     1     -11.181   9.508  67.510  1.00  0.00    -0.430 OA 
HETATM   18  C   UNL     1     -11.156   9.041  68.869  1.00  0.00     0.164 C  
HETATM   19  C   UNL     1      -9.779   8.477  69.210  1.00  0.00    -0.173 C  
HETATM   20  O   UNL     1      -9.349   7.649  68.123  1.00  0.00    -0.144 OA 
HETATM   21  H   UNL     1     -10.979   8.826  66.880  1.00  0.00     0.000 HD 
HETATM   22  C   UNL     1      -9.875   7.780  70.584  1.00  0.00    -0.182 C  
HETATM   23  O   UNL     1     -10.341   8.689  71.598  1.00  0.00    -0.241 OA 
HETATM   24  O   UNL     1     -10.744   6.641  70.577  1.00  0.00    -0.226 OA 
HETATM   25  H   UNL     1      -8.492   7.299  68.335  1.00  0.00     0.000 HD 
HETATM   26  C   UNL     1     -11.488   9.504  71.296  1.00  0.00    -0.377 C  
HETATM   27  P   UNL     1     -10.239   5.256  69.894  1.00  0.00    -0.269 P  
HETATM   28  C   UNL     1     -12.853   8.835  71.543  1.00  0.00    -0.325 C  
HETATM   29  O   UNL     1     -12.774   7.622  72.128  1.00  0.00    -0.258 OA 
HETATM   30  O   UNL     1     -13.929   9.342  71.260  1.00  0.00    -0.291 OA 
ENDBRANCH  15  16
ENDBRANCH   5  15
TORSDOF 2
ENDMDL
MODEL      209
REMARK 921   NORMALIZED FREE ENERGY PREDICTED BY IDOCK:   -3.68 KCAL/MOL
REMARK 922        TOTAL FREE ENERGY PREDICTED BY IDOCK:   -4.82 KCAL/MOL
REMARK 923 INTER-LIGAND FREE ENERGY PREDICTED BY IDOCK:   -4.67 KCAL/MOL
REMARK 924 INTRA-LIGAND FREE ENERGY PREDICTED BY IDOCK:   -0.15 KCAL/MOL
REMARK 927      BINDING AFFINITY PREDICTED BY RF-SCORE:    0.00 PKD
ROOT
HETATM    1  O   UNL     1     -11.743   9.944  68.711  1.00  0.00    -0.485 OA 
HETATM    2  C   UNL     1     -10.414   9.523  69.079  1.00  0.00    -0.213 C  
HETATM    3  H   UNL     1     -11.908  10.786  69.118  1.00  0.00     0.000 HD 
HETATM    4  C   UNL     1     -10.148   8.161  68.421  1.00  0.00    -0.200 C  
HETATM    5  C   UNL     1      -9.925   8.321  66.885  1.00  0.00    -0.273 C  
HETATM    6  O   UNL     1     -11.258   7.322  68.788  1.00  0.00    -0.450 OA 
HETATM    7  O   UNL     1      -8.690  12.945  66.826  1.00  0.00    -0.190 OA 
HETATM    8  H   UNL     1     -11.093   6.480  68.381  1.00  0.00     0.000 HD 
HETATM    9  O   UNL     1      -8.921   9.328  66.621  1.00  0.00    -0.134 OA 
HETATM   10  C   UNL     1      -9.364  10.613  67.111  1.00  0.00    -0.155 C  
HETATM   11  O   UNL     1      -7.543  11.334  65.724  1.00  0.00     0.059 OA 
HETATM   12  P   UNL     1      -7.749  10.367  69.450  1.00  0.00    -0.132 P  
HETATM   13  C   UNL     1      -9.427  10.610  68.642  1.00  0.00    -0.176 C  
HETATM   14  C   UNL     1      -8.518  11.763  66.572  1.00  0.00    -0.125 C  
ENDROOT
BRANCH   5  15
HETATM   15  O   UNL     1      -9.516   7.105  66.228  1.00  0.00    -0.153 OA 
BRANCH  15  16
HETATM   16  C   UNL     1      -9.491   5.900  67.040  1.00  0.00    -0.125 C  
HETATM   17  O   UNL     1     -11.135   4.639  65.677  1.00  0.00    -0.826 OA 
HETATM   18  C   UNL     1      -9.813   4.628  66.240  1.00  0.00    -0.226 C  
HETATM   19  C   UNL     1      -8.769   4.488  65.136  1.00  0.00    -0.135 C  
HETATM   20  O   UNL     1      -9.206   3.472  64.226  1.00  0.00    -0.120 OA 
HETATM   21  H   UNL     1     -11.334   3.852  65.183  1.00  0.00     0.000 HD 
HETATM   22  C   UNL     1      -7.398   4.243  65.803  1.00  0.00    -0.080 C  
HETATM   23  O   UNL     1      -7.065   5.305  66.716  1.00  0.00    -0.066 OA 
HETATM   24  O   UNL     1      -7.336   3.005  66.521  1.00  0.00    -0.071 OA 
HETATM   25  H   UNL     1      -8.557   3.386  63.539  1.00  0.00     0.000 HD 
HETATM   26  C   UNL     1      -8.076   5.736  67.644  1.00  0.00    -0.102 C  
HETATM   27  P   UNL     1      -7.201   1.610  65.698  1.00  0.00    -0.054 P  
HETATM   28  C   UNL     1      -8.172   4.912  68.942  1.00  0.00    -0.083 C  
HETATM   29  O   UNL     1      -7.206   3.980  69.075  1.00  0.00    -0.053 OA 
HETATM   30  O   UNL     1      -9.027   5.077  69.801  1.00  0.00    -0.102 OA 
ENDBRANCH  15  16
ENDBRANCH   5  15
TORSDOF 2
ENDMDL
MODEL      210
REMARK 921   NORMALIZED FREE ENERGY PREDICTED BY IDOCK:   -3.66 KCAL/MOL
REMARK 922        TOTAL FREE ENERGY PREDICTED BY IDOCK:   -4.80 KCAL/MOL
REMARK 923 INTER-LIGAND FREE ENERGY PREDICTED BY IDOCK:   -3.95 KCAL/MOL
REMARK 924 INTRA-LIGAND FREE ENERGY PREDICTED BY IDOCK:   -0.85 KCAL/MOL
REMARK 927      BINDING AFFINITY PREDICTED BY RF-SCORE:    0.00 PKD
ROOT
HETATM    1  O   UNL     1      -8.593  11.443  69.348  1.00  0.00    -0.352 OA 
HETATM    2  C   UNL     1      -9.499  10.327  69.244  1.00  0.00    -0.215 C  
HETATM    3  H   UNL     1      -8.868  11.978  70.082  1.00  0.00     0.000 HD 
HETATM    4  C   UNL     1      -9.053   9.461  68.056  1.00  0.00    -0.127 C  
HETATM    5  C   UNL     1      -7.752   8.674  68.400  1.00  0.00    -0.100 C  
HETATM    6  O   UNL     1      -8.940  10.358  66.936  1.00  0.00    -0.139 OA 
HETATM    7  O   UNL     1      -8.091   8.799  73.173  1.00  0.00    -0.412 OA 
HETATM    8  H   UNL     1      -8.665   9.822  66.202  1.00  0.00     0.000 HD 
HETATM    9  O   UNL     1      -7.909   7.956  69.647  1.00  0.00    -0.101 OA 
HETATM   10  C   UNL     1      -8.129   8.886  70.732  1.00  0.00    -0.156 C  
HETATM   11  O   UNL     1      -7.622   6.917  72.006  1.00  0.00    -0.091 OA 
HETATM   12  P   UNL     1     -10.938   8.383  70.695  1.00  0.00    -0.240 P  
HETATM   13  C   UNL     1      -9.490   9.574  70.578  1.00  0.00    -0.246 C  
HETATM   14  C   UNL     1      -7.967   8.230  72.100  1.00  0.00    -0.140 C  
ENDROOT
BRANCH   5  15
HETATM   15  O   UNL     1      -7.363   7.724  67.389  1.00  0.00    -0.088 OA 
BRANCH  15  16
HETATM   16  C   UNL     1      -8.432   7.131  66.604  1.00  0.00    -0.121 C  
HETATM   17  O   UNL     1      -8.281   8.731  64.715  1.00  0.00    -0.145 OA 
HETATM   18  C   UNL     1      -8.260   7.344  65.092  1.00  0.00    -0.113 C  
HETATM   19  C   UNL     1      -6.939   6.703  64.673  1.00  0.00    -0.054 C  
HETATM   20  O   UNL     1      -6.637   7.123  63.338  1.00  0.00    -0.050 OA 
HETATM   21  H   UNL     1      -8.174   8.863  63.781  1.00  0.00     0.000 HD 
HETATM   22  C   UNL     1      -7.062   5.178  64.882  1.00  0.00    -0.062 C  
HETATM   23  O   UNL     1      -7.395   4.863  66.247  1.00  0.00    -0.076 OA 
HETATM   24  O   UNL     1      -8.046   4.572  64.035  1.00  0.00    -0.089 OA 
HETATM   25  H   UNL     1      -5.815   6.724  63.078  1.00  0.00     0.000 HD 
HETATM   26  C   UNL     1      -8.458   5.606  66.868  1.00  0.00    -0.111 C  
HETATM   27  P   UNL     1      -7.714   4.344  62.461  1.00  0.00    -0.067 P  
HETATM   28  C   UNL     1      -9.877   5.071  66.603  1.00  0.00    -0.196 C  
HETATM   29  O   UNL     1      -9.908   3.903  65.927  1.00  0.00    -0.185 OA 
HETATM   30  O   UNL     1     -10.903   5.623  66.975  1.00  0.00    -0.275 OA 
ENDBRANCH  15  16
ENDBRANCH   5  15
TORSDOF 2
ENDMDL
MODEL      211
REMARK 921   NORMALIZED FREE ENERGY PREDICTED BY IDOCK:   -3.63 KCAL/MOL
REMARK 922        TOTAL FREE ENERGY PREDICTED BY IDOCK:   -4.76 KCAL/MOL
REMARK 923 INTER-LIGAND FREE ENERGY PREDICTED BY IDOCK:   -4.32 KCAL/MOL
REMARK 924 INTRA-LIGAND FREE ENERGY PREDICTED BY IDOCK:   -0.44 KCAL/MOL
REMARK 927      BINDING AFFINITY PREDICTED BY RF-SCORE:    0.00 PKD
ROOT
HETATM    1  O   UNL     1     -10.675   9.415  71.104  1.00  0.00    -0.298 OA 
HETATM    2  C   UNL     1     -10.767   8.088  71.659  1.00  0.00    -0.232 C  
HETATM    3  H   UNL     1     -10.924  10.035  71.779  1.00  0.00     0.000 HD 
HETATM    4  C   UNL     1     -10.365   7.087  70.567  1.00  0.00    -0.201 C  
HETATM    5  C   UNL     1      -8.826   7.128  70.315  1.00  0.00    -0.148 C  
HETATM    6  O   UNL     1     -11.174   7.407  69.421  1.00  0.00    -0.444 OA 
HETATM    7  O   UNL     1      -7.477   9.030  74.495  1.00  0.00    -0.418 OA 
HETATM    8  H   UNL     1     -10.925   6.787  68.745  1.00  0.00     0.000 HD 
HETATM    9  O   UNL     1      -8.105   6.986  71.562  1.00  0.00    -0.103 OA 
HETATM   10  C   UNL     1      -8.411   8.092  72.441  1.00  0.00    -0.170 C  
HETATM   11  O   UNL     1      -6.481   7.219  73.571  1.00  0.00    -0.064 OA 
HETATM   12  P   UNL     1     -10.251   6.500  73.931  1.00  0.00    -0.333 P  
HETATM   13  C   UNL     1      -9.872   8.023  72.900  1.00  0.00    -0.287 C  
HETATM   14  C   UNL     1      -7.442   8.183  73.617  1.00  0.00    -0.154 C  
ENDROOT
BRANCH   5  15
HETATM   15  O   UNL     1      -8.357   6.105  69.414  1.00  0.00    -0.114 OA 
BRANCH  15  16
HETATM   16  C   UNL     1      -8.775   6.216  68.028  1.00  0.00    -0.113 C  
HETATM   17  O   UNL     1      -6.964   7.763  67.337  1.00  0.00    -0.074 OA 
HETATM   18  C   UNL     1      -7.609   6.508  67.069  1.00  0.00    -0.095 C  
HETATM   19  C   UNL     1      -6.607   5.362  67.182  1.00  0.00    -0.053 C  
HETATM   20  O   UNL     1      -5.403   5.747  66.508  1.00  0.00    -0.008 OA 
HETATM   21  H   UNL     1      -6.244   7.944  66.745  1.00  0.00     0.000 HD 
HETATM   22  C   UNL     1      -7.286   4.080  66.656  1.00  0.00    -0.068 C  
HETATM   23  O   UNL     1      -8.498   3.797  67.380  1.00  0.00    -0.097 OA 
HETATM   24  O   UNL     1      -7.608   4.145  65.262  1.00  0.00    -0.079 OA 
HETATM   25  H   UNL     1      -4.779   5.035  66.580  1.00  0.00     0.000 HD 
HETATM   26  C   UNL     1      -9.422   4.878  67.594  1.00  0.00    -0.141 C  
HETATM   27  P   UNL     1      -6.423   3.986  64.161  1.00  0.00    -0.044 P  
HETATM   28  C   UNL     1     -10.404   5.143  66.437  1.00  0.00    -0.288 C  
HETATM   29  O   UNL     1     -10.337   4.236  65.440  1.00  0.00    -0.241 OA 
HETATM   30  O   UNL     1     -11.197   6.073  66.406  1.00  0.00    -0.050 OA 
ENDBRANCH  15  16
ENDBRANCH   5  15
TORSDOF 2
ENDMDL
MODEL      212
REMARK 921   NORMALIZED FREE ENERGY PREDICTED BY IDOCK:   -3.61 KCAL/MOL
REMARK 922        TOTAL FREE ENERGY PREDICTED BY IDOCK:   -4.74 KCAL/MOL
REMARK 923 INTER-LIGAND FREE ENERGY PREDICTED BY IDOCK:   -4.65 KCAL/MOL
REMARK 924 INTRA-LIGAND FREE ENERGY PREDICTED BY IDOCK:   -0.09 KCAL/MOL
REMARK 927      BINDING AFFINITY PREDICTED BY RF-SCORE:    0.00 PKD
ROOT
HETATM    1  O   UNL     1     -11.748  11.786  67.125  1.00  0.00    -0.547 OA 
HETATM    2  C   UNL     1     -12.207  12.428  65.918  1.00  0.00    -0.144 C  
HETATM    3  H   UNL     1     -11.974  10.865  67.072  1.00  0.00     0.000 HD 
HETATM    4  C   UNL     1     -11.843  13.917  66.004  1.00  0.00    -0.393 C  
HETATM    5  C   UNL     1     -10.309  14.125  65.810  1.00  0.00    -0.325 C  
HETATM    6  O   UNL     1     -12.361  14.378  67.265  1.00  0.00    -0.617 OA 
HETATM    7  O   UNL     1      -9.323  10.035  63.529  1.00  0.00    -0.275 OA 
HETATM    8  H   UNL     1     -12.136  15.299  67.318  1.00  0.00     0.000 HD 
HETATM    9  O   UNL     1      -9.855  13.459  64.609  1.00  0.00    -0.167 OA 
HETATM   10  C   UNL     1     -10.069  12.034  64.719  1.00  0.00    -0.257 C  
HETATM   11  O   UNL     1      -8.583  12.059  62.835  1.00  0.00     0.256 OA 
HETATM   12  P   UNL     1     -12.425  12.184  63.117  1.00  0.00     0.333 P  
HETATM   13  C   UNL     1     -11.568  11.717  64.721  1.00  0.00    -0.099 C  
HETATM   14  C   UNL     1      -9.316  11.250  63.648  1.00  0.00    -0.174 C  
ENDROOT
BRANCH   5  15
HETATM   15  O   UNL     1      -9.917  15.510  65.724  1.00  0.00    -0.309 OA 
BRANCH  15  16
HETATM   16  C   UNL     1      -9.341  16.101  66.919  1.00  0.00    -0.227 C  
HETATM   17  O   UNL     1      -7.548  17.352  65.747  1.00  0.00    -0.484 OA 
HETATM   18  C   UNL     1      -8.659  17.453  66.654  1.00  0.00    -0.255 C  
HETATM   19  C   UNL     1      -9.710  18.411  66.100  1.00  0.00    -0.229 C  
HETATM   20  O   UNL     1      -9.041  19.574  65.599  1.00  0.00    -0.313 OA 
HETATM   21  H   UNL     1      -7.127  18.187  65.583  1.00  0.00     0.000 HD 
HETATM   22  C   UNL     1     -10.755  18.665  67.207  1.00  0.00    -0.394 C  
HETATM   23  O   UNL     1     -11.347  17.433  67.659  1.00  0.00     0.040 OA 
HETATM   24  O   UNL     1     -10.213  19.341  68.348  1.00  0.00    -0.403 OA 
HETATM   25  H   UNL     1      -9.695  20.169  65.254  1.00  0.00     0.000 HD 
HETATM   26  C   UNL     1     -10.468  16.333  67.954  1.00  0.00    -0.295 C  
HETATM   27  P   UNL     1      -9.899  20.932  68.259  1.00  0.00     0.865 P  
HETATM   28  C   UNL     1      -9.862  16.336  69.370  1.00  0.00    -0.217 C  
HETATM   29  O   UNL     1     -10.346  17.306  70.174  1.00  0.00     0.223 OA 
HETATM   30  O   UNL     1      -9.029  15.532  69.765  1.00  0.00    -0.240 OA 
ENDBRANCH  15  16
ENDBRANCH   5  15
TORSDOF 2
ENDMDL
MODEL      213
REMARK 921   NORMALIZED FREE ENERGY PREDICTED BY IDOCK:   -3.59 KCAL/MOL
REMARK 922        TOTAL FREE ENERGY PREDICTED BY IDOCK:   -4.72 KCAL/MOL
REMARK 923 INTER-LIGAND FREE ENERGY PREDICTED BY IDOCK:   -3.99 KCAL/MOL
REMARK 924 INTRA-LIGAND FREE ENERGY PREDICTED BY IDOCK:   -0.73 KCAL/MOL
REMARK 927      BINDING AFFINITY PREDICTED BY RF-SCORE:    0.00 PKD
ROOT
HETATM    1  O   UNL     1     -10.099   4.736  70.167  1.00  0.00    -0.242 OA 
HETATM    2  C   UNL     1     -10.339   5.351  68.885  1.00  0.00    -0.190 C  
HETATM    3  H   UNL     1     -10.476   3.864  70.149  1.00  0.00     0.000 HD 
HETATM    4  C   UNL     1      -9.729   6.761  68.914  1.00  0.00    -0.137 C  
HETATM    5  C   UNL     1      -8.172   6.693  68.852  1.00  0.00    -0.120 C  
HETATM    6  O   UNL     1     -10.261   7.397  70.090  1.00  0.00    -0.199 OA 
HETATM    7  O   UNL     1      -7.729   2.333  66.928  1.00  0.00    -0.065 OA 
HETATM    8  H   UNL     1      -9.884   8.269  70.107  1.00  0.00     0.000 HD 
HETATM    9  O   UNL     1      -7.744   5.870  67.741  1.00  0.00    -0.094 OA 
HETATM   10  C   UNL     1      -8.211   4.514  67.919  1.00  0.00    -0.095 C  
HETATM   11  O   UNL     1      -6.594   4.145  66.184  1.00  0.00    -0.040 OA 
HETATM   12  P   UNL     1     -10.366   4.934  66.096  1.00  0.00    -0.190 P  
HETATM   13  C   UNL     1      -9.738   4.454  67.800  1.00  0.00    -0.137 C  
HETATM   14  C   UNL     1      -7.521   3.535  66.973  1.00  0.00    -0.075 C  
ENDROOT
BRANCH   5  15
HETATM   15  O   UNL     1      -7.539   7.981  68.718  1.00  0.00    -0.098 OA 
BRANCH  15  16
HETATM   16  C   UNL     1      -8.381   9.079  68.273  1.00  0.00    -0.121 C  
HETATM   17  O   UNL     1      -8.731  10.062  70.523  1.00  0.00    -0.342 OA 
HETATM   18  C   UNL     1      -8.287  10.316  69.179  1.00  0.00    -0.154 C  
HETATM   19  C   UNL     1      -6.836  10.790  69.183  1.00  0.00    -0.084 C  
HETATM   20  O   UNL     1      -6.680  11.763  70.222  1.00  0.00    -0.473 OA 
HETATM   21  H   UNL     1      -8.673  10.827  71.083  1.00  0.00     0.000 HD 
HETATM   22  C   UNL     1      -6.488  11.272  67.758  1.00  0.00    -0.060 C  
HETATM   23  O   UNL     1      -6.704  10.231  66.787  1.00  0.00    -0.077 OA 
HETATM   24  O   UNL     1      -7.244  12.419  67.352  1.00  0.00    -0.132 OA 
HETATM   25  H   UNL     1      -5.777  12.057  70.224  1.00  0.00     0.000 HD 
HETATM   26  C   UNL     1      -7.940   9.499  66.850  1.00  0.00    -0.109 C  
HETATM   27  P   UNL     1      -6.864  13.880  67.954  1.00  0.00    -0.182 P  
HETATM   28  C   UNL     1      -9.130  10.154  66.124  1.00  0.00    -0.155 C  
HETATM   29  O   UNL     1      -8.806  11.262  65.426  1.00  0.00    -0.157 OA 
HETATM   30  O   UNL     1     -10.274   9.721  66.146  1.00  0.00    -0.259 OA 
ENDBRANCH  15  16
ENDBRANCH   5  15
TORSDOF 2
ENDMDL
MODEL      214
REMARK 921   NORMALIZED FREE ENERGY PREDICTED BY IDOCK:   -3.58 KCAL/MOL
REMARK 922        TOTAL FREE ENERGY PREDICTED BY IDOCK:   -4.71 KCAL/MOL
REMARK 923 INTER-LIGAND FREE ENERGY PREDICTED BY IDOCK:   -3.91 KCAL/MOL
REMARK 924 INTRA-LIGAND FREE ENERGY PREDICTED BY IDOCK:   -0.80 KCAL/MOL
REMARK 927      BINDING AFFINITY PREDICTED BY RF-SCORE:    0.00 PKD
ROOT
HETATM    1  O   UNL     1      -6.109   6.165  69.590  1.00  0.00    -0.024 OA 
HETATM    2  C   UNL     1      -7.376   6.604  70.119  1.00  0.00    -0.085 C  
HETATM    3  H   UNL     1      -5.960   5.274  69.885  1.00  0.00     0.000 HD 
HETATM    4  C   UNL     1      -7.617   8.044  69.642  1.00  0.00    -0.096 C  
HETATM    5  C   UNL     1      -7.974   8.074  68.124  1.00  0.00    -0.128 C  
HETATM    6  O   UNL     1      -6.433   8.781  70.000  1.00  0.00    -0.037 OA 
HETATM    7  O   UNL     1      -9.475   3.553  67.662  1.00  0.00    -0.197 OA 
HETATM    8  H   UNL     1      -6.582   9.671  69.705  1.00  0.00     0.000 HD 
HETATM    9  O   UNL     1      -9.053   7.153  67.839  1.00  0.00    -0.129 OA 
HETATM   10  C   UNL     1      -8.646   5.800  68.142  1.00  0.00    -0.108 C  
HETATM   11  O   UNL     1     -10.614   5.333  66.851  1.00  0.00    -0.260 OA 
HETATM   12  P   UNL     1     -10.046   5.852  70.628  1.00  0.00    -0.220 P  
HETATM   13  C   UNL     1      -8.458   5.624  69.653  1.00  0.00    -0.110 C  
HETATM   14  C   UNL     1      -9.599   4.763  67.556  1.00  0.00    -0.158 C  
ENDROOT
BRANCH   5  15
HETATM   15  O   UNL     1      -8.364   9.376  67.644  1.00  0.00    -0.117 OA 
BRANCH  15  16
HETATM   16  C   UNL     1      -8.987   9.429  66.333  1.00  0.00    -0.152 C  
HETATM   17  O   UNL     1     -11.322   9.253  67.151  1.00  0.00    -0.072 OA 
HETATM   18  C   UNL     1     -10.403  10.026  66.362  1.00  0.00    -0.179 C  
HETATM   19  C   UNL     1     -10.304  11.448  66.907  1.00  0.00    -0.227 C  
HETATM   20  O   UNL     1     -11.626  11.916  67.193  1.00  0.00    -0.444 OA 
HETATM   21  H   UNL     1     -12.197   9.622  67.169  1.00  0.00     0.000 HD 
HETATM   22  C   UNL     1      -9.500  12.293  65.896  1.00  0.00    -0.154 C  
HETATM   23  O   UNL     1      -8.199  11.724  65.658  1.00  0.00     0.301 OA 
HETATM   24  O   UNL     1     -10.159  12.434  64.631  1.00  0.00    -0.283 OA 
HETATM   25  H   UNL     1     -11.565  12.800  67.533  1.00  0.00     0.000 HD 
HETATM   26  C   UNL     1      -8.119  10.311  65.404  1.00  0.00    -0.147 C  
HETATM   27  P   UNL     1     -11.421  13.448  64.497  1.00  0.00    -0.403 P  
HETATM   28  C   UNL     1      -8.355   9.891  63.941  1.00  0.00    -0.172 C  
HETATM   29  O   UNL     1      -8.478  10.926  63.084  1.00  0.00    -0.128 OA 
HETATM   30  O   UNL     1      -8.412   8.731  63.558  1.00  0.00    -0.177 OA 
ENDBRANCH  15  16
ENDBRANCH   5  15
TORSDOF 2
ENDMDL
MODEL      215
REMARK 921   NORMALIZED FREE ENERGY PREDICTED BY IDOCK:   -3.50 KCAL/MOL
REMARK 922        TOTAL FREE ENERGY PREDICTED BY IDOCK:   -4.62 KCAL/MOL
REMARK 923 INTER-LIGAND FREE ENERGY PREDICTED BY IDOCK:   -4.38 KCAL/MOL
REMARK 924 INTRA-LIGAND FREE ENERGY PREDICTED BY IDOCK:   -0.24 KCAL/MOL
REMARK 927      BINDING AFFINITY PREDICTED BY RF-SCORE:    0.00 PKD
ROOT
HETATM    1  O   UNL     1      -9.684  10.140  70.071  1.00  0.00    -0.363 OA 
HETATM    2  C   UNL     1      -8.515  10.230  69.232  1.00  0.00    -0.166 C  
HETATM    3  H   UNL     1      -9.728  10.928  70.598  1.00  0.00     0.000 HD 
HETATM    4  C   UNL     1      -8.443   8.954  68.379  1.00  0.00    -0.129 C  
HETATM    5  C   UNL     1      -9.534   8.969  67.264  1.00  0.00    -0.149 C  
HETATM    6  O   UNL     1      -8.539   7.856  69.304  1.00  0.00    -0.135 OA 
HETATM    7  O   UNL     1     -10.302  13.690  67.090  1.00  0.00    -0.248 OA 
HETATM    8  H   UNL     1      -8.494   7.067  68.777  1.00  0.00     0.000 HD 
HETATM    9  O   UNL     1      -9.473  10.204  66.512  1.00  0.00    -0.159 OA 
HETATM   10  C   UNL     1      -9.750  11.328  67.379  1.00  0.00    -0.173 C  
HETATM   11  O   UNL     1      -9.988  12.410  65.250  1.00  0.00    -0.263 OA 
HETATM   12  P   UNL     1      -6.973  11.940  67.604  1.00  0.00    -0.138 P  
HETATM   13  C   UNL     1      -8.620  11.510  68.397  1.00  0.00    -0.159 C  
HETATM   14  C   UNL     1     -10.032  12.607  66.596  1.00  0.00    -0.242 C  
ENDROOT
BRANCH   5  15
HETATM   15  O   UNL     1      -9.425   7.877  66.330  1.00  0.00    -0.195 OA 
BRANCH  15  16
HETATM   16  C   UNL     1      -8.931   6.616  66.855  1.00  0.00    -0.127 C  
HETATM   17  O   UNL     1     -11.158   5.696  67.448  1.00  0.00    -0.334 OA 
HETATM   18  C   UNL     1      -9.943   5.467  66.714  1.00  0.00    -0.192 C  
HETATM   19  C   UNL     1     -10.248   5.286  65.230  1.00  0.00     0.435 C  
HETATM   20  O   UNL     1     -11.378   4.416  65.103  1.00  0.00    -1.022 OA 
HETATM   21  H   UNL     1     -11.783   4.987  67.361  1.00  0.00     0.000 HD 
HETATM   22  C   UNL     1      -8.956   4.811  64.532  1.00  0.00    -0.128 C  
HETATM   23  O   UNL     1      -7.877   5.740  64.742  1.00  0.00    -0.100 OA 
HETATM   24  O   UNL     1      -8.521   3.519  64.973  1.00  0.00    -0.099 OA 
HETATM   25  H   UNL     1     -11.568   4.304  64.180  1.00  0.00     0.000 HD 
HETATM   26  C   UNL     1      -7.652   6.219  66.080  1.00  0.00    -0.087 C  
HETATM   27  P   UNL     1      -9.305   2.192  64.458  1.00  0.00    -0.073 P  
HETATM   28  C   UNL     1      -6.784   5.308  66.967  1.00  0.00    -0.058 C  
HETATM   29  O   UNL     1      -6.253   4.251  66.319  1.00  0.00    -0.030 OA 
HETATM   30  O   UNL     1      -6.563   5.510  68.153  1.00  0.00    -0.046 OA 
ENDBRANCH  15  16
ENDBRANCH   5  15
TORSDOF 2
ENDMDL
MODEL      216
REMARK 921   NORMALIZED FREE ENERGY PREDICTED BY IDOCK:   -3.49 KCAL/MOL
REMARK 922        TOTAL FREE ENERGY PREDICTED BY IDOCK:   -4.61 KCAL/MOL
REMARK 923 INTER-LIGAND FREE ENERGY PREDICTED BY IDOCK:   -3.81 KCAL/MOL
REMARK 924 INTRA-LIGAND FREE ENERGY PREDICTED BY IDOCK:   -0.80 KCAL/MOL
REMARK 927      BINDING AFFINITY PREDICTED BY RF-SCORE:    0.00 PKD
ROOT
HETATM    1  O   UNL     1      -6.576   5.937  68.277  1.00  0.00    -0.048 OA 
HETATM    2  C   UNL     1      -7.952   6.313  68.074  1.00  0.00    -0.108 C  
HETATM    3  H   UNL     1      -6.511   4.995  68.181  1.00  0.00     0.000 HD 
HETATM    4  C   UNL     1      -8.057   7.837  68.231  1.00  0.00    -0.124 C  
HETATM    5  C   UNL     1      -7.432   8.566  67.002  1.00  0.00    -0.084 C  
HETATM    6  O   UNL     1      -7.442   8.147  69.495  1.00  0.00    -0.082 OA 
HETATM    7  O   UNL     1      -7.705   4.982  63.840  1.00  0.00    -0.070 OA 
HETATM    8  H   UNL     1      -7.507   9.089  69.591  1.00  0.00     0.000 HD 
HETATM    9  O   UNL     1      -7.983   8.045  65.769  1.00  0.00    -0.099 OA 
HETATM   10  C   UNL     1      -7.655   6.644  65.631  1.00  0.00    -0.086 C  
HETATM   11  O   UNL     1      -8.365   7.100  63.385  1.00  0.00     0.028 OA 
HETATM   12  P   UNL     1     -10.256   5.867  66.509  1.00  0.00    -0.088 P  
HETATM   13  C   UNL     1      -8.388   5.816  66.692  1.00  0.00    -0.109 C  
HETATM   14  C   UNL     1      -7.909   6.125  64.219  1.00  0.00    -0.114 C  
ENDROOT
BRANCH   5  15
HETATM   15  O   UNL     1      -7.634   9.993  67.008  1.00  0.00    -0.092 OA 
BRANCH  15  16
HETATM   16  C   UNL     1      -8.855  10.477  67.628  1.00  0.00    -0.131 C  
HETATM   17  O   UNL     1      -7.878  10.819  69.883  1.00  0.00    -0.362 OA 
HETATM   18  C   UNL     1      -8.595  11.437  68.801  1.00  0.00    -0.083 C  
HETATM   19  C   UNL     1      -7.816  12.635  68.266  1.00  0.00    -0.144 C  
HETATM   20  O   UNL     1      -7.337  13.396  69.381  1.00  0.00    -0.314 OA 
HETATM   21  H   UNL     1      -7.717  11.411  70.607  1.00  0.00     0.000 HD 
HETATM   22  C   UNL     1      -8.729  13.396  67.281  1.00  0.00    -0.218 C  
HETATM   23  O   UNL     1      -9.178  12.538  66.216  1.00  0.00    -0.215 OA 
HETATM   24  O   UNL     1      -9.885  13.964  67.909  1.00  0.00    -0.216 OA 
HETATM   25  H   UNL     1      -6.852  14.141  69.048  1.00  0.00     0.000 HD 
HETATM   26  C   UNL     1      -9.685  11.239  66.568  1.00  0.00    -0.202 C  
HETATM   27  P   UNL     1      -9.725  15.302  68.817  1.00  0.00    -0.232 P  
HETATM   28  C   UNL     1     -11.173  11.199  66.965  1.00  0.00    -0.219 C  
HETATM   29  O   UNL     1     -11.818  12.373  66.803  1.00  0.00    -0.493 OA 
HETATM   30  O   UNL     1     -11.749  10.202  67.377  1.00  0.00     0.092 OA 
ENDBRANCH  15  16
ENDBRANCH   5  15
TORSDOF 2
ENDMDL
MODEL      217
REMARK 921   NORMALIZED FREE ENERGY PREDICTED BY IDOCK:   -3.46 KCAL/MOL
REMARK 922        TOTAL FREE ENERGY PREDICTED BY IDOCK:   -4.57 KCAL/MOL
REMARK 923 INTER-LIGAND FREE ENERGY PREDICTED BY IDOCK:   -3.90 KCAL/MOL
REMARK 924 INTRA-LIGAND FREE ENERGY PREDICTED BY IDOCK:   -0.68 KCAL/MOL
REMARK 927      BINDING AFFINITY PREDICTED BY RF-SCORE:    0.00 PKD
ROOT
HETATM    1  O   UNL     1     -11.766   9.482  69.704  1.00  0.00    -0.445 OA 
HETATM    2  C   UNL     1     -10.517   8.822  69.990  1.00  0.00    -0.212 C  
HETATM    3  H   UNL     1     -11.830  10.246  70.263  1.00  0.00     0.000 HD 
HETATM    4  C   UNL     1     -10.415   7.585  69.084  1.00  0.00    -0.215 C  
HETATM    5  C   UNL     1     -10.127   8.000  67.609  1.00  0.00    -0.209 C  
HETATM    6  O   UNL     1     -11.637   6.851  69.280  1.00  0.00    -0.568 OA 
HETATM    7  O   UNL     1      -8.286  12.339  68.439  1.00  0.00    -0.161 OA 
HETATM    8  H   UNL     1     -11.574   6.087  68.720  1.00  0.00     0.000 HD 
HETATM    9  O   UNL     1      -8.990   8.892  67.545  1.00  0.00    -0.132 OA 
HETATM   10  C   UNL     1      -9.273  10.110  68.270  1.00  0.00    -0.130 C  
HETATM   11  O   UNL     1      -7.331  10.824  67.054  1.00  0.00    -0.099 OA 
HETATM   12  P   UNL     1      -7.775   9.208  70.525  1.00  0.00    -0.155 P  
HETATM   13  C   UNL     1      -9.381   9.826  69.772  1.00  0.00    -0.226 C  
HETATM   14  C   UNL     1      -8.265  11.214  67.964  1.00  0.00    -0.125 C  
ENDROOT
BRANCH   5  15
HETATM   15  O   UNL     1      -9.864   6.885  66.732  1.00  0.00    -0.175 OA 
BRANCH  15  16
HETATM   16  C   UNL     1      -8.475   6.641  66.387  1.00  0.00    -0.125 C  
HETATM   17  O   UNL     1      -7.855   5.590  68.546  1.00  0.00    -0.087 OA 
HETATM   18  C   UNL     1      -7.877   5.428  67.118  1.00  0.00    -0.101 C  
HETATM   19  C   UNL     1      -8.694   4.197  66.738  1.00  0.00    -0.114 C  
HETATM   20  O   UNL     1      -8.325   3.123  67.610  1.00  0.00    -0.079 OA 
HETATM   21  H   UNL     1      -7.486   4.842  68.999  1.00  0.00     0.000 HD 
HETATM   22  C   UNL     1      -8.489   3.935  65.231  1.00  0.00    -0.112 C  
HETATM   23  O   UNL     1      -8.862   5.082  64.446  1.00  0.00    -0.147 OA 
HETATM   24  O   UNL     1      -7.138   3.591  64.899  1.00  0.00    -0.062 OA 
HETATM   25  H   UNL     1      -8.835   2.357  67.374  1.00  0.00     0.000 HD 
HETATM   26  C   UNL     1      -8.380   6.371  64.866  1.00  0.00    -0.061 C  
HETATM   27  P   UNL     1      -6.583   2.105  65.248  1.00  0.00    -0.028 P  
HETATM   28  C   UNL     1      -6.967   6.736  64.374  1.00  0.00    -0.054 C  
HETATM   29  O   UNL     1      -6.436   5.844  63.512  1.00  0.00    -0.028 OA 
HETATM   30  O   UNL     1      -6.363   7.747  64.704  1.00  0.00    -0.044 OA 
ENDBRANCH  15  16
ENDBRANCH   5  15
TORSDOF 2
ENDMDL
MODEL      218
REMARK 921   NORMALIZED FREE ENERGY PREDICTED BY IDOCK:   -3.45 KCAL/MOL
REMARK 922        TOTAL FREE ENERGY PREDICTED BY IDOCK:   -4.56 KCAL/MOL
REMARK 923 INTER-LIGAND FREE ENERGY PREDICTED BY IDOCK:   -3.93 KCAL/MOL
REMARK 924 INTRA-LIGAND FREE ENERGY PREDICTED BY IDOCK:   -0.63 KCAL/MOL
REMARK 927      BINDING AFFINITY PREDICTED BY RF-SCORE:    0.00 PKD
ROOT
HETATM    1  O   UNL     1     -11.039   8.805  69.490  1.00  0.00    -0.418 OA 
HETATM    2  C   UNL     1     -11.293   7.600  70.240  1.00  0.00    -0.181 C  
HETATM    3  H   UNL     1     -11.257   9.546  70.042  1.00  0.00     0.000 HD 
HETATM    4  C   UNL     1     -10.940   6.402  69.346  1.00  0.00    -0.359 C  
HETATM    5  C   UNL     1      -9.394   6.260  69.193  1.00  0.00    -0.131 C  
HETATM    6  O   UNL     1     -11.655   6.605  68.114  1.00  0.00    -0.543 OA 
HETATM    7  O   UNL     1      -8.070   8.684  73.102  1.00  0.00    -0.405 OA 
HETATM    8  H   UNL     1     -11.436   5.863  67.562  1.00  0.00     0.000 HD 
HETATM    9  O   UNL     1      -8.754   6.257  70.491  1.00  0.00    -0.140 OA 
HETATM   10  C   UNL     1      -8.990   7.514  71.164  1.00  0.00    -0.142 C  
HETATM   11  O   UNL     1      -7.217   6.663  72.539  1.00  0.00    -0.082 OA 
HETATM   12  P   UNL     1     -11.054   6.361  72.762  1.00  0.00    -0.190 P  
HETATM   13  C   UNL     1     -10.471   7.655  71.531  1.00  0.00    -0.204 C  
HETATM   14  C   UNL     1      -8.077   7.705  72.371  1.00  0.00    -0.108 C  
ENDROOT
BRANCH   5  15
HETATM   15  O   UNL     1      -8.987   5.065  68.496  1.00  0.00    -0.103 OA 
BRANCH  15  16
HETATM   16  C   UNL     1      -8.168   5.249  67.310  1.00  0.00    -0.104 C  
HETATM   17  O   UNL     1      -5.997   5.326  68.508  1.00  0.00    -0.019 OA 
HETATM   18  C   UNL     1      -6.748   4.682  67.465  1.00  0.00    -0.051 C  
HETATM   19  C   UNL     1      -6.866   3.186  67.744  1.00  0.00    -0.049 C  
HETATM   20  O   UNL     1      -5.583   2.701  68.155  1.00  0.00    -0.017 OA 
HETATM   21  H   UNL     1      -5.120   4.975  68.603  1.00  0.00     0.000 HD 
HETATM   22  C   UNL     1      -7.465   2.512  66.491  1.00  0.00    -0.070 C  
HETATM   23  O   UNL     1      -8.738   3.089  66.147  1.00  0.00    -0.119 OA 
HETATM   24  O   UNL     1      -6.613   2.601  65.343  1.00  0.00    -0.033 OA 
HETATM   25  H   UNL     1      -5.656   1.770  68.330  1.00  0.00     0.000 HD 
HETATM   26  C   UNL     1      -8.842   4.523  66.121  1.00  0.00    -0.118 C  
HETATM   27  P   UNL     1      -5.301   1.648  65.245  1.00  0.00    -0.005 P  
HETATM   28  C   UNL     1      -8.402   5.191  64.805  1.00  0.00    -0.143 C  
HETATM   29  O   UNL     1      -8.102   4.320  63.819  1.00  0.00    -0.087 OA 
HETATM   30  O   UNL     1      -8.339   6.400  64.634  1.00  0.00    -0.109 OA 
ENDBRANCH  15  16
ENDBRANCH   5  15
TORSDOF 2
ENDMDL
MODEL      219
REMARK 921   NORMALIZED FREE ENERGY PREDICTED BY IDOCK:   -3.44 KCAL/MOL
REMARK 922        TOTAL FREE ENERGY PREDICTED BY IDOCK:   -4.55 KCAL/MOL
REMARK 923 INTER-LIGAND FREE ENERGY PREDICTED BY IDOCK:   -3.86 KCAL/MOL
REMARK 924 INTRA-LIGAND FREE ENERGY PREDICTED BY IDOCK:   -0.69 KCAL/MOL
REMARK 927      BINDING AFFINITY PREDICTED BY RF-SCORE:    0.00 PKD
ROOT
HETATM    1  O   UNL     1      -8.173  14.113  66.880  1.00  0.00    -0.378 OA 
HETATM    2  C   UNL     1      -8.795  13.042  66.142  1.00  0.00     0.316 C  
HETATM    3  H   UNL     1      -8.641  14.916  66.684  1.00  0.00     0.000 HD 
HETATM    4  C   UNL     1      -8.038  11.744  66.460  1.00  0.00    -0.035 C  
HETATM    5  C   UNL     1      -8.362  11.251  67.903  1.00  0.00    -0.131 C  
HETATM    6  O   UNL     1      -6.648  12.028  66.215  1.00  0.00    -0.383 OA 
HETATM    7  O   UNL     1     -12.518  13.546  68.517  1.00  0.00    -0.068 OA 
HETATM    8  H   UNL     1      -6.181  11.225  66.412  1.00  0.00     0.000 HD 
HETATM    9  O   UNL     1      -9.794  11.183  68.106  1.00  0.00    -0.169 OA 
HETATM   10  C   UNL     1     -10.377  12.499  67.976  1.00  0.00    -0.222 C  
HETATM   11  O   UNL     1     -12.219  11.356  69.007  1.00  0.00    -0.405 OA 
HETATM   12  P   UNL     1     -11.254  11.933  65.320  1.00  0.00    -0.214 P  
HETATM   13  C   UNL     1     -10.276  12.988  66.527  1.00  0.00    -0.268 C  
HETATM   14  C   UNL     1     -11.808  12.552  68.503  1.00  0.00    -0.295 C  
ENDROOT
BRANCH   5  15
HETATM   15  O   UNL     1      -7.809   9.957  68.214  1.00  0.00    -0.085 OA 
BRANCH  15  16
HETATM   16  C   UNL     1      -8.756   8.896  68.510  1.00  0.00    -0.134 C  
HETATM   17  O   UNL     1      -8.481   7.699  66.355  1.00  0.00    -0.124 OA 
HETATM   18  C   UNL     1      -8.432   7.579  67.787  1.00  0.00    -0.118 C  
HETATM   19  C   UNL     1      -7.044   7.126  68.232  1.00  0.00    -0.082 C  
HETATM   20  O   UNL     1      -6.620   6.061  67.374  1.00  0.00    -0.052 OA 
HETATM   21  H   UNL     1      -8.281   6.885  65.908  1.00  0.00     0.000 HD 
HETATM   22  C   UNL     1      -7.112   6.786  69.736  1.00  0.00    -0.068 C  
HETATM   23  O   UNL     1      -7.575   7.911  70.505  1.00  0.00    -0.078 OA 
HETATM   24  O   UNL     1      -7.968   5.673  70.022  1.00  0.00    -0.088 OA 
HETATM   25  H   UNL     1      -5.756   5.780  67.651  1.00  0.00     0.000 HD 
HETATM   26  C   UNL     1      -8.735   8.619  70.032  1.00  0.00    -0.141 C  
HETATM   27  P   UNL     1      -7.456   4.166  69.690  1.00  0.00    -0.053 P  
HETATM   28  C   UNL     1     -10.088   8.020  70.457  1.00  0.00    -0.192 C  
HETATM   29  O   UNL     1      -9.987   6.987  71.320  1.00  0.00    -0.189 OA 
HETATM   30  O   UNL     1     -11.175   8.434  70.077  1.00  0.00    -0.206 OA 
ENDBRANCH  15  16
ENDBRANCH   5  15
TORSDOF 2
ENDMDL
MODEL      220
REMARK 921   NORMALIZED FREE ENERGY PREDICTED BY IDOCK:   -3.35 KCAL/MOL
REMARK 922        TOTAL FREE ENERGY PREDICTED BY IDOCK:   -4.45 KCAL/MOL
REMARK 923 INTER-LIGAND FREE ENERGY PREDICTED BY IDOCK:   -3.72 KCAL/MOL
REMARK 924 INTRA-LIGAND FREE ENERGY PREDICTED BY IDOCK:   -0.73 KCAL/MOL
REMARK 927      BINDING AFFINITY PREDICTED BY RF-SCORE:    0.00 PKD
ROOT
HETATM    1  O   UNL     1      -5.980  12.074  66.215  1.00  0.00    -0.478 OA 
HETATM    2  C   UNL     1      -5.581  10.785  66.722  1.00  0.00    -0.064 C  
HETATM    3  H   UNL     1      -5.599  12.181  65.352  1.00  0.00     0.000 HD 
HETATM    4  C   UNL     1      -6.199  10.612  68.118  1.00  0.00    -0.057 C  
HETATM    5  C   UNL     1      -7.734  10.359  68.018  1.00  0.00    -0.092 C  
HETATM    6  O   UNL     1      -5.825  11.785  68.862  1.00  0.00    -0.050 OA 
HETATM    7  O   UNL     1      -7.901   8.785  63.501  1.00  0.00    -0.133 OA 
HETATM    8  H   UNL     1      -6.207  11.678  69.725  1.00  0.00     0.000 HD 
HETATM    9  O   UNL     1      -8.012   9.279  67.096  1.00  0.00    -0.105 OA 
HETATM   10  C   UNL     1      -7.563   9.633  65.768  1.00  0.00    -0.103 C  
HETATM   11  O   UNL     1      -8.942   7.746  65.223  1.00  0.00     0.021 OA 
HETATM   12  P   UNL     1      -5.195   8.069  66.067  1.00  0.00    -0.025 P  
HETATM   13  C   UNL     1      -6.033   9.714  65.724  1.00  0.00    -0.060 C  
HETATM   14  C   UNL     1      -8.120   8.697  64.700  1.00  0.00    -0.156 C  
ENDROOT
BRANCH   5  15
HETATM   15  O   UNL     1      -8.353  10.033  69.279  1.00  0.00    -0.128 OA 
BRANCH  15  16
HETATM   16  C   UNL     1      -8.697   8.639  69.496  1.00  0.00    -0.139 C  
HETATM   17  O   UNL     1      -6.420   7.912  70.160  1.00  0.00    -0.036 OA 
HETATM   18  C   UNL     1      -7.805   7.953  70.543  1.00  0.00    -0.095 C  
HETATM   19  C   UNL     1      -7.966   8.702  71.863  1.00  0.00    -0.076 C  
HETATM   20  O   UNL     1      -6.950   8.251  72.766  1.00  0.00    -0.095 OA 
HETATM   21  H   UNL     1      -5.869   7.489  70.806  1.00  0.00     0.000 HD 
HETATM   22  C   UNL     1      -9.420   8.512  72.345  1.00  0.00    -0.280 C  
HETATM   23  O   UNL     1     -10.362   8.970  71.358  1.00  0.00    -0.271 OA 
HETATM   24  O   UNL     1      -9.735   7.150  72.659  1.00  0.00    -0.151 OA 
HETATM   25  H   UNL     1      -7.050   8.718  73.587  1.00  0.00     0.000 HD 
HETATM   26  C   UNL     1     -10.161   8.558  69.994  1.00  0.00    -0.192 C  
HETATM   27  P   UNL     1      -9.177   6.498  74.039  1.00  0.00    -0.202 P  
HETATM   28  C   UNL     1     -10.744   7.180  69.630  1.00  0.00    -0.239 C  
HETATM   29  O   UNL     1     -11.473   6.613  70.614  1.00  0.00    -0.317 OA 
HETATM   30  O   UNL     1     -10.593   6.632  68.547  1.00  0.00    -0.194 OA 
ENDBRANCH  15  16
ENDBRANCH   5  15
TORSDOF 2
ENDMDL
MODEL      221
REMARK 921   NORMALIZED FREE ENERGY PREDICTED BY IDOCK:   -3.35 KCAL/MOL
REMARK 922        TOTAL FREE ENERGY PREDICTED BY IDOCK:   -4.44 KCAL/MOL
REMARK 923 INTER-LIGAND FREE ENERGY PREDICTED BY IDOCK:   -4.71 KCAL/MOL
REMARK 924 INTRA-LIGAND FREE ENERGY PREDICTED BY IDOCK:    0.26 KCAL/MOL
REMARK 927      BINDING AFFINITY PREDICTED BY RF-SCORE:    0.00 PKD
ROOT
HETATM    1  O   UNL     1     -12.053   7.482  70.160  1.00  0.00    -0.481 OA 
HETATM    2  C   UNL     1     -11.288   6.272  69.995  1.00  0.00    -0.416 C  
HETATM    3  H   UNL     1     -12.527   7.421  70.981  1.00  0.00     0.000 HD 
HETATM    4  C   UNL     1     -10.522   6.372  68.667  1.00  0.00    -0.223 C  
HETATM    5  C   UNL     1      -9.340   7.382  68.782  1.00  0.00    -0.144 C  
HETATM    6  O   UNL     1     -11.505   6.701  67.669  1.00  0.00    -0.687 OA 
HETATM    7  O   UNL     1      -8.825   7.329  73.541  1.00  0.00    -0.140 OA 
HETATM    8  H   UNL     1     -11.032   6.763  66.848  1.00  0.00     0.000 HD 
HETATM    9  O   UNL     1      -8.519   7.072  69.933  1.00  0.00    -0.137 OA 
HETATM   10  C   UNL     1      -9.294   7.202  71.146  1.00  0.00    -0.157 C  
HETATM   11  O   UNL     1      -7.092   7.138  72.097  1.00  0.00    -0.067 OA 
HETATM   12  P   UNL     1      -9.662   4.377  71.305  1.00  0.00    -0.180 P  
HETATM   13  C   UNL     1     -10.371   6.113  71.212  1.00  0.00    -0.217 C  
HETATM   14  C   UNL     1      -8.417   7.220  72.395  1.00  0.00    -0.111 C  
ENDROOT
BRANCH   5  15
HETATM   15  O   UNL     1      -8.484   7.410  67.623  1.00  0.00    -0.120 OA 
BRANCH  15  16
HETATM   16  C   UNL     1      -8.521   8.615  66.813  1.00  0.00    -0.115 C  
HETATM   17  O   UNL     1      -9.872   9.952  68.407  1.00  0.00    -0.147 OA 
HETATM   18  C   UNL     1      -8.652   9.899  67.649  1.00  0.00    -0.122 C  
HETATM   19  C   UNL     1      -7.446   9.979  68.581  1.00  0.00    -0.083 C  
HETATM   20  O   UNL     1      -7.687  11.011  69.544  1.00  0.00    -0.336 OA 
HETATM   21  H   UNL     1      -9.953  10.745  68.924  1.00  0.00     0.000 HD 
HETATM   22  C   UNL     1      -6.182  10.157  67.712  1.00  0.00    -0.057 C  
HETATM   23  O   UNL     1      -6.047   9.085  66.761  1.00  0.00    -0.058 OA 
HETATM   24  O   UNL     1      -6.167  11.394  66.989  1.00  0.00    -0.094 OA 
HETATM   25  H   UNL     1      -6.937  11.061  70.124  1.00  0.00     0.000 HD 
HETATM   26  C   UNL     1      -7.208   8.711  66.000  1.00  0.00    -0.084 C  
HETATM   27  P   UNL     1      -5.837  12.776  67.778  1.00  0.00    -0.134 P  
HETATM   28  C   UNL     1      -7.459   9.545  64.730  1.00  0.00    -0.112 C  
HETATM   29  O   UNL     1      -6.477  10.427  64.448  1.00  0.00    -0.114 OA 
HETATM   30  O   UNL     1      -8.441   9.428  64.011  1.00  0.00    -0.172 OA 
ENDBRANCH  15  16
ENDBRANCH   5  15
TORSDOF 2
ENDMDL
MODEL      222
REMARK 921   NORMALIZED FREE ENERGY PREDICTED BY IDOCK:   -3.34 KCAL/MOL
REMARK 922        TOTAL FREE ENERGY PREDICTED BY IDOCK:   -4.44 KCAL/MOL
REMARK 923 INTER-LIGAND FREE ENERGY PREDICTED BY IDOCK:   -3.93 KCAL/MOL
REMARK 924 INTRA-LIGAND FREE ENERGY PREDICTED BY IDOCK:   -0.51 KCAL/MOL
REMARK 927      BINDING AFFINITY PREDICTED BY RF-SCORE:    0.00 PKD
ROOT
HETATM    1  O   UNL     1      -7.407   8.294  74.030  1.00  0.00    -0.157 OA 
HETATM    2  C   UNL     1      -8.491   8.544  73.112  1.00  0.00    -0.016 C  
HETATM    3  H   UNL     1      -7.748   8.364  74.913  1.00  0.00     0.000 HD 
HETATM    4  C   UNL     1      -7.938   8.431  71.683  1.00  0.00    -0.134 C  
HETATM    5  C   UNL     1      -7.657   6.943  71.313  1.00  0.00    -0.087 C  
HETATM    6  O   UNL     1      -6.788   9.295  71.636  1.00  0.00    -0.284 OA 
HETATM    7  O   UNL     1     -10.545   4.860  74.511  1.00  0.00    -0.314 OA 
HETATM    8  H   UNL     1      -6.447   9.225  70.752  1.00  0.00     0.000 HD 
HETATM    9  O   UNL     1      -8.821   6.126  71.578  1.00  0.00    -0.135 OA 
HETATM   10  C   UNL     1      -9.134   6.149  72.989  1.00  0.00    -0.130 C  
HETATM   11  O   UNL     1     -10.484   4.280  72.323  1.00  0.00    -0.170 OA 
HETATM   12  P   UNL     1     -11.216   8.056  72.576  1.00  0.00    -0.373 P  
HETATM   13  C   UNL     1      -9.612   7.544  73.408  1.00  0.00    -0.270 C  
HETATM   14  C   UNL     1     -10.126   5.059  73.381  1.00  0.00    -0.165 C  
ENDROOT
BRANCH   5  15
HETATM   15  O   UNL     1      -7.284   6.748  69.934  1.00  0.00    -0.075 OA 
BRANCH  15  16
HETATM   16  C   UNL     1      -8.348   6.849  68.950  1.00  0.00    -0.121 C  
HETATM   17  O   UNL     1      -7.523   8.938  67.897  1.00  0.00    -0.090 OA 
HETATM   18  C   UNL     1      -7.913   7.574  67.666  1.00  0.00    -0.117 C  
HETATM   19  C   UNL     1      -6.757   6.790  67.050  1.00  0.00    -0.059 C  
HETATM   20  O   UNL     1      -6.170   7.589  66.016  1.00  0.00    -0.040 OA 
HETATM   21  H   UNL     1      -7.255   9.386  67.104  1.00  0.00     0.000 HD 
HETATM   22  C   UNL     1      -7.297   5.414  66.606  1.00  0.00    -0.086 C  
HETATM   23  O   UNL     1      -7.889   4.705  67.710  1.00  0.00    -0.085 OA 
HETATM   24  O   UNL     1      -8.274   5.503  65.561  1.00  0.00    -0.118 OA 
HETATM   25  H   UNL     1      -5.451   7.101  65.633  1.00  0.00     0.000 HD 
HETATM   26  C   UNL     1      -8.802   5.422  68.558  1.00  0.00    -0.100 C  
HETATM   27  P   UNL     1      -7.792   5.820  64.042  1.00  0.00    -0.118 P  
HETATM   28  C   UNL     1     -10.259   5.474  68.062  1.00  0.00    -0.181 C  
HETATM   29  O   UNL     1     -10.493   4.727  66.962  1.00  0.00    -0.166 OA 
HETATM   30  O   UNL     1     -11.150   6.111  68.605  1.00  0.00    -0.339 OA 
ENDBRANCH  15  16
ENDBRANCH   5  15
TORSDOF 2
ENDMDL
MODEL      223
REMARK 921   NORMALIZED FREE ENERGY PREDICTED BY IDOCK:   -3.34 KCAL/MOL
REMARK 922        TOTAL FREE ENERGY PREDICTED BY IDOCK:   -4.44 KCAL/MOL
REMARK 923 INTER-LIGAND FREE ENERGY PREDICTED BY IDOCK:   -4.33 KCAL/MOL
REMARK 924 INTRA-LIGAND FREE ENERGY PREDICTED BY IDOCK:   -0.10 KCAL/MOL
REMARK 927      BINDING AFFINITY PREDICTED BY RF-SCORE:    0.00 PKD
ROOT
HETATM    1  O   UNL     1      -5.598  20.019  69.732  1.00  0.00    -0.226 OA 
HETATM    2  C   UNL     1      -5.563  18.824  68.925  1.00  0.00    -0.197 C  
HETATM    3  H   UNL     1      -4.867  20.568  69.475  1.00  0.00     0.000 HD 
HETATM    4  C   UNL     1      -6.745  17.936  69.341  1.00  0.00    -0.164 C  
HETATM    5  C   UNL     1      -8.093  18.528  68.824  1.00  0.00    -0.260 C  
HETATM    6  O   UNL     1      -6.653  17.800  70.770  1.00  0.00     1.153 OA 
HETATM    7  O   UNL     1      -6.362  21.243  65.283  1.00  0.00    -0.148 OA 
HETATM    8  H   UNL     1      -7.384  17.250  71.027  1.00  0.00     0.000 HD 
HETATM    9  O   UNL     1      -8.014  18.806  67.407  1.00  0.00    -0.238 OA 
HETATM   10  C   UNL     1      -6.999  19.803  67.152  1.00  0.00    -0.208 C  
HETATM   11  O   UNL     1      -8.133  19.854  65.037  1.00  0.00     0.075 OA 
HETATM   12  P   UNL     1      -5.133  17.807  66.330  1.00  0.00    -0.199 P  
HETATM   13  C   UNL     1      -5.606  19.238  67.451  1.00  0.00    -0.168 C  
HETATM   14  C   UNL     1      -7.095  20.381  65.743  1.00  0.00    -0.202 C  
ENDROOT
BRANCH   5  15
HETATM   15  O   UNL     1      -9.228  17.666  69.044  1.00  0.00    -0.189 OA 
BRANCH  15  16
HETATM   16  C   UNL     1      -8.952  16.247  69.184  1.00  0.00    -0.219 C  
HETATM   17  O   UNL     1     -10.840  15.771  70.722  1.00  0.00    -0.312 OA 
HETATM   18  C   UNL     1     -10.211  15.415  69.479  1.00  0.00    -0.270 C  
HETATM   19  C   UNL     1     -11.185  15.606  68.320  1.00  0.00    -0.353 C  
HETATM   20  O   UNL     1     -12.454  15.064  68.702  1.00  0.00    -0.578 OA 
HETATM   21  H   UNL     1     -11.617  15.257  70.904  1.00  0.00     0.000 HD 
HETATM   22  C   UNL     1     -10.548  14.991  67.055  1.00  0.00    -0.293 C  
HETATM   23  O   UNL     1      -9.267  15.584  66.774  1.00  0.00    -0.215 OA 
HETATM   24  O   UNL     1     -10.369  13.573  67.149  1.00  0.00    -0.248 OA 
HETATM   25  H   UNL     1     -13.060  15.184  67.980  1.00  0.00     0.000 HD 
HETATM   26  C   UNL     1      -8.338  15.725  67.863  1.00  0.00    -0.149 C  
HETATM   27  P   UNL     1     -11.655  12.593  66.996  1.00  0.00    -0.349 P  
HETATM   28  C   UNL     1      -7.480  14.481  68.161  1.00  0.00    -0.126 C  
HETATM   29  O   UNL     1      -7.636  13.479  67.271  1.00  0.00    -0.149 OA 
HETATM   30  O   UNL     1      -6.703  14.389  69.101  1.00  0.00    -0.103 OA 
ENDBRANCH  15  16
ENDBRANCH   5  15
TORSDOF 2
ENDMDL
MODEL      224
REMARK 921   NORMALIZED FREE ENERGY PREDICTED BY IDOCK:   -3.23 KCAL/MOL
REMARK 922        TOTAL FREE ENERGY PREDICTED BY IDOCK:   -4.32 KCAL/MOL
REMARK 923 INTER-LIGAND FREE ENERGY PREDICTED BY IDOCK:   -4.93 KCAL/MOL
REMARK 924 INTRA-LIGAND FREE ENERGY PREDICTED BY IDOCK:    0.61 KCAL/MOL
REMARK 927      BINDING AFFINITY PREDICTED BY RF-SCORE:    0.00 PKD
ROOT
HETATM    1  O   UNL     1      -8.910  10.483  69.609  1.00  0.00    -0.369 OA 
HETATM    2  C   UNL     1     -10.351  10.461  69.556  1.00  0.00    -0.237 C  
HETATM    3  H   UNL     1      -8.652  10.953  70.393  1.00  0.00     0.000 HD 
HETATM    4  C   UNL     1     -10.768   9.701  68.288  1.00  0.00    -0.217 C  
HETATM    5  C   UNL     1     -10.516   8.170  68.450  1.00  0.00    -0.161 C  
HETATM    6  O   UNL     1     -10.052  10.320  67.204  1.00  0.00    -0.191 OA 
HETATM    7  O   UNL     1     -10.463   7.965  73.232  1.00  0.00    -0.339 OA 
HETATM    8  H   UNL     1     -10.310   9.850  66.420  1.00  0.00     0.000 HD 
HETATM    9  O   UNL     1     -11.119   7.685  69.673  1.00  0.00    -0.186 OA 
HETATM   10  C   UNL     1     -10.511   8.328  70.816  1.00  0.00    -0.196 C  
HETATM   11  O   UNL     1     -11.640   6.530  71.936  1.00  0.00    -0.281 OA 
HETATM   12  P   UNL     1     -12.708  10.131  71.068  1.00  0.00    -0.387 P  
HETATM   13  C   UNL     1     -10.870   9.817  70.845  1.00  0.00    -0.328 C  
HETATM   14  C   UNL     1     -10.857   7.627  72.126  1.00  0.00    -0.247 C  
ENDROOT
BRANCH   5  15
HETATM   15  O   UNL     1     -11.028   7.378  67.360  1.00  0.00    -0.243 OA 
BRANCH  15  16
HETATM   16  C   UNL     1     -10.078   6.518  66.676  1.00  0.00    -0.137 C  
HETATM   17  O   UNL     1      -8.606   8.347  65.876  1.00  0.00    -0.140 OA 
HETATM   18  C   UNL     1      -8.663   7.114  66.613  1.00  0.00    -0.128 C  
HETATM   19  C   UNL     1      -8.177   7.330  68.044  1.00  0.00    -0.120 C  
HETATM   20  O   UNL     1      -6.988   8.125  68.002  1.00  0.00    -0.074 OA 
HETATM   21  H   UNL     1      -7.732   8.715  65.837  1.00  0.00     0.000 HD 
HETATM   22  C   UNL     1      -8.033   5.946  68.712  1.00  0.00    -0.103 C  
HETATM   23  O   UNL     1      -9.274   5.217  68.678  1.00  0.00    -0.110 OA 
HETATM   24  O   UNL     1      -7.024   5.130  68.105  1.00  0.00    -0.058 OA 
HETATM   25  H   UNL     1      -6.686   8.260  68.892  1.00  0.00     0.000 HD 
HETATM   26  C   UNL     1      -9.992   5.170  67.432  1.00  0.00    -0.180 C  
HETATM   27  P   UNL     1      -5.457   5.450  68.395  1.00  0.00    -0.008 P  
HETATM   28  C   UNL     1      -9.543   4.069  66.455  1.00  0.00    -0.202 C  
HETATM   29  O   UNL     1      -8.621   3.224  66.963  1.00  0.00    -0.100 OA 
HETATM   30  O   UNL     1      -9.977   3.936  65.319  1.00  0.00    -0.187 OA 
ENDBRANCH  15  16
ENDBRANCH   5  15
TORSDOF 2
ENDMDL
MODEL      225
REMARK 921   NORMALIZED FREE ENERGY PREDICTED BY IDOCK:   -3.19 KCAL/MOL
REMARK 922        TOTAL FREE ENERGY PREDICTED BY IDOCK:   -4.27 KCAL/MOL
REMARK 923 INTER-LIGAND FREE ENERGY PREDICTED BY IDOCK:   -3.80 KCAL/MOL
REMARK 924 INTRA-LIGAND FREE ENERGY PREDICTED BY IDOCK:   -0.48 KCAL/MOL
REMARK 927      BINDING AFFINITY PREDICTED BY RF-SCORE:    0.00 PKD
ROOT
HETATM    1  O   UNL     1      -9.453  10.042  65.761  1.00  0.00    -0.181 OA 
HETATM    2  C   UNL     1     -10.356  10.568  66.754  1.00  0.00    -0.245 C  
HETATM    3  H   UNL     1      -9.544  10.565  64.973  1.00  0.00     0.000 HD 
HETATM    4  C   UNL     1     -10.208   9.721  68.027  1.00  0.00    -0.190 C  
HETATM    5  C   UNL     1      -8.861  10.034  68.747  1.00  0.00    -0.137 C  
HETATM    6  O   UNL     1     -10.368   8.353  67.611  1.00  0.00    -0.226 OA 
HETATM    7  O   UNL     1      -8.042  14.361  66.872  1.00  0.00    -0.131 OA 
HETATM    8  H   UNL     1     -10.277   7.830  68.398  1.00  0.00     0.000 HD 
HETATM    9  O   UNL     1      -8.712  11.459  68.947  1.00  0.00    -0.116 OA 
HETATM   10  C   UNL     1      -8.667  12.138  67.672  1.00  0.00    -0.172 C  
HETATM   11  O   UNL     1      -7.865  13.907  69.083  1.00  0.00    -0.007 OA 
HETATM   12  P   UNL     1     -11.400  12.921  67.904  1.00  0.00    -0.338 P  
HETATM   13  C   UNL     1     -10.026  12.048  66.970  1.00  0.00    -0.204 C  
HETATM   14  C   UNL     1      -8.179  13.578  67.800  1.00  0.00    -0.176 C  
ENDROOT
BRANCH   5  15
HETATM   15  O   UNL     1      -8.725   9.390  70.030  1.00  0.00    -0.170 OA 
BRANCH  15  16
HETATM   16  C   UNL     1      -8.552   7.948  70.022  1.00  0.00    -0.135 C  
HETATM   17  O   UNL     1      -6.075   7.987  69.904  1.00  0.00    -0.026 OA 
HETATM   18  C   UNL     1      -7.215   7.498  70.631  1.00  0.00    -0.067 C  
HETATM   19  C   UNL     1      -7.168   7.982  72.077  1.00  0.00    -0.082 C  
HETATM   20  O   UNL     1      -5.834   7.810  72.568  1.00  0.00    -0.039 OA 
HETATM   21  H   UNL     1      -5.248   7.709  70.280  1.00  0.00     0.000 HD 
HETATM   22  C   UNL     1      -8.270   7.242  72.864  1.00  0.00    -0.106 C  
HETATM   23  O   UNL     1      -9.566   7.457  72.275  1.00  0.00    -0.147 OA 
HETATM   24  O   UNL     1      -8.050   5.828  72.947  1.00  0.00    -0.113 OA 
HETATM   25  H   UNL     1      -5.805   8.112  73.468  1.00  0.00     0.000 HD 
HETATM   26  C   UNL     1      -9.691   7.305  70.850  1.00  0.00    -0.170 C  
HETATM   27  P   UNL     1      -6.919   5.254  73.962  1.00  0.00    -0.079 P  
HETATM   28  C   UNL     1      -9.921   5.864  70.360  1.00  0.00    -0.192 C  
HETATM   29  O   UNL     1     -10.100   4.966  71.352  1.00  0.00    -0.188 OA 
HETATM   30  O   UNL     1      -9.962   5.535  69.183  1.00  0.00    -0.159 OA 
ENDBRANCH  15  16
ENDBRANCH   5  15
TORSDOF 2
ENDMDL
MODEL      226
REMARK 921   NORMALIZED FREE ENERGY PREDICTED BY IDOCK:   -3.18 KCAL/MOL
REMARK 922        TOTAL FREE ENERGY PREDICTED BY IDOCK:   -4.26 KCAL/MOL
REMARK 923 INTER-LIGAND FREE ENERGY PREDICTED BY IDOCK:   -3.93 KCAL/MOL
REMARK 924 INTRA-LIGAND FREE ENERGY PREDICTED BY IDOCK:   -0.32 KCAL/MOL
REMARK 927      BINDING AFFINITY PREDICTED BY RF-SCORE:    0.00 PKD
ROOT
HETATM    1  O   UNL     1     -10.459   7.328  71.778  1.00  0.00    -0.198 OA 
HETATM    2  C   UNL     1      -9.396   6.391  71.512  1.00  0.00    -0.148 C  
HETATM    3  H   UNL     1     -10.332   7.676  72.653  1.00  0.00     0.000 HD 
HETATM    4  C   UNL     1      -9.602   5.829  70.097  1.00  0.00    -0.166 C  
HETATM    5  C   UNL     1      -9.247   6.898  69.018  1.00  0.00    -0.137 C  
HETATM    6  O   UNL     1     -10.960   5.354  70.055  1.00  0.00    -0.249 OA 
HETATM    7  O   UNL     1      -6.423   9.690  71.690  1.00  0.00    -0.302 OA 
HETATM    8  H   UNL     1     -11.086   5.006  69.181  1.00  0.00     0.000 HD 
HETATM    9  O   UNL     1      -7.933   7.450  69.265  1.00  0.00    -0.114 OA 
HETATM   10  C   UNL     1      -7.910   8.127  70.542  1.00  0.00    -0.087 C  
HETATM   11  O   UNL     1      -5.873   8.988  69.609  1.00  0.00    -0.033 OA 
HETATM   12  P   UNL     1      -6.633   5.901  71.788  1.00  0.00    -0.057 P  
HETATM   13  C   UNL     1      -8.059   7.118  71.686  1.00  0.00    -0.102 C  
HETATM   14  C   UNL     1      -6.675   9.008  70.709  1.00  0.00    -0.067 C  
ENDROOT
BRANCH   5  15
HETATM   15  O   UNL     1      -9.267   6.390  67.669  1.00  0.00    -0.118 OA 
BRANCH  15  16
HETATM   16  C   UNL     1      -9.269   4.946  67.515  1.00  0.00    -0.123 C  
HETATM   17  O   UNL     1     -11.171   4.860  65.926  1.00  0.00    -0.785 OA 
HETATM   18  C   UNL     1      -9.801   4.486  66.148  1.00  0.00    -0.230 C  
HETATM   19  C   UNL     1      -8.907   5.087  65.067  1.00  0.00    -0.149 C  
HETATM   20  O   UNL     1      -9.542   4.895  63.798  1.00  0.00    -0.353 OA 
HETATM   21  H   UNL     1     -11.501   4.576  65.082  1.00  0.00     0.000 HD 
HETATM   22  C   UNL     1      -7.501   4.468  65.212  1.00  0.00    -0.077 C  
HETATM   23  O   UNL     1      -6.965   4.692  66.529  1.00  0.00    -0.063 OA 
HETATM   24  O   UNL     1      -7.479   3.057  64.960  1.00  0.00    -0.072 OA 
HETATM   25  H   UNL     1      -8.986   5.270  63.125  1.00  0.00     0.000 HD 
HETATM   26  C   UNL     1      -7.817   4.428  67.657  1.00  0.00    -0.085 C  
HETATM   27  P   UNL     1      -7.575   2.518  63.430  1.00  0.00    -0.064 P  
HETATM   28  C   UNL     1      -7.847   2.963  68.130  1.00  0.00    -0.055 C  
HETATM   29  O   UNL     1      -6.967   2.161  67.495  1.00  0.00    -0.039 OA 
HETATM   30  O   UNL     1      -8.578   2.539  69.014  1.00  0.00    -0.063 OA 
ENDBRANCH  15  16
ENDBRANCH   5  15
TORSDOF 2
ENDMDL
MODEL      227
REMARK 921   NORMALIZED FREE ENERGY PREDICTED BY IDOCK:   -3.14 KCAL/MOL
REMARK 922        TOTAL FREE ENERGY PREDICTED BY IDOCK:   -4.21 KCAL/MOL
REMARK 923 INTER-LIGAND FREE ENERGY PREDICTED BY IDOCK:   -3.39 KCAL/MOL
REMARK 924 INTRA-LIGAND FREE ENERGY PREDICTED BY IDOCK:   -0.82 KCAL/MOL
REMARK 927      BINDING AFFINITY PREDICTED BY RF-SCORE:    0.00 PKD
ROOT
HETATM    1  O   UNL     1      -7.420  11.506  68.151  1.00  0.00    -0.090 OA 
HETATM    2  C   UNL     1      -8.710  11.501  67.508  1.00  0.00    -0.145 C  
HETATM    3  H   UNL     1      -7.451  12.131  68.866  1.00  0.00     0.000 HD 
HETATM    4  C   UNL     1      -8.659  10.490  66.352  1.00  0.00    -0.144 C  
HETATM    5  C   UNL     1      -8.661   9.027  66.894  1.00  0.00    -0.123 C  
HETATM    6  O   UNL     1      -7.505  10.844  65.569  1.00  0.00    -0.340 OA 
HETATM    7  O   UNL     1     -10.563   9.871  71.204  1.00  0.00    -0.250 OA 
HETATM    8  H   UNL     1      -7.474  10.219  64.855  1.00  0.00     0.000 HD 
HETATM    9  O   UNL     1      -9.754   8.832  67.822  1.00  0.00    -0.148 OA 
HETATM   10  C   UNL     1      -9.594   9.698  68.968  1.00  0.00    -0.168 C  
HETATM   11  O   UNL     1     -11.265   8.210  69.836  1.00  0.00    -0.170 OA 
HETATM   12  P   UNL     1     -11.497  11.553  67.931  1.00  0.00    -0.260 P  
HETATM   13  C   UNL     1      -9.771  11.164  68.560  1.00  0.00    -0.196 C  
HETATM   14  C   UNL     1     -10.512   9.306  70.122  1.00  0.00    -0.230 C  
ENDROOT
BRANCH   5  15
HETATM   15  O   UNL     1      -8.772   8.026  65.862  1.00  0.00    -0.148 OA 
BRANCH  15  16
HETATM   16  C   UNL     1      -7.998   6.811  66.046  1.00  0.00    -0.109 C  
HETATM   17  O   UNL     1      -9.538   5.771  67.689  1.00  0.00    -0.111 OA 
HETATM   18  C   UNL     1      -8.860   5.599  66.433  1.00  0.00    -0.129 C  
HETATM   19  C   UNL     1      -9.871   5.363  65.314  1.00  0.00     0.359 C  
HETATM   20  O   UNL     1     -10.846   4.422  65.777  1.00  0.00    -0.566 OA 
HETATM   21  H   UNL     1     -10.071   5.023  67.928  1.00  0.00     0.000 HD 
HETATM   22  C   UNL     1      -9.093   4.951  64.047  1.00  0.00     0.020 C  
HETATM   23  O   UNL     1      -8.122   5.949  63.682  1.00  0.00    -0.117 OA 
HETATM   24  O   UNL     1      -8.409   3.700  64.189  1.00  0.00    -0.089 OA 
HETATM   25  H   UNL     1     -11.475   4.276  65.081  1.00  0.00     0.000 HD 
HETATM   26  C   UNL     1      -7.275   6.475  64.720  1.00  0.00    -0.067 C  
HETATM   27  P   UNL     1      -9.258   2.315  64.136  1.00  0.00    -0.123 P  
HETATM   28  C   UNL     1      -6.017   5.642  65.026  1.00  0.00    -0.022 C  
HETATM   29  O   UNL     1      -5.825   4.603  64.186  1.00  0.00    -0.017 OA 
HETATM   30  O   UNL     1      -5.232   5.886  65.931  1.00  0.00    -0.009 OA 
ENDBRANCH  15  16
ENDBRANCH   5  15
TORSDOF 2
ENDMDL
MODEL      228
REMARK 921   NORMALIZED FREE ENERGY PREDICTED BY IDOCK:   -3.09 KCAL/MOL
REMARK 922        TOTAL FREE ENERGY PREDICTED BY IDOCK:   -4.15 KCAL/MOL
REMARK 923 INTER-LIGAND FREE ENERGY PREDICTED BY IDOCK:   -3.52 KCAL/MOL
REMARK 924 INTRA-LIGAND FREE ENERGY PREDICTED BY IDOCK:   -0.63 KCAL/MOL
REMARK 927      BINDING AFFINITY PREDICTED BY RF-SCORE:    0.00 PKD
ROOT
HETATM    1  O   UNL     1      -9.327   3.465  68.201  1.00  0.00    -0.170 OA 
HETATM    2  C   UNL     1      -9.787   4.067  66.974  1.00  0.00    -0.110 C  
HETATM    3  H   UNL     1      -9.381   2.522  68.104  1.00  0.00     0.000 HD 
HETATM    4  C   UNL     1      -9.699   5.592  67.131  1.00  0.00    -0.139 C  
HETATM    5  C   UNL     1      -8.216   6.071  67.085  1.00  0.00    -0.105 C  
HETATM    6  O   UNL     1     -10.398   5.903  68.351  1.00  0.00    -0.170 OA 
HETATM    7  O   UNL     1      -6.331   2.311  64.800  1.00  0.00    -0.018 OA 
HETATM    8  H   UNL     1     -10.344   6.847  68.448  1.00  0.00     0.000 HD 
HETATM    9  O   UNL     1      -7.550   5.544  65.913  1.00  0.00    -0.081 OA 
HETATM   10  C   UNL     1      -7.518   4.100  65.967  1.00  0.00    -0.084 C  
HETATM   11  O   UNL     1      -5.903   4.460  64.229  1.00  0.00    -0.014 OA 
HETATM   12  P   UNL     1      -9.717   3.905  64.160  1.00  0.00    -0.164 P  
HETATM   13  C   UNL     1      -8.932   3.527  65.823  1.00  0.00    -0.140 C  
HETATM   14  C   UNL     1      -6.549   3.503  64.950  1.00  0.00    -0.040 C  
ENDROOT
BRANCH   5  15
HETATM   15  O   UNL     1      -8.068   7.505  67.070  1.00  0.00    -0.113 OA 
BRANCH  15  16
HETATM   16  C   UNL     1      -8.698   8.215  65.970  1.00  0.00    -0.156 C  
HETATM   17  O   UNL     1     -10.944   8.359  67.013  1.00  0.00    -0.378 OA 
HETATM   18  C   UNL     1      -9.868   9.105  66.419  1.00  0.00    -0.280 C  
HETATM   19  C   UNL     1      -9.326  10.131  67.410  1.00  0.00    -0.148 C  
HETATM   20  O   UNL     1     -10.436  10.784  68.037  1.00  0.00    -0.175 OA 
HETATM   21  H   UNL     1     -11.667   8.909  67.290  1.00  0.00     0.000 HD 
HETATM   22  C   UNL     1      -8.348  11.055  66.654  1.00  0.00    -0.155 C  
HETATM   23  O   UNL     1      -7.287  10.300  66.039  1.00  0.00    -0.115 OA 
HETATM   24  O   UNL     1      -8.985  11.835  65.634  1.00  0.00    -0.102 OA 
HETATM   25  H   UNL     1     -10.099  11.422  68.654  1.00  0.00     0.000 HD 
HETATM   26  C   UNL     1      -7.644   9.123  65.294  1.00  0.00    -0.098 C  
HETATM   27  P   UNL     1      -9.890  13.116  66.057  1.00  0.00    -0.171 P  
HETATM   28  C   UNL     1      -8.053   9.370  63.830  1.00  0.00    -0.155 C  
HETATM   29  O   UNL     1      -7.895  10.647  63.422  1.00  0.00    -0.076 OA 
HETATM   30  O   UNL     1      -8.470   8.503  63.075  1.00  0.00    -0.164 OA 
ENDBRANCH  15  16
ENDBRANCH   5  15
TORSDOF 2
ENDMDL
MODEL      229
REMARK 921   NORMALIZED FREE ENERGY PREDICTED BY IDOCK:   -3.04 KCAL/MOL
REMARK 922        TOTAL FREE ENERGY PREDICTED BY IDOCK:   -4.11 KCAL/MOL
REMARK 923 INTER-LIGAND FREE ENERGY PREDICTED BY IDOCK:   -3.19 KCAL/MOL
REMARK 924 INTRA-LIGAND FREE ENERGY PREDICTED BY IDOCK:   -0.92 KCAL/MOL
REMARK 927      BINDING AFFINITY PREDICTED BY RF-SCORE:    0.00 PKD
ROOT
HETATM    1  O   UNL     1      -8.242   3.055  68.822  1.00  0.00    -0.059 OA 
HETATM    2  C   UNL     1      -9.164   3.632  67.877  1.00  0.00    -0.176 C  
HETATM    3  H   UNL     1      -8.007   2.188  68.512  1.00  0.00     0.000 HD 
HETATM    4  C   UNL     1      -9.543   5.034  68.379  1.00  0.00    -0.144 C  
HETATM    5  C   UNL     1      -8.359   6.031  68.190  1.00  0.00    -0.113 C  
HETATM    6  O   UNL     1      -9.977   4.861  69.741  1.00  0.00    -0.209 OA 
HETATM    7  O   UNL     1      -5.984   3.666  64.772  1.00  0.00    -0.021 OA 
HETATM    8  H   UNL     1     -10.211   5.727  70.051  1.00  0.00     0.000 HD 
HETATM    9  O   UNL     1      -7.873   5.987  66.827  1.00  0.00    -0.099 OA 
HETATM   10  C   UNL     1      -7.358   4.670  66.526  1.00  0.00    -0.081 C  
HETATM   11  O   UNL     1      -6.439   5.882  64.669  1.00  0.00    -0.036 OA 
HETATM   12  P   UNL     1      -9.751   3.967  65.139  1.00  0.00    -0.189 P  
HETATM   13  C   UNL     1      -8.496   3.644  66.499  1.00  0.00    -0.107 C  
HETATM   14  C   UNL     1      -6.535   4.650  65.241  1.00  0.00    -0.036 C  
ENDROOT
BRANCH   5  15
HETATM   15  O   UNL     1      -8.696   7.399  68.495  1.00  0.00    -0.128 OA 
BRANCH  15  16
HETATM   16  C   UNL     1      -7.594   8.340  68.575  1.00  0.00    -0.100 C  
HETATM   17  O   UNL     1      -7.345   8.651  66.127  1.00  0.00    -0.083 OA 
HETATM   18  C   UNL     1      -7.545   9.314  67.386  1.00  0.00    -0.088 C  
HETATM   19  C   UNL     1      -8.853  10.101  67.367  1.00  0.00    -0.131 C  
HETATM   20  O   UNL     1      -8.937  10.807  66.125  1.00  0.00    -0.165 OA 
HETATM   21  H   UNL     1      -7.314   9.252  65.392  1.00  0.00     0.000 HD 
HETATM   22  C   UNL     1      -8.902  10.975  68.638  1.00  0.00    -0.164 C  
HETATM   23  O   UNL     1      -8.783  10.174  69.828  1.00  0.00    -0.188 OA 
HETATM   24  O   UNL     1      -7.876  11.975  68.673  1.00  0.00    -0.133 OA 
HETATM   25  H   UNL     1      -9.751  11.297  66.113  1.00  0.00     0.000 HD 
HETATM   26  C   UNL     1      -7.745   9.178  69.867  1.00  0.00    -0.087 C  
HETATM   27  P   UNL     1      -8.018  13.298  67.740  1.00  0.00    -0.200 P  
HETATM   28  C   UNL     1      -6.360   9.688  70.306  1.00  0.00    -0.076 C  
HETATM   29  O   UNL     1      -6.350  10.974  70.713  1.00  0.00    -0.349 OA 
HETATM   30  O   UNL     1      -5.345   9.006  70.313  1.00  0.00    -0.027 OA 
ENDBRANCH  15  16
ENDBRANCH   5  15
TORSDOF 2
ENDMDL
MODEL      230
REMARK 921   NORMALIZED FREE ENERGY PREDICTED BY IDOCK:   -2.97 KCAL/MOL
REMARK 922        TOTAL FREE ENERGY PREDICTED BY IDOCK:   -4.03 KCAL/MOL
REMARK 923 INTER-LIGAND FREE ENERGY PREDICTED BY IDOCK:   -3.61 KCAL/MOL
REMARK 924 INTRA-LIGAND FREE ENERGY PREDICTED BY IDOCK:   -0.42 KCAL/MOL
REMARK 927      BINDING AFFINITY PREDICTED BY RF-SCORE:    0.00 PKD
ROOT
HETATM    1  O   UNL     1     -10.779  16.533  69.253  1.00  0.00    -0.295 OA 
HETATM    2  C   UNL     1     -12.066  15.885  69.304  1.00  0.00    -0.151 C  
HETATM    3  H   UNL     1     -10.868  17.393  69.645  1.00  0.00     0.000 HD 
HETATM    4  C   UNL     1     -11.922  14.493  68.670  1.00  0.00    -0.285 C  
HETATM    5  C   UNL     1     -11.138  13.531  69.614  1.00  0.00     0.019 C  
HETATM    6  O   UNL     1     -11.314  14.707  67.383  1.00  0.00    -0.328 OA 
HETATM    7  O   UNL     1     -11.880  15.833  73.745  1.00  0.00    -0.352 OA 
HETATM    8  H   UNL     1     -11.226  13.847  66.991  1.00  0.00     0.000 HD 
HETATM    9  O   UNL     1     -11.720  13.535  70.939  1.00  0.00    -0.082 OA 
HETATM   10  C   UNL     1     -11.624  14.855  71.520  1.00  0.00    -0.301 C  
HETATM   11  O   UNL     1     -12.162  13.600  73.494  1.00  0.00     0.617 OA 
HETATM   12  P   UNL     1     -14.350  15.417  70.891  1.00  0.00     0.875 P  
HETATM   13  C   UNL     1     -12.524  15.839  70.765  1.00  0.00    -0.374 C  
HETATM   14  C   UNL     1     -11.906  14.850  73.019  1.00  0.00    -0.163 C  
ENDROOT
BRANCH   5  15
HETATM   15  O   UNL     1     -11.101  12.166  69.152  1.00  0.00    -0.232 OA 
BRANCH  15  16
HETATM   16  C   UNL     1     -10.215  11.879  68.037  1.00  0.00    -0.192 C  
HETATM   17  O   UNL     1      -8.129  11.818  69.378  1.00  0.00    -0.315 OA 
HETATM   18  C   UNL     1      -8.959  11.096  68.452  1.00  0.00    -0.165 C  
HETATM   19  C   UNL     1      -9.409   9.773  69.066  1.00  0.00    -0.161 C  
HETATM   20  O   UNL     1      -8.278   9.161  69.697  1.00  0.00    -0.103 OA 
HETATM   21  H   UNL     1      -7.353  11.335  69.634  1.00  0.00     0.000 HD 
HETATM   22  C   UNL     1     -10.089   8.940  67.959  1.00  0.00    -0.195 C  
HETATM   23  O   UNL     1     -11.192   9.654  67.372  1.00  0.00    -0.077 OA 
HETATM   24  O   UNL     1      -9.192   8.566  66.905  1.00  0.00    -0.144 OA 
HETATM   25  H   UNL     1      -8.559   8.338  70.079  1.00  0.00     0.000 HD 
HETATM   26  C   UNL     1     -10.982  11.027  66.997  1.00  0.00    -0.272 C  
HETATM   27  P   UNL     1      -8.115   7.377  67.158  1.00  0.00    -0.116 P  
HETATM   28  C   UNL     1     -10.356  11.241  65.607  1.00  0.00    -0.256 C  
HETATM   29  O   UNL     1     -10.212  10.109  64.887  1.00  0.00    -0.300 OA 
HETATM   30  O   UNL     1     -10.025  12.331  65.160  1.00  0.00    -0.261 OA 
ENDBRANCH  15  16
ENDBRANCH   5  15
TORSDOF 2
ENDMDL
MODEL      231
REMARK 921   NORMALIZED FREE ENERGY PREDICTED BY IDOCK:   -2.95 KCAL/MOL
REMARK 922        TOTAL FREE ENERGY PREDICTED BY IDOCK:   -4.00 KCAL/MOL
REMARK 923 INTER-LIGAND FREE ENERGY PREDICTED BY IDOCK:   -3.14 KCAL/MOL
REMARK 924 INTRA-LIGAND FREE ENERGY PREDICTED BY IDOCK:   -0.86 KCAL/MOL
REMARK 927      BINDING AFFINITY PREDICTED BY RF-SCORE:    0.00 PKD
ROOT
HETATM    1  O   UNL     1     -10.361   7.182  71.520  1.00  0.00    -0.202 OA 
HETATM    2  C   UNL     1     -10.644   5.780  71.338  1.00  0.00    -0.253 C  
HETATM    3  H   UNL     1     -10.332   7.357  72.453  1.00  0.00     0.000 HD 
HETATM    4  C   UNL     1     -10.692   5.497  69.829  1.00  0.00    -0.285 C  
HETATM    5  C   UNL     1      -9.260   5.529  69.212  1.00  0.00    -0.113 C  
HETATM    6  O   UNL     1     -11.610   6.458  69.277  1.00  0.00    -0.611 OA 
HETATM    7  O   UNL     1      -6.750   4.737  73.210  1.00  0.00    -0.062 OA 
HETATM    8  H   UNL     1     -11.640   6.283  68.344  1.00  0.00     0.000 HD 
HETATM    9  O   UNL     1      -8.366   4.671  69.961  1.00  0.00    -0.067 OA 
HETATM   10  C   UNL     1      -8.243   5.148  71.320  1.00  0.00    -0.117 C  
HETATM   11  O   UNL     1      -6.382   3.633  71.268  1.00  0.00    -0.017 OA 
HETATM   12  P   UNL     1     -10.078   3.176  72.260  1.00  0.00    -0.052 P  
HETATM   13  C   UNL     1      -9.568   4.973  72.071  1.00  0.00    -0.156 C  
HETATM   14  C   UNL     1      -7.074   4.500  72.057  1.00  0.00    -0.057 C  
ENDROOT
BRANCH   5  15
HETATM   15  O   UNL     1      -9.213   5.119  67.831  1.00  0.00    -0.110 OA 
BRANCH  15  16
HETATM   16  C   UNL     1      -8.191   5.736  67.002  1.00  0.00    -0.101 C  
HETATM   17  O   UNL     1      -6.265   4.631  68.106  1.00  0.00    -0.033 OA 
HETATM   18  C   UNL     1      -6.930   4.869  66.855  1.00  0.00    -0.064 C  
HETATM   19  C   UNL     1      -7.340   3.546  66.214  1.00  0.00    -0.076 C  
HETATM   20  O   UNL     1      -6.241   2.634  66.318  1.00  0.00    -0.023 OA 
HETATM   21  H   UNL     1      -5.485   4.095  68.016  1.00  0.00     0.000 HD 
HETATM   22  C   UNL     1      -7.830   3.841  64.780  1.00  0.00    -0.085 C  
HETATM   23  O   UNL     1      -8.915   4.787  64.783  1.00  0.00    -0.152 OA 
HETATM   24  O   UNL     1      -6.798   4.354  63.928  1.00  0.00    -0.042 OA 
HETATM   25  H   UNL     1      -6.496   1.810  65.920  1.00  0.00     0.000 HD 
HETATM   26  C   UNL     1      -8.773   5.972  65.587  1.00  0.00    -0.137 C  
HETATM   27  P   UNL     1      -5.665   3.344  63.348  1.00  0.00    -0.014 P  
HETATM   28  C   UNL     1      -8.018   7.135  64.917  1.00  0.00    -0.127 C  
HETATM   29  O   UNL     1      -7.709   6.917  63.622  1.00  0.00    -0.102 OA 
HETATM   30  O   UNL     1      -7.726   8.181  65.478  1.00  0.00    -0.086 OA 
ENDBRANCH  15  16
ENDBRANCH   5  15
TORSDOF 2
ENDMDL
MODEL      232
REMARK 921   NORMALIZED FREE ENERGY PREDICTED BY IDOCK:   -2.82 KCAL/MOL
REMARK 922        TOTAL FREE ENERGY PREDICTED BY IDOCK:   -3.86 KCAL/MOL
REMARK 923 INTER-LIGAND FREE ENERGY PREDICTED BY IDOCK:   -3.49 KCAL/MOL
REMARK 924 INTRA-LIGAND FREE ENERGY PREDICTED BY IDOCK:   -0.37 KCAL/MOL
REMARK 927      BINDING AFFINITY PREDICTED BY RF-SCORE:    0.00 PKD
ROOT
HETATM    1  O   UNL     1      -7.687   4.352  73.424  1.00  0.00    -0.083 OA 
HETATM    2  C   UNL     1      -8.735   3.935  72.526  1.00  0.00    -0.102 C  
HETATM    3  H   UNL     1      -7.296   3.573  73.801  1.00  0.00     0.000 HD 
HETATM    4  C   UNL     1      -9.367   5.196  71.916  1.00  0.00    -0.142 C  
HETATM    5  C   UNL     1      -8.410   5.847  70.871  1.00  0.00    -0.126 C  
HETATM    6  O   UNL     1      -9.713   6.041  73.029  1.00  0.00    -0.157 OA 
HETATM    7  O   UNL     1      -5.727   2.008  69.883  1.00  0.00    -0.016 OA 
HETATM    8  H   UNL     1     -10.104   6.820  72.651  1.00  0.00     0.000 HD 
HETATM    9  O   UNL     1      -7.969   4.863  69.906  1.00  0.00    -0.068 OA 
HETATM   10  C   UNL     1      -7.215   3.821  70.567  1.00  0.00    -0.041 C  
HETATM   11  O   UNL     1      -6.613   3.353  68.291  1.00  0.00    -0.036 OA 
HETATM   12  P   UNL     1      -9.465   2.068  70.543  1.00  0.00    -0.007 P  
HETATM   13  C   UNL     1      -8.128   2.996  71.480  1.00  0.00    -0.060 C  
HETATM   14  C   UNL     1      -6.446   2.948  69.580  1.00  0.00    -0.029 C  
ENDROOT
BRANCH   5  15
HETATM   15  O   UNL     1      -9.000   6.944  70.146  1.00  0.00    -0.147 OA 
BRANCH  15  16
HETATM   16  C   UNL     1      -9.596   8.005  70.940  1.00  0.00    -0.161 C  
HETATM   17  O   UNL     1      -7.546   9.393  71.091  1.00  0.00    -0.306 OA 
HETATM   18  C   UNL     1      -8.932   9.373  70.712  1.00  0.00    -0.191 C  
HETATM   19  C   UNL     1      -9.083   9.730  69.236  1.00  0.00    -0.184 C  
HETATM   20  O   UNL     1      -8.244  10.857  68.956  1.00  0.00    -0.164 OA 
HETATM   21  H   UNL     1      -7.136  10.238  70.951  1.00  0.00     0.000 HD 
HETATM   22  C   UNL     1     -10.585   9.926  68.943  1.00  0.00    -0.218 C  
HETATM   23  O   UNL     1     -11.341   8.749  69.283  1.00  0.00     0.144 OA 
HETATM   24  O   UNL     1     -11.155  11.037  69.646  1.00  0.00    -0.251 OA 
HETATM   25  H   UNL     1      -8.337  11.079  68.038  1.00  0.00     0.000 HD 
HETATM   26  C   UNL     1     -11.090   8.133  70.558  1.00  0.00    -0.253 C  
HETATM   27  P   UNL     1     -10.844  12.548  69.137  1.00  0.00     0.081 P  
HETATM   28  C   UNL     1     -11.865   8.737  71.744  1.00  0.00    -0.344 C  
HETATM   29  O   UNL     1     -12.766   9.677  71.392  1.00  0.00    -0.328 OA 
HETATM   30  O   UNL     1     -11.712   8.401  72.910  1.00  0.00    -0.300 OA 
ENDBRANCH  15  16
ENDBRANCH   5  15
TORSDOF 2
ENDMDL
MODEL      233
REMARK 921   NORMALIZED FREE ENERGY PREDICTED BY IDOCK:   -2.74 KCAL/MOL
REMARK 922        TOTAL FREE ENERGY PREDICTED BY IDOCK:   -3.77 KCAL/MOL
REMARK 923 INTER-LIGAND FREE ENERGY PREDICTED BY IDOCK:   -3.78 KCAL/MOL
REMARK 924 INTRA-LIGAND FREE ENERGY PREDICTED BY IDOCK:    0.01 KCAL/MOL
REMARK 927      BINDING AFFINITY PREDICTED BY RF-SCORE:    0.00 PKD
ROOT
HETATM    1  O   UNL     1      -9.819  13.173  64.624  1.00  0.00    -0.583 OA 
HETATM    2  C   UNL     1     -10.172  12.973  66.007  1.00  0.00    -0.287 C  
HETATM    3  H   UNL     1      -9.443  14.041  64.538  1.00  0.00     0.000 HD 
HETATM    4  C   UNL     1     -10.780  11.569  66.145  1.00  0.00    -0.274 C  
HETATM    5  C   UNL     1      -9.678  10.473  66.024  1.00  0.00    -0.205 C  
HETATM    6  O   UNL     1     -11.822  11.493  65.155  1.00  0.00    -0.060 OA 
HETATM    7  O   UNL     1      -5.879  13.160  67.144  1.00  0.00    -0.332 OA 
HETATM    8  H   UNL     1     -12.198  10.625  65.240  1.00  0.00     0.000 HD 
HETATM    9  O   UNL     1      -8.585  10.750  66.930  1.00  0.00    -0.129 OA 
HETATM   10  C   UNL     1      -7.959  12.006  66.584  1.00  0.00     0.013 C  
HETATM   11  O   UNL     1      -6.275  11.122  68.047  1.00  0.00    -0.049 OA 
HETATM   12  P   UNL     1      -9.347  13.364  68.675  1.00  0.00     0.179 P  
HETATM   13  C   UNL     1      -8.914  13.173  66.858  1.00  0.00    -0.209 C  
HETATM   14  C   UNL     1      -6.611  12.192  67.275  1.00  0.00    -0.146 C  
ENDROOT
BRANCH   5  15
HETATM   15  O   UNL     1     -10.153   9.139  66.298  1.00  0.00    -0.286 OA 
BRANCH  15  16
HETATM   16  C   UNL     1      -9.396   8.363  67.265  1.00  0.00    -0.146 C  
HETATM   17  O   UNL     1      -9.523  10.036  69.091  1.00  0.00    -0.183 OA 
HETATM   18  C   UNL     1      -9.782   8.672  68.720  1.00  0.00    -0.166 C  
HETATM   19  C   UNL     1     -11.264   8.349  68.894  1.00  0.00     0.462 C  
HETATM   20  O   UNL     1     -11.698   8.881  70.150  1.00  0.00    -0.466 OA 
HETATM   21  H   UNL     1      -9.761  10.228  69.990  1.00  0.00     0.000 HD 
HETATM   22  C   UNL     1     -11.445   6.827  68.714  1.00  0.00     0.102 C  
HETATM   23  O   UNL     1     -10.953   6.390  67.433  1.00  0.00    -0.326 OA 
HETATM   24  O   UNL     1     -10.783   6.058  69.727  1.00  0.00    -0.263 OA 
HETATM   25  H   UNL     1     -12.620   8.680  70.258  1.00  0.00     0.000 HD 
HETATM   26  C   UNL     1      -9.660   6.859  67.013  1.00  0.00    -0.158 C  
HETATM   27  P   UNL     1     -11.430   5.974  71.215  1.00  0.00     0.027 P  
HETATM   28  C   UNL     1      -8.463   6.041  67.533  1.00  0.00    -0.107 C  
HETATM   29  O   UNL     1      -8.810   4.925  68.206  1.00  0.00    -0.101 OA 
HETATM   30  O   UNL     1      -7.292   6.343  67.352  1.00  0.00    -0.083 OA 
ENDBRANCH  15  16
ENDBRANCH   5  15
TORSDOF 2
ENDMDL
MODEL      234
REMARK 921   NORMALIZED FREE ENERGY PREDICTED BY IDOCK:   -2.73 KCAL/MOL
REMARK 922        TOTAL FREE ENERGY PREDICTED BY IDOCK:   -3.76 KCAL/MOL
REMARK 923 INTER-LIGAND FREE ENERGY PREDICTED BY IDOCK:   -3.40 KCAL/MOL
REMARK 924 INTRA-LIGAND FREE ENERGY PREDICTED BY IDOCK:   -0.35 KCAL/MOL
REMARK 927      BINDING AFFINITY PREDICTED BY RF-SCORE:    0.00 PKD
ROOT
HETATM    1  O   UNL     1      -6.827   6.994  73.697  1.00  0.00    -0.070 OA 
HETATM    2  C   UNL     1      -8.088   7.225  73.039  1.00  0.00    -0.105 C  
HETATM    3  H   UNL     1      -6.998   6.517  74.500  1.00  0.00     0.000 HD 
HETATM    4  C   UNL     1      -7.811   7.997  71.740  1.00  0.00    -0.110 C  
HETATM    5  C   UNL     1      -7.156   7.069  70.671  1.00  0.00    -0.067 C  
HETATM    6  O   UNL     1      -7.018   9.137  72.120  1.00  0.00    -0.319 OA 
HETATM    7  O   UNL     1      -8.586   2.852  72.425  1.00  0.00    -0.073 OA 
HETATM    8  H   UNL     1      -6.848   9.614  71.317  1.00  0.00     0.000 HD 
HETATM    9  O   UNL     1      -7.935   5.861  70.503  1.00  0.00    -0.102 OA 
HETATM   10  C   UNL     1      -7.965   5.113  71.740  1.00  0.00    -0.111 C  
HETATM   11  O   UNL     1      -8.766   3.419  70.241  1.00  0.00    -0.060 OA 
HETATM   12  P   UNL     1     -10.575   6.085  72.357  1.00  0.00    -0.242 P  
HETATM   13  C   UNL     1      -8.764   5.871  72.805  1.00  0.00    -0.125 C  
HETATM   14  C   UNL     1      -8.474   3.688  71.543  1.00  0.00    -0.073 C  
ENDROOT
BRANCH   5  15
HETATM   15  O   UNL     1      -7.012   7.686  69.376  1.00  0.00    -0.060 OA 
BRANCH  15  16
HETATM   16  C   UNL     1      -7.823   8.863  69.119  1.00  0.00    -0.093 C  
HETATM   17  O   UNL     1      -5.971  10.267  68.252  1.00  0.00    -0.041 OA 
HETATM   18  C   UNL     1      -7.277   9.734  67.976  1.00  0.00    -0.080 C  
HETATM   19  C   UNL     1      -7.245   8.883  66.710  1.00  0.00    -0.082 C  
HETATM   20  O   UNL     1      -6.494   9.585  65.713  1.00  0.00    -0.070 OA 
HETATM   21  H   UNL     1      -5.634  10.805  67.546  1.00  0.00     0.000 HD 
HETATM   22  C   UNL     1      -8.700   8.536  66.330  1.00  0.00    -0.142 C  
HETATM   23  O   UNL     1      -9.373   7.858  67.406  1.00  0.00    -0.137 OA 
HETATM   24  O   UNL     1      -9.478   9.686  65.976  1.00  0.00    -0.187 OA 
HETATM   25  H   UNL     1      -6.473   9.056  64.925  1.00  0.00     0.000 HD 
HETATM   26  C   UNL     1      -9.251   8.409  68.730  1.00  0.00    -0.143 C  
HETATM   27  P   UNL     1      -9.252  10.388  64.528  1.00  0.00    -0.292 P  
HETATM   28  C   UNL     1     -10.249   9.530  69.070  1.00  0.00    -0.200 C  
HETATM   29  O   UNL     1     -11.180   9.746  68.118  1.00  0.00    -0.163 OA 
HETATM   30  O   UNL     1     -10.236  10.173  70.111  1.00  0.00    -0.255 OA 
ENDBRANCH  15  16
ENDBRANCH   5  15
TORSDOF 2
ENDMDL
MODEL      235
REMARK 921   NORMALIZED FREE ENERGY PREDICTED BY IDOCK:   -2.72 KCAL/MOL
REMARK 922        TOTAL FREE ENERGY PREDICTED BY IDOCK:   -3.75 KCAL/MOL
REMARK 923 INTER-LIGAND FREE ENERGY PREDICTED BY IDOCK:   -2.87 KCAL/MOL
REMARK 924 INTRA-LIGAND FREE ENERGY PREDICTED BY IDOCK:   -0.88 KCAL/MOL
REMARK 927      BINDING AFFINITY PREDICTED BY RF-SCORE:    0.00 PKD
ROOT
HETATM    1  O   UNL     1     -10.353  10.370  66.078  1.00  0.00    -0.241 OA 
HETATM    2  C   UNL     1     -10.680  10.042  67.444  1.00  0.00    -0.274 C  
HETATM    3  H   UNL     1     -10.568  11.284  65.936  1.00  0.00     0.000 HD 
HETATM    4  C   UNL     1     -10.333   8.563  67.673  1.00  0.00    -0.253 C  
HETATM    5  C   UNL     1      -8.788   8.361  67.748  1.00  0.00    -0.137 C  
HETATM    6  O   UNL     1     -10.988   7.836  66.618  1.00  0.00    -0.348 OA 
HETATM    7  O   UNL     1      -7.542  12.841  68.884  1.00  0.00    -0.062 OA 
HETATM    8  H   UNL     1     -10.774   6.922  66.760  1.00  0.00     0.000 HD 
HETATM    9  O   UNL     1      -8.203   9.276  68.704  1.00  0.00    -0.110 OA 
HETATM   10  C   UNL     1      -8.422  10.642  68.283  1.00  0.00    -0.127 C  
HETATM   11  O   UNL     1      -6.739  11.014  69.953  1.00  0.00    -0.142 OA 
HETATM   12  P   UNL     1     -10.589  10.940  70.115  1.00  0.00     0.699 P  
HETATM   13  C   UNL     1      -9.911  10.994  68.365  1.00  0.00    -0.186 C  
HETATM   14  C   UNL     1      -7.553  11.631  69.054  1.00  0.00    -0.027 C  
ENDROOT
BRANCH   5  15
HETATM   15  O   UNL     1      -8.394   7.024  68.116  1.00  0.00    -0.121 OA 
BRANCH  15  16
HETATM   16  C   UNL     1      -9.303   6.291  68.980  1.00  0.00    -0.126 C  
HETATM   17  O   UNL     1     -10.335   4.936  67.177  1.00  0.00    -0.189 OA 
HETATM   18  C   UNL     1      -9.652   4.894  68.441  1.00  0.00    -0.146 C  
HETATM   19  C   UNL     1      -8.356   4.099  68.317  1.00  0.00    -0.092 C  
HETATM   20  O   UNL     1      -8.627   2.908  67.570  1.00  0.00    -0.087 OA 
HETATM   21  H   UNL     1     -10.551   4.074  66.844  1.00  0.00     0.000 HD 
HETATM   22  C   UNL     1      -7.789   3.884  69.736  1.00  0.00    -0.051 C  
HETATM   23  O   UNL     1      -7.579   5.138  70.410  1.00  0.00    -0.067 OA 
HETATM   24  O   UNL     1      -8.635   3.074  70.562  1.00  0.00    -0.058 OA 
HETATM   25  H   UNL     1      -7.820   2.413  67.492  1.00  0.00     0.000 HD 
HETATM   26  C   UNL     1      -8.637   6.112  70.366  1.00  0.00    -0.134 C  
HETATM   27  P   UNL     1      -8.684   1.467  70.323  1.00  0.00    -0.064 P  
HETATM   28  C   UNL     1      -9.732   5.943  71.436  1.00  0.00    -0.166 C  
HETATM   29  O   UNL     1      -9.472   4.977  72.342  1.00  0.00    -0.138 OA 
HETATM   30  O   UNL     1     -10.748   6.620  71.494  1.00  0.00    -0.223 OA 
ENDBRANCH  15  16
ENDBRANCH   5  15
TORSDOF 2
ENDMDL
MODEL      236
REMARK 921   NORMALIZED FREE ENERGY PREDICTED BY IDOCK:   -2.71 KCAL/MOL
REMARK 922        TOTAL FREE ENERGY PREDICTED BY IDOCK:   -3.73 KCAL/MOL
REMARK 923 INTER-LIGAND FREE ENERGY PREDICTED BY IDOCK:   -2.90 KCAL/MOL
REMARK 924 INTRA-LIGAND FREE ENERGY PREDICTED BY IDOCK:   -0.83 KCAL/MOL
REMARK 927      BINDING AFFINITY PREDICTED BY RF-SCORE:    0.00 PKD
ROOT
HETATM    1  O   UNL     1      -7.391   6.340  64.372  1.00  0.00    -0.063 OA 
HETATM    2  C   UNL     1      -8.438   7.000  65.110  1.00  0.00    -0.014 C  
HETATM    3  H   UNL     1      -7.120   6.916  63.667  1.00  0.00     0.000 HD 
HETATM    4  C   UNL     1      -8.877   6.067  66.249  1.00  0.00    -0.141 C  
HETATM    5  C   UNL     1      -7.796   6.017  67.372  1.00  0.00    -0.102 C  
HETATM    6  O   UNL     1      -9.168   4.801  65.632  1.00  0.00    -0.142 OA 
HETATM    7  O   UNL     1      -5.571  10.142  66.400  1.00  0.00    -0.047 OA 
HETATM    8  H   UNL     1      -9.439   4.224  66.336  1.00  0.00     0.000 HD 
HETATM    9  O   UNL     1      -7.436   7.355  67.790  1.00  0.00    -0.096 OA 
HETATM   10  C   UNL     1      -6.851   8.080  66.684  1.00  0.00    -0.068 C  
HETATM   11  O   UNL     1      -6.203   9.528  68.485  1.00  0.00    -0.047 OA 
HETATM   12  P   UNL     1      -9.300   9.458  66.191  1.00  0.00    -0.244 P  
HETATM   13  C   UNL     1      -7.904   8.348  65.604  1.00  0.00    -0.106 C  
HETATM   14  C   UNL     1      -6.151   9.358  67.136  1.00  0.00    -0.063 C  
ENDROOT
BRANCH   5  15
HETATM   15  O   UNL     1      -8.208   5.284  68.543  1.00  0.00    -0.090 OA 
BRANCH  15  16
HETATM   16  C   UNL     1      -7.891   5.878  69.830  1.00  0.00    -0.096 C  
HETATM   17  O   UNL     1      -9.740   7.532  69.810  1.00  0.00    -0.170 OA 
HETATM   18  C   UNL     1      -9.122   6.462  70.544  1.00  0.00    -0.155 C  
HETATM   19  C   UNL     1     -10.119   5.329  70.767  1.00  0.00    -0.224 C  
HETATM   20  O   UNL     1     -11.366   5.899  71.179  1.00  0.00    -0.262 OA 
HETATM   21  H   UNL     1     -10.500   7.893  70.251  1.00  0.00     0.000 HD 
HETATM   22  C   UNL     1      -9.487   4.323  71.752  1.00  0.00    -0.145 C  
HETATM   23  O   UNL     1      -8.227   3.831  71.259  1.00  0.00    -0.069 OA 
HETATM   24  O   UNL     1      -9.266   4.875  73.056  1.00  0.00    -0.120 OA 
HETATM   25  H   UNL     1     -11.987   5.194  71.317  1.00  0.00     0.000 HD 
HETATM   26  C   UNL     1      -7.284   4.789  70.747  1.00  0.00    -0.049 C  
HETATM   27  P   UNL     1     -10.528   5.086  74.058  1.00  0.00    -0.278 P  
HETATM   28  C   UNL     1      -6.387   5.459  71.804  1.00  0.00    -0.039 C  
HETATM   29  O   UNL     1      -6.530   4.955  73.047  1.00  0.00    -0.047 OA 
HETATM   30  O   UNL     1      -5.594   6.358  71.564  1.00  0.00    -0.026 OA 
ENDBRANCH  15  16
ENDBRANCH   5  15
TORSDOF 2
ENDMDL
MODEL      237
REMARK 921   NORMALIZED FREE ENERGY PREDICTED BY IDOCK:   -2.65 KCAL/MOL
REMARK 922        TOTAL FREE ENERGY PREDICTED BY IDOCK:   -3.67 KCAL/MOL
REMARK 923 INTER-LIGAND FREE ENERGY PREDICTED BY IDOCK:   -3.04 KCAL/MOL
REMARK 924 INTRA-LIGAND FREE ENERGY PREDICTED BY IDOCK:   -0.63 KCAL/MOL
REMARK 927      BINDING AFFINITY PREDICTED BY RF-SCORE:    0.00 PKD
ROOT
HETATM    1  O   UNL     1     -10.742   8.171  71.313  1.00  0.00    -0.220 OA 
HETATM    2  C   UNL     1     -10.248   6.836  71.082  1.00  0.00    -0.193 C  
HETATM    3  H   UNL     1     -10.946   8.253  72.237  1.00  0.00     0.000 HD 
HETATM    4  C   UNL     1      -9.919   6.703  69.587  1.00  0.00    -0.175 C  
HETATM    5  C   UNL     1      -8.624   7.496  69.232  1.00  0.00    -0.136 C  
HETATM    6  O   UNL     1     -11.101   7.127  68.884  1.00  0.00    -0.432 OA 
HETATM    7  O   UNL     1      -6.694   7.699  73.607  1.00  0.00    -0.078 OA 
HETATM    8  H   UNL     1     -10.897   7.045  67.960  1.00  0.00     0.000 HD 
HETATM    9  O   UNL     1      -7.545   7.132  70.124  1.00  0.00    -0.087 OA 
HETATM   10  C   UNL     1      -7.885   7.483  71.485  1.00  0.00    -0.086 C  
HETATM   11  O   UNL     1      -5.531   7.103  71.758  1.00  0.00    -0.035 OA 
HETATM   12  P   UNL     1      -8.594   4.785  72.086  1.00  0.00    -0.121 P  
HETATM   13  C   UNL     1      -9.037   6.607  71.991  1.00  0.00    -0.139 C  
HETATM   14  C   UNL     1      -6.676   7.437  72.414  1.00  0.00    -0.055 C  
ENDROOT
BRANCH   5  15
HETATM   15  O   UNL     1      -8.169   7.290  67.880  1.00  0.00    -0.118 OA 
BRANCH  15  16
HETATM   16  C   UNL     1      -7.498   8.407  67.239  1.00  0.00    -0.093 C  
HETATM   17  O   UNL     1      -5.856   7.034  65.985  1.00  0.00    -0.033 OA 
HETATM   18  C   UNL     1      -6.878   8.040  65.881  1.00  0.00    -0.057 C  
HETATM   19  C   UNL     1      -8.000   7.560  64.965  1.00  0.00    -0.132 C  
HETATM   20  O   UNL     1      -7.412   6.965  63.803  1.00  0.00    -0.077 OA 
HETATM   21  H   UNL     1      -5.473   6.807  65.147  1.00  0.00     0.000 HD 
HETATM   22  C   UNL     1      -8.942   8.754  64.699  1.00  0.00     0.084 C  
HETATM   23  O   UNL     1      -9.458   9.296  65.929  1.00  0.00    -0.220 OA 
HETATM   24  O   UNL     1      -8.312   9.818  63.976  1.00  0.00    -0.144 OA 
HETATM   25  H   UNL     1      -8.110   6.666  63.233  1.00  0.00     0.000 HD 
HETATM   26  C   UNL     1      -8.528   9.537  67.000  1.00  0.00    -0.128 C  
HETATM   27  P   UNL     1      -8.048   9.653  62.381  1.00  0.00    -0.152 P  
HETATM   28  C   UNL     1      -7.791  10.889  66.939  1.00  0.00    -0.135 C  
HETATM   29  O   UNL     1      -8.221  11.706  65.956  1.00  0.00    -0.007 OA 
HETATM   30  O   UNL     1      -6.905  11.226  67.711  1.00  0.00    -0.069 OA 
ENDBRANCH  15  16
ENDBRANCH   5  15
TORSDOF 2
ENDMDL
MODEL      238
REMARK 921   NORMALIZED FREE ENERGY PREDICTED BY IDOCK:   -2.46 KCAL/MOL
REMARK 922        TOTAL FREE ENERGY PREDICTED BY IDOCK:   -3.45 KCAL/MOL
REMARK 923 INTER-LIGAND FREE ENERGY PREDICTED BY IDOCK:   -4.29 KCAL/MOL
REMARK 924 INTRA-LIGAND FREE ENERGY PREDICTED BY IDOCK:    0.84 KCAL/MOL
REMARK 927      BINDING AFFINITY PREDICTED BY RF-SCORE:    0.00 PKD
ROOT
HETATM    1  O   UNL     1     -11.602  12.234  67.853  1.00  0.00    -0.312 OA 
HETATM    2  C   UNL     1     -12.297  12.660  66.664  1.00  0.00     0.213 C  
HETATM    3  H   UNL     1     -11.711  11.294  67.936  1.00  0.00     0.000 HD 
HETATM    4  C   UNL     1     -12.121  14.180  66.530  1.00  0.00    -0.454 C  
HETATM    5  C   UNL     1     -10.667  14.533  66.089  1.00  0.00    -0.310 C  
HETATM    6  O   UNL     1     -12.522  14.736  67.794  1.00  0.00    -0.533 OA 
HETATM    7  O   UNL     1      -9.470  10.322  64.155  1.00  0.00    -0.260 OA 
HETATM    8  H   UNL     1     -12.413  15.676  67.711  1.00  0.00     0.000 HD 
HETATM    9  O   UNL     1     -10.294  13.774  64.915  1.00  0.00    -0.388 OA 
HETATM   10  C   UNL     1     -10.305  12.360  65.213  1.00  0.00    -0.282 C  
HETATM   11  O   UNL     1      -9.098  12.311  63.139  1.00  0.00     0.136 OA 
HETATM   12  P   UNL     1     -12.852  12.037  63.970  1.00  0.00     0.170 P  
HETATM   13  C   UNL     1     -11.736  11.878  65.472  1.00  0.00    -0.157 C  
HETATM   14  C   UNL     1      -9.606  11.535  64.136  1.00  0.00    -0.157 C  
ENDROOT
BRANCH   5  15
HETATM   15  O   UNL     1     -10.473  15.930  65.793  1.00  0.00    -0.331 OA 
BRANCH  15  16
HETATM   16  C   UNL     1      -9.429  16.616  66.535  1.00  0.00    -0.266 C  
HETATM   17  O   UNL     1     -10.706  16.809  68.653  1.00  0.00    -0.322 OA 
HETATM   18  C   UNL     1      -9.488  16.345  68.048  1.00  0.00    -0.217 C  
HETATM   19  C   UNL     1      -9.329  14.843  68.264  1.00  0.00    -0.195 C  
HETATM   20  O   UNL     1      -9.650  14.546  69.628  1.00  0.00    -0.398 OA 
HETATM   21  H   UNL     1     -10.743  16.642  69.587  1.00  0.00     0.000 HD 
HETATM   22  C   UNL     1      -7.909  14.443  67.810  1.00  0.00    -0.160 C  
HETATM   23  O   UNL     1      -7.678  14.808  66.437  1.00  0.00     0.503 OA 
HETATM   24  O   UNL     1      -6.875  15.037  68.606  1.00  0.00    -0.102 OA 
HETATM   25  H   UNL     1      -9.551  13.611  69.762  1.00  0.00     0.000 HD 
HETATM   26  C   UNL     1      -8.052  16.133  66.021  1.00  0.00     0.222 C  
HETATM   27  P   UNL     1      -6.579  14.455  70.093  1.00  0.00     0.052 P  
HETATM   28  C   UNL     1      -7.001  17.227  66.285  1.00  0.00    -0.264 C  
HETATM   29  O   UNL     1      -5.826  16.759  66.756  1.00  0.00    -0.233 OA 
HETATM   30  O   UNL     1      -7.180  18.419  66.080  1.00  0.00    -0.249 OA 
ENDBRANCH  15  16
ENDBRANCH   5  15
TORSDOF 2
ENDMDL
MODEL      239
REMARK 921   NORMALIZED FREE ENERGY PREDICTED BY IDOCK:   -2.26 KCAL/MOL
REMARK 922        TOTAL FREE ENERGY PREDICTED BY IDOCK:   -3.23 KCAL/MOL
REMARK 923 INTER-LIGAND FREE ENERGY PREDICTED BY IDOCK:   -2.57 KCAL/MOL
REMARK 924 INTRA-LIGAND FREE ENERGY PREDICTED BY IDOCK:   -0.67 KCAL/MOL
REMARK 927      BINDING AFFINITY PREDICTED BY RF-SCORE:    0.00 PKD
ROOT
HETATM    1  O   UNL     1     -10.386  11.062  64.936  1.00  0.00    -0.288 OA 
HETATM    2  C   UNL     1     -10.465  10.863  66.362  1.00  0.00    -0.250 C  
HETATM    3  H   UNL     1     -10.803  11.890  64.731  1.00  0.00     0.000 HD 
HETATM    4  C   UNL     1      -9.790   9.524  66.693  1.00  0.00    -0.231 C  
HETATM    5  C   UNL     1      -8.240   9.634  66.558  1.00  0.00    -0.119 C  
HETATM    6  O   UNL     1     -10.405   8.549  65.830  1.00  0.00    -0.228 OA 
HETATM    7  O   UNL     1      -7.828  14.381  67.014  1.00  0.00    -0.135 OA 
HETATM    8  H   UNL     1      -9.987   7.721  66.035  1.00  0.00     0.000 HD 
HETATM    9  O   UNL     1      -7.745  10.765  67.314  1.00  0.00    -0.104 OA 
HETATM   10  C   UNL     1      -8.295  11.994  66.788  1.00  0.00    -0.135 C  
HETATM   11  O   UNL     1      -6.533  12.904  68.140  1.00  0.00    -0.075 OA 
HETATM   12  P   UNL     1     -10.233  12.112  68.880  1.00  0.00     0.151 P  
HETATM   13  C   UNL     1      -9.804  12.060  67.052  1.00  0.00    -0.194 C  
HETATM   14  C   UNL     1      -7.564  13.226  67.312  1.00  0.00    -0.067 C  
ENDROOT
BRANCH   5  15
HETATM   15  O   UNL     1      -7.533   8.460  67.003  1.00  0.00    -0.086 OA 
BRANCH  15  16
HETATM   16  C   UNL     1      -6.749   7.753  66.006  1.00  0.00    -0.049 C  
HETATM   17  O   UNL     1      -5.240   6.624  67.619  1.00  0.00    -0.007 OA 
HETATM   18  C   UNL     1      -6.157   6.434  66.528  1.00  0.00    -0.033 C  
HETATM   19  C   UNL     1      -7.313   5.536  66.961  1.00  0.00    -0.080 C  
HETATM   20  O   UNL     1      -6.776   4.429  67.693  1.00  0.00    -0.045 OA 
HETATM   21  H   UNL     1      -4.874   5.810  67.942  1.00  0.00     0.000 HD 
HETATM   22  C   UNL     1      -8.132   5.173  65.704  1.00  0.00    -0.115 C  
HETATM   23  O   UNL     1      -8.601   6.353  65.027  1.00  0.00    -0.087 OA 
HETATM   24  O   UNL     1      -7.394   4.386  64.760  1.00  0.00    -0.069 OA 
HETATM   25  H   UNL     1      -7.496   3.871  67.963  1.00  0.00     0.000 HD 
HETATM   26  C   UNL     1      -7.661   7.418  64.801  1.00  0.00    -0.103 C  
HETATM   27  P   UNL     1      -7.134   2.811  65.064  1.00  0.00    -0.055 P  
HETATM   28  C   UNL     1      -6.795   7.273  63.536  1.00  0.00    -0.053 C  
HETATM   29  O   UNL     1      -7.134   6.228  62.753  1.00  0.00    -0.043 OA 
HETATM   30  O   UNL     1      -5.886   8.033  63.232  1.00  0.00    -0.064 OA 
ENDBRANCH  15  16
ENDBRANCH   5  15
TORSDOF 2
ENDMDL
MODEL      240
REMARK 921   NORMALIZED FREE ENERGY PREDICTED BY IDOCK:   -2.04 KCAL/MOL
REMARK 922        TOTAL FREE ENERGY PREDICTED BY IDOCK:   -2.99 KCAL/MOL
REMARK 923 INTER-LIGAND FREE ENERGY PREDICTED BY IDOCK:   -3.07 KCAL/MOL
REMARK 924 INTRA-LIGAND FREE ENERGY PREDICTED BY IDOCK:    0.08 KCAL/MOL
REMARK 927      BINDING AFFINITY PREDICTED BY RF-SCORE:    0.00 PKD
ROOT
HETATM    1  O   UNL     1      -6.401  10.868  68.224  1.00  0.00    -0.056 OA 
HETATM    2  C   UNL     1      -6.261   9.433  68.195  1.00  0.00    -0.053 C  
HETATM    3  H   UNL     1      -6.304  11.191  67.336  1.00  0.00     0.000 HD 
HETATM    4  C   UNL     1      -6.418   8.911  69.631  1.00  0.00    -0.042 C  
HETATM    5  C   UNL     1      -7.906   8.991  70.091  1.00  0.00    -0.100 C  
HETATM    6  O   UNL     1      -5.495   9.673  70.430  1.00  0.00    -0.034 OA 
HETATM    7  O   UNL     1      -9.975   9.104  65.776  1.00  0.00    -0.277 OA 
HETATM    8  H   UNL     1      -5.592   9.350  71.318  1.00  0.00     0.000 HD 
HETATM    9  O   UNL     1      -8.771   8.359  69.119  1.00  0.00    -0.139 OA 
HETATM   10  C   UNL     1      -8.691   9.055  67.854  1.00  0.00    -0.129 C  
HETATM   11  O   UNL     1     -10.665   7.750  67.455  1.00  0.00    -0.278 OA 
HETATM   12  P   UNL     1      -6.927   7.080  66.790  1.00  0.00    -0.077 P  
HETATM   13  C   UNL     1      -7.305   8.867  67.228  1.00  0.00    -0.080 C  
HETATM   14  C   UNL     1      -9.813   8.655  66.901  1.00  0.00    -0.238 C  
ENDROOT
BRANCH   5  15
HETATM   15  O   UNL     1      -8.152   8.374  71.370  1.00  0.00    -0.109 OA 
BRANCH  15  16
HETATM   16  C   UNL     1      -8.750   7.050  71.352  1.00  0.00    -0.125 C  
HETATM   17  O   UNL     1      -7.121   6.056  69.768  1.00  0.00    -0.067 OA 
HETATM   18  C   UNL     1      -7.734   5.934  71.062  1.00  0.00    -0.101 C  
HETATM   19  C   UNL     1      -6.670   5.969  72.156  1.00  0.00    -0.068 C  
HETATM   20  O   UNL     1      -5.584   5.126  71.757  1.00  0.00    -0.008 OA 
HETATM   21  H   UNL     1      -6.493   5.366  69.588  1.00  0.00     0.000 HD 
HETATM   22  C   UNL     1      -7.347   5.599  73.493  1.00  0.00    -0.087 C  
HETATM   23  O   UNL     1      -8.441   6.487  73.788  1.00  0.00    -0.120 OA 
HETATM   24  O   UNL     1      -7.849   4.257  73.516  1.00  0.00    -0.084 OA 
HETATM   25  H   UNL     1      -4.921   5.148  72.437  1.00  0.00     0.000 HD 
HETATM   26  C   UNL     1      -9.381   6.769  72.737  1.00  0.00    -0.135 C  
HETATM   27  P   UNL     1      -6.810   3.018  73.683  1.00  0.00    -0.037 P  
HETATM   28  C   UNL     1     -10.516   5.740  72.576  1.00  0.00    -0.207 C  
HETATM   29  O   UNL     1     -10.534   4.787  73.531  1.00  0.00    -0.177 OA 
HETATM   30  O   UNL     1     -11.351   5.769  71.684  1.00  0.00    -0.242 OA 
ENDBRANCH  15  16
ENDBRANCH   5  15
TORSDOF 2
ENDMDL
MODEL      241
REMARK 921   NORMALIZED FREE ENERGY PREDICTED BY IDOCK:    0.61 KCAL/MOL
REMARK 922        TOTAL FREE ENERGY PREDICTED BY IDOCK:   -0.03 KCAL/MOL
REMARK 923 INTER-LIGAND FREE ENERGY PREDICTED BY IDOCK:   -2.10 KCAL/MOL
REMARK 924 INTRA-LIGAND FREE ENERGY PREDICTED BY IDOCK:    2.07 KCAL/MOL
REMARK 927      BINDING AFFINITY PREDICTED BY RF-SCORE:    0.00 PKD
ROOT
HETATM    1  O   UNL     1      -8.779  20.420  68.515  1.00  0.00     0.134 OA 
HETATM    2  C   UNL     1      -8.971  19.031  68.849  1.00  0.00    -0.263 C  
HETATM    3  H   UNL     1      -8.010  20.730  68.978  1.00  0.00     0.000 HD 
HETATM    4  C   UNL     1     -10.216  18.530  68.101  1.00  0.00    -0.378 C  
HETATM    5  C   UNL     1      -9.920  18.366  66.578  1.00  0.00    -0.379 C  
HETATM    6  O   UNL     1     -11.266  19.462  68.416  1.00  0.00     0.027 OA 
HETATM    7  O   UNL     1      -5.153  18.000  66.820  1.00  0.00    -0.122 OA 
HETATM    8  H   UNL     1     -12.036  19.152  67.953  1.00  0.00     0.000 HD 
HETATM    9  O   UNL     1      -8.730  17.567  66.377  1.00  0.00    -0.277 OA 
HETATM   10  C   UNL     1      -7.582  18.231  66.953  1.00  0.00    -0.217 C  
HETATM   11  O   UNL     1      -6.451  16.595  65.609  1.00  0.00     0.744 OA 
HETATM   12  P   UNL     1      -7.677  16.560  69.263  1.00  0.00     0.095 P  
HETATM   13  C   UNL     1      -7.696  18.267  68.481  1.00  0.00    -0.305 C  
HETATM   14  C   UNL     1      -6.265  17.618  66.487  1.00  0.00    -0.205 C  
ENDROOT
BRANCH   5  15
HETATM   15  O   UNL     1     -10.995  17.752  65.840  1.00  0.00    -0.077 OA 
BRANCH  15  16
HETATM   16  C   UNL     1     -11.621  16.589  66.445  1.00  0.00     1.056 C  
HETATM   17  O   UNL     1     -12.883  15.898  64.424  1.00  0.00     0.015 OA 
HETATM   18  C   UNL     1     -11.943  15.481  65.428  1.00  0.00     0.411 C  
HETATM   19  C   UNL     1     -10.634  15.043  64.778  1.00  0.00    -0.291 C  
HETATM   20  O   UNL     1     -10.944  14.216  63.651  1.00  0.00    -0.040 OA 
HETATM   21  H   UNL     1     -13.082  15.214  63.796  1.00  0.00     0.000 HD 
HETATM   22  C   UNL     1      -9.756  14.387  65.866  1.00  0.00    -0.276 C  
HETATM   23  O   UNL     1      -9.527  15.289  66.965  1.00  0.00    -0.212 OA 
HETATM   24  O   UNL     1     -10.322  13.182  66.394  1.00  0.00    -0.276 OA 
HETATM   25  H   UNL     1     -10.129  13.944  63.246  1.00  0.00     0.000 HD 
HETATM   26  C   UNL     1     -10.658  15.997  67.502  1.00  0.00    -0.313 C  
HETATM   27  P   UNL     1     -10.267  11.820  65.509  1.00  0.00    -0.271 P  
HETATM   28  C   UNL     1     -11.475  15.228  68.557  1.00  0.00    -0.342 C  
HETATM   29  O   UNL     1     -10.934  14.046  68.918  1.00  0.00    -0.247 OA 
HETATM   30  O   UNL     1     -12.514  15.636  69.055  1.00  0.00    -0.088 OA 
ENDBRANCH  15  16
ENDBRANCH   5  15
TORSDOF 2
ENDMDL
MODEL      242
REMARK 921   NORMALIZED FREE ENERGY PREDICTED BY IDOCK:    2.95 KCAL/MOL
REMARK 922        TOTAL FREE ENERGY PREDICTED BY IDOCK:    2.59 KCAL/MOL
REMARK 923 INTER-LIGAND FREE ENERGY PREDICTED BY IDOCK:   -2.93 KCAL/MOL
REMARK 924 INTRA-LIGAND FREE ENERGY PREDICTED BY IDOCK:    5.53 KCAL/MOL
REMARK 927      BINDING AFFINITY PREDICTED BY RF-SCORE:    0.00 PKD
ROOT
HETATM    1  O   UNL     1     -10.140   4.255  70.596  1.00  0.00    -0.190 OA 
HETATM    2  C   UNL     1     -10.045   5.008  69.371  1.00  0.00    -0.218 C  
HETATM    3  H   UNL     1     -10.629   3.461  70.416  1.00  0.00     0.000 HD 
HETATM    4  C   UNL     1      -9.254   6.292  69.663  1.00  0.00    -0.141 C  
HETATM    5  C   UNL     1      -7.740   5.978  69.863  1.00  0.00    -0.092 C  
HETATM    6  O   UNL     1      -9.900   6.904  70.794  1.00  0.00    -0.182 OA 
HETATM    7  O   UNL     1      -7.577   1.784  67.563  1.00  0.00    -0.057 OA 
HETATM    8  H   UNL     1      -9.411   7.698  70.975  1.00  0.00     0.000 HD 
HETATM    9  O   UNL     1      -7.234   5.195  68.756  1.00  0.00    -0.059 OA 
HETATM   10  C   UNL     1      -7.917   3.922  68.696  1.00  0.00    -0.067 C  
HETATM   11  O   UNL     1      -6.074   3.444  67.235  1.00  0.00    -0.027 OA 
HETATM   12  P   UNL     1      -9.608   4.840  66.590  1.00  0.00    -0.216 P  
HETATM   13  C   UNL     1      -9.386   4.120  68.310  1.00  0.00    -0.158 C  
HETATM   14  C   UNL     1      -7.210   2.928  67.779  1.00  0.00    -0.053 C  
ENDROOT
BRANCH   5  15
HETATM   15  O   UNL     1      -6.914   7.154  69.986  1.00  0.00    -0.058 OA 
BRANCH  15  16
HETATM   16  C   UNL     1      -7.603   8.419  70.170  1.00  0.00    -0.070 C  
HETATM   17  O   UNL     1      -5.554   9.812  70.284  1.00  0.00    -0.039 OA 
HETATM   18  C   UNL     1      -6.815   9.620  69.622  1.00  0.00    -0.067 C  
HETATM   19  C   UNL     1      -6.599   9.399  68.127  1.00  0.00    -0.059 C  
HETATM   20  O   UNL     1      -5.646  10.361  67.662  1.00  0.00    -0.044 OA 
HETATM   21  H   UNL     1      -5.067  10.554  69.946  1.00  0.00     0.000 HD 
HETATM   22  C   UNL     1      -7.979   9.437  67.435  1.00  0.00    -0.106 C  
HETATM   23  O   UNL     1      -8.870   8.453  67.993  1.00  0.00    -0.140 OA 
HETATM   24  O   UNL     1      -8.619  10.715  67.526  1.00  0.00    -0.122 OA 
HETATM   25  H   UNL     1      -5.511  10.223  66.732  1.00  0.00     0.000 HD 
HETATM   26  C   UNL     1      -8.959   8.361  69.426  1.00  0.00    -0.153 C  
HETATM   27  P   UNL     1      -8.099  11.937  66.588  1.00  0.00     0.089 P  
HETATM   28  C   UNL     1      -9.942   9.344  70.088  1.00  0.00    -0.229 C  
HETATM   29  O   UNL     1     -10.674  10.065  69.212  1.00  0.00    -0.202 OA 
HETATM   30  O   UNL     1     -10.083   9.469  71.296  1.00  0.00    -0.273 OA 
ENDBRANCH  15  16
ENDBRANCH   5  15
TORSDOF 2
ENDMDL
MODEL      243
REMARK 921   NORMALIZED FREE ENERGY PREDICTED BY IDOCK:    3.20 KCAL/MOL
REMARK 922        TOTAL FREE ENERGY PREDICTED BY IDOCK:    2.86 KCAL/MOL
REMARK 923 INTER-LIGAND FREE ENERGY PREDICTED BY IDOCK:    3.29 KCAL/MOL
REMARK 924 INTRA-LIGAND FREE ENERGY PREDICTED BY IDOCK:   -0.43 KCAL/MOL
REMARK 927      BINDING AFFINITY PREDICTED BY RF-SCORE:    0.00 PKD
ROOT
HETATM    1  O   UNL     1     -13.298  14.197  66.262  1.00  0.00    -0.207 OA 
HETATM    2  C   UNL     1     -12.309  13.232  65.853  1.00  0.00    -0.418 C  
HETATM    3  H   UNL     1     -14.096  13.728  66.476  1.00  0.00     0.000 HD 
HETATM    4  C   UNL     1     -11.019  13.991  65.508  1.00  0.00    -0.309 C  
HETATM    5  C   UNL     1     -10.318  14.511  66.800  1.00  0.00    -0.269 C  
HETATM    6  O   UNL     1     -11.403  15.016  64.573  1.00  0.00    -0.569 OA 
HETATM    7  O   UNL     1     -12.296  11.490  69.942  1.00  0.00    -0.250 OA 
HETATM    8  H   UNL     1     -10.605  15.485  64.360  1.00  0.00     0.000 HD 
HETATM    9  O   UNL     1     -10.151  13.435  67.753  1.00  0.00    -0.223 OA 
HETATM   10  C   UNL     1     -11.441  12.925  68.159  1.00  0.00    -0.315 C  
HETATM   11  O   UNL     1     -10.077  11.934  69.867  1.00  0.00     0.957 OA 
HETATM   12  P   UNL     1     -11.201  10.696  66.394  1.00  0.00     0.711 P  
HETATM   13  C   UNL     1     -12.129  12.217  66.986  1.00  0.00     0.052 C  
HETATM   14  C   UNL     1     -11.350  12.035  69.395  1.00  0.00    -0.251 C  
ENDROOT
BRANCH   5  15
HETATM   15  O   UNL     1      -9.022  15.097  66.563  1.00  0.00    -0.268 OA 
BRANCH  15  16
HETATM   16  C   UNL     1      -8.065  15.027  67.653  1.00  0.00    -0.169 C  
HETATM   17  O   UNL     1      -6.045  14.952  66.215  1.00  0.00     1.939 OA 
HETATM   18  C   UNL     1      -6.700  15.637  67.296  1.00  0.00    -0.132 C  
HETATM   19  C   UNL     1      -6.918  17.104  66.937  1.00  0.00    -0.212 C  
HETATM   20  O   UNL     1      -5.715  17.609  66.347  1.00  0.00    -0.169 OA 
HETATM   21  H   UNL     1      -5.202  15.329  65.994  1.00  0.00     0.000 HD 
HETATM   22  C   UNL     1      -7.400  17.839  68.206  1.00  0.00    -0.240 C  
HETATM   23  O   UNL     1      -8.597  17.239  68.735  1.00  0.00    -0.274 OA 
HETATM   24  O   UNL     1      -6.418  17.862  69.250  1.00  0.00    -0.243 OA 
HETATM   25  H   UNL     1      -5.851  18.522  66.124  1.00  0.00     0.000 HD 
HETATM   26  C   UNL     1      -8.630  15.807  68.864  1.00  0.00    -0.220 C  
HETATM   27  P   UNL     1      -5.149  18.870  69.131  1.00  0.00    -0.192 P  
HETATM   28  C   UNL     1      -8.011  15.248  70.159  1.00  0.00     0.470 C  
HETATM   29  O   UNL     1      -7.640  16.196  71.045  1.00  0.00     2.821 OA 
HETATM   30  O   UNL     1      -7.873  14.057  70.399  1.00  0.00     1.271 OA 
ENDBRANCH  15  16
ENDBRANCH   5  15
TORSDOF 2
ENDMDL
MODEL      244
REMARK 921   NORMALIZED FREE ENERGY PREDICTED BY IDOCK:    9.42 KCAL/MOL
REMARK 922        TOTAL FREE ENERGY PREDICTED BY IDOCK:    9.82 KCAL/MOL
REMARK 923 INTER-LIGAND FREE ENERGY PREDICTED BY IDOCK:   -3.05 KCAL/MOL
REMARK 924 INTRA-LIGAND FREE ENERGY PREDICTED BY IDOCK:   12.87 KCAL/MOL
REMARK 927      BINDING AFFINITY PREDICTED BY RF-SCORE:    0.00 PKD
ROOT
HETATM    1  O   UNL     1     -10.281   5.589  70.978  1.00  0.00    -0.202 OA 
HETATM    2  C   UNL     1     -10.264   6.651  70.003  1.00  0.00    -0.187 C  
HETATM    3  H   UNL     1     -11.061   5.067  70.831  1.00  0.00     0.000 HD 
HETATM    4  C   UNL     1      -9.003   7.495  70.243  1.00  0.00    -0.147 C  
HETATM    5  C   UNL     1      -7.727   6.730  69.777  1.00  0.00    -0.113 C  
HETATM    6  O   UNL     1      -9.023   7.846  71.638  1.00  0.00    -0.127 OA 
HETATM    7  O   UNL     1      -9.805   3.668  66.741  1.00  0.00    -0.147 OA 
HETATM    8  H   UNL     1      -8.243   8.368  71.785  1.00  0.00     0.000 HD 
HETATM    9  O   UNL     1      -7.888   6.253  68.420  1.00  0.00    -0.102 OA 
HETATM   10  C   UNL     1      -8.983   5.312  68.351  1.00  0.00    -0.108 C  
HETATM   11  O   UNL     1      -7.950   4.863  66.232  1.00  0.00    -0.105 OA 
HETATM   12  P   UNL     1     -10.733   7.306  67.301  1.00  0.00    -0.226 P  
HETATM   13  C   UNL     1     -10.316   6.023  68.607  1.00  0.00    -0.214 C  
HETATM   14  C   UNL     1      -8.991   4.528  67.042  1.00  0.00    -0.116 C  
ENDROOT
BRANCH   5  15
HETATM   15  O   UNL     1      -6.523   7.522  69.827  1.00  0.00    -0.034 OA 
BRANCH  15  16
HETATM   16  C   UNL     1      -6.576   8.829  69.196  1.00  0.00    -0.047 C  
HETATM   17  O   UNL     1      -5.128   8.241  67.270  1.00  0.00    -0.031 OA 
HETATM   18  C   UNL     1      -6.404   8.768  67.669  1.00  0.00    -0.057 C  
HETATM   19  C   UNL     1      -7.531   7.911  67.101  1.00  0.00    -0.092 C  
HETATM   20  O   UNL     1      -7.234   7.623  65.731  1.00  0.00    -0.063 OA 
HETATM   21  H   UNL     1      -5.021   8.203  66.327  1.00  0.00     0.000 HD 
HETATM   22  C   UNL     1      -8.865   8.646  67.355  1.00  0.00    -0.134 C  
HETATM   23  O   UNL     1      -9.055   8.912  68.757  1.00  0.00    -0.134 OA 
HETATM   24  O   UNL     1      -8.964   9.890  66.652  1.00  0.00    -0.137 OA 
HETATM   25  H   UNL     1      -7.935   7.089  65.378  1.00  0.00     0.000 HD 
HETATM   26  C   UNL     1      -7.952   9.471  69.492  1.00  0.00    -0.110 C  
HETATM   27  P   UNL     1      -9.256   9.882  65.053  1.00  0.00    -0.270 P  
HETATM   28  C   UNL     1      -7.822  11.004  69.418  1.00  0.00     0.010 C  
HETATM   29  O   UNL     1      -8.841  11.612  68.775  1.00  0.00    -0.122 OA 
HETATM   30  O   UNL     1      -6.899  11.641  69.905  1.00  0.00    -0.039 OA 
ENDBRANCH  15  16
ENDBRANCH   5  15
TORSDOF 2
ENDMDL
MODEL      245
REMARK 921   NORMALIZED FREE ENERGY PREDICTED BY IDOCK:   12.18 KCAL/MOL
REMARK 922        TOTAL FREE ENERGY PREDICTED BY IDOCK:   12.90 KCAL/MOL
REMARK 923 INTER-LIGAND FREE ENERGY PREDICTED BY IDOCK:    7.43 KCAL/MOL
REMARK 924 INTRA-LIGAND FREE ENERGY PREDICTED BY IDOCK:    5.46 KCAL/MOL
REMARK 927      BINDING AFFINITY PREDICTED BY RF-SCORE:    0.00 PKD
ROOT
HETATM    1  O   UNL     1      -9.469   6.201  72.179  1.00  0.00    -0.152 OA 
HETATM    2  C   UNL     1      -8.551   6.247  71.069  1.00  0.00    -0.132 C  
HETATM    3  H   UNL     1      -9.178   6.832  72.827  1.00  0.00     0.000 HD 
HETATM    4  C   UNL     1      -9.021   5.226  70.022  1.00  0.00    -0.127 C  
HETATM    5  C   UNL     1     -10.301   5.732  69.288  1.00  0.00    -0.257 C  
HETATM    6  O   UNL     1      -9.180   3.982  70.728  1.00  0.00    -0.104 OA 
HETATM    7  O   UNL     1      -9.819  10.412  70.173  1.00  0.00    -0.059 OA 
HETATM    8  H   UNL     1      -9.471   3.351  70.080  1.00  0.00     0.000 HD 
HETATM    9  O   UNL     1     -10.097   7.072  68.779  1.00  0.00    -0.160 OA 
HETATM   10  C   UNL     1      -9.856   7.987  69.872  1.00  0.00    -0.186 C  
HETATM   11  O   UNL     1     -10.298   9.573  68.125  1.00  0.00    -0.188 OA 
HETATM   12  P   UNL     1      -7.044   7.941  69.392  1.00  0.00    -0.066 P  
HETATM   13  C   UNL     1      -8.509   7.683  70.537  1.00  0.00    -0.128 C  
HETATM   14  C   UNL     1      -9.968   9.446  69.440  1.00  0.00    -0.183 C  
ENDROOT
BRANCH   5  15
HETATM   15  O   UNL     1     -10.708   4.897  68.186  1.00  0.00     0.128 OA 
BRANCH  15  16
HETATM   16  C   UNL     1      -9.763   4.754  67.093  1.00  0.00    -0.184 C  
HETATM   17  O   UNL     1     -11.470   4.514  65.309  1.00  0.00    -1.068 OA 
HETATM   18  C   UNL     1     -10.317   5.252  65.748  1.00  0.00     0.035 C  
HETATM   19  C   UNL     1     -10.661   6.731  65.899  1.00  0.00     1.676 C  
HETATM   20  O   UNL     1     -11.421   7.137  64.755  1.00  0.00     8.521 OA 
HETATM   21  H   UNL     1     -11.812   4.822  64.478  1.00  0.00     0.000 HD 
HETATM   22  C   UNL     1      -9.347   7.505  66.136  1.00  0.00    -0.069 C  
HETATM   23  O   UNL     1      -8.647   7.004  67.290  1.00  0.00    -0.120 OA 
HETATM   24  O   UNL     1      -8.453   7.452  65.018  1.00  0.00    -0.094 OA 
HETATM   25  H   UNL     1     -11.636   8.057  64.849  1.00  0.00     0.000 HD 
HETATM   26  C   UNL     1      -8.495   5.579  67.418  1.00  0.00    -0.109 C  
HETATM   27  P   UNL     1      -8.763   8.355  63.703  1.00  0.00     0.648 P  
HETATM   28  C   UNL     1      -7.292   4.977  66.668  1.00  0.00    -0.086 C  
HETATM   29  O   UNL     1      -6.480   5.894  66.102  1.00  0.00    -0.043 OA 
HETATM   30  O   UNL     1      -7.058   3.779  66.591  1.00  0.00    -0.058 OA 
ENDBRANCH  15  16
ENDBRANCH   5  15
TORSDOF 2
ENDMDL
MODEL      246
REMARK 921   NORMALIZED FREE ENERGY PREDICTED BY IDOCK:   18.13 KCAL/MOL
REMARK 922        TOTAL FREE ENERGY PREDICTED BY IDOCK:   19.55 KCAL/MOL
REMARK 923 INTER-LIGAND FREE ENERGY PREDICTED BY IDOCK:   17.07 KCAL/MOL
REMARK 924 INTRA-LIGAND FREE ENERGY PREDICTED BY IDOCK:    2.48 KCAL/MOL
REMARK 927      BINDING AFFINITY PREDICTED BY RF-SCORE:    0.00 PKD
ROOT
HETATM    1  O   UNL     1     -13.054  14.110  66.788  1.00  0.00    -0.167 OA 
HETATM    2  C   UNL     1     -12.142  13.040  67.106  1.00  0.00    -0.264 C  
HETATM    3  H   UNL     1     -13.931  13.829  67.022  1.00  0.00     0.000 HD 
HETATM    4  C   UNL     1     -10.725  13.496  66.728  1.00  0.00    -0.278 C  
HETATM    5  C   UNL     1     -10.196  14.561  67.737  1.00  0.00    -0.226 C  
HETATM    6  O   UNL     1     -10.806  13.945  65.363  1.00  0.00    -0.298 OA 
HETATM    7  O   UNL     1     -13.061  13.519  71.428  1.00  0.00    -0.341 OA 
HETATM    8  H   UNL     1      -9.929  14.226  65.129  1.00  0.00     0.000 HD 
HETATM    9  O   UNL     1     -10.337  14.084  69.096  1.00  0.00    -0.171 OA 
HETATM   10  C   UNL     1     -11.733  13.874  69.408  1.00  0.00    -0.315 C  
HETATM   11  O   UNL     1     -10.824  13.806  71.628  1.00  0.00     2.768 OA 
HETATM   12  P   UNL     1     -11.481  11.061  69.003  1.00  0.00    -0.348 P  
HETATM   13  C   UNL     1     -12.293  12.704  68.592  1.00  0.00     0.296 C  
HETATM   14  C   UNL     1     -11.972  13.700  70.905  1.00  0.00    -0.142 C  
ENDROOT
BRANCH   5  15
HETATM   15  O   UNL     1      -8.815  14.919  67.535  1.00  0.00    -0.173 OA 
BRANCH  15  16
HETATM   16  C   UNL     1      -8.167  15.653  68.607  1.00  0.00    -0.168 C  
HETATM   17  O   UNL     1      -6.800  17.106  67.133  1.00  0.00    -0.150 OA 
HETATM   18  C   UNL     1      -7.761  17.079  68.201  1.00  0.00    -0.197 C  
HETATM   19  C   UNL     1      -9.025  17.832  67.794  1.00  0.00    -0.249 C  
HETATM   20  O   UNL     1      -8.637  19.057  67.163  1.00  0.00    -0.273 OA 
HETATM   21  H   UNL     1      -6.548  17.987  66.882  1.00  0.00     0.000 HD 
HETATM   22  C   UNL     1      -9.917  17.978  69.045  1.00  0.00    -0.284 C  
HETATM   23  O   UNL     1     -10.226  16.694  69.619  1.00  0.00    -0.224 OA 
HETATM   24  O   UNL     1      -9.325  18.788  70.068  1.00  0.00     0.889 OA 
HETATM   25  H   UNL     1      -9.424  19.525  66.909  1.00  0.00     0.000 HD 
HETATM   26  C   UNL     1      -9.146  15.761  69.801  1.00  0.00     0.013 C  
HETATM   27  P   UNL     1      -9.290  20.402  69.887  1.00  0.00     1.761 P  
HETATM   28  C   UNL     1      -8.341  15.932  71.102  1.00  0.00     4.324 C  
HETATM   29  O   UNL     1      -8.848  16.855  71.946  1.00  0.00     9.500 OA 
HETATM   30  O   UNL     1      -7.339  15.289  71.382  1.00  0.00     1.784 OA 
ENDBRANCH  15  16
ENDBRANCH   5  15
TORSDOF 2
ENDMDL
MODEL      247
REMARK 921   NORMALIZED FREE ENERGY PREDICTED BY IDOCK:   20.01 KCAL/MOL
REMARK 922        TOTAL FREE ENERGY PREDICTED BY IDOCK:   21.64 KCAL/MOL
REMARK 923 INTER-LIGAND FREE ENERGY PREDICTED BY IDOCK:    4.76 KCAL/MOL
REMARK 924 INTRA-LIGAND FREE ENERGY PREDICTED BY IDOCK:   16.88 KCAL/MOL
REMARK 927      BINDING AFFINITY PREDICTED BY RF-SCORE:    0.00 PKD
ROOT
HETATM    1  O   UNL     1     -12.040  14.354  65.178  1.00  0.00    -0.381 OA 
HETATM    2  C   UNL     1     -11.265  14.559  66.376  1.00  0.00    -0.341 C  
HETATM    3  H   UNL     1     -11.482  14.541  64.432  1.00  0.00     0.000 HD 
HETATM    4  C   UNL     1     -12.168  14.257  67.582  1.00  0.00    -0.179 C  
HETATM    5  C   UNL     1     -12.414  12.723  67.722  1.00  0.00     0.684 C  
HETATM    6  O   UNL     1     -13.357  15.046  67.392  1.00  0.00     2.118 OA 
HETATM    7  O   UNL     1      -8.614  11.171  65.259  1.00  0.00    -0.108 OA 
HETATM    8  H   UNL     1     -13.914  14.859  68.138  1.00  0.00     0.000 HD 
HETATM    9  O   UNL     1     -11.158  12.005  67.711  1.00  0.00    -0.221 OA 
HETATM   10  C   UNL     1     -10.482  12.204  66.449  1.00  0.00    -0.230 C  
HETATM   11  O   UNL     1      -9.210  10.348  67.283  1.00  0.00    -0.142 OA 
HETATM   12  P   UNL     1      -8.752  14.163  67.592  1.00  0.00    -0.215 P  
HETATM   13  C   UNL     1     -10.027  13.660  66.308  1.00  0.00    -0.300 C  
HETATM   14  C   UNL     1      -9.335  11.219  66.245  1.00  0.00    -0.207 C  
ENDROOT
BRANCH   5  15
HETATM   15  O   UNL     1     -13.124  12.355  68.921  1.00  0.00     1.427 OA 
BRANCH  15  16
HETATM   16  C   UNL     1     -12.480  12.672  70.184  1.00  0.00    -0.029 C  
HETATM   17  O   UNL     1     -10.163  12.264  69.398  1.00  0.00    -0.352 OA 
HETATM   18  C   UNL     1     -11.051  13.212  70.012  1.00  0.00     0.411 C  
HETATM   19  C   UNL     1     -11.126  14.486  69.175  1.00  0.00    -0.263 C  
HETATM   20  O   UNL     1      -9.797  14.846  68.781  1.00  0.00    -0.213 OA 
HETATM   21  H   UNL     1      -9.280  12.597  69.292  1.00  0.00     0.000 HD 
HETATM   22  C   UNL     1     -11.894  15.549  69.989  1.00  0.00    -0.359 C  
HETATM   23  O   UNL     1     -13.204  15.079  70.357  1.00  0.00    -0.249 OA 
HETATM   24  O   UNL     1     -11.211  15.941  71.187  1.00  0.00    -0.362 OA 
HETATM   25  H   UNL     1      -9.844  15.639  68.260  1.00  0.00     0.000 HD 
HETATM   26  C   UNL     1     -13.313  13.755  70.910  1.00  0.00    -0.015 C  
HETATM   27  P   UNL     1      -9.924  16.927  71.086  1.00  0.00     4.684 P  
HETATM   28  C   UNL     1     -13.063  13.654  72.427  1.00  0.00    -0.399 C  
HETATM   29  O   UNL     1     -12.902  14.845  73.039  1.00  0.00    -0.416 OA 
HETATM   30  O   UNL     1     -13.026  12.602  73.050  1.00  0.00     0.417 OA 
ENDBRANCH  15  16
ENDBRANCH   5  15
TORSDOF 2
ENDMDL
MODEL      248
REMARK 921   NORMALIZED FREE ENERGY PREDICTED BY IDOCK:   25.26 KCAL/MOL
REMARK 922        TOTAL FREE ENERGY PREDICTED BY IDOCK:   27.50 KCAL/MOL
REMARK 923 INTER-LIGAND FREE ENERGY PREDICTED BY IDOCK:    8.12 KCAL/MOL
REMARK 924 INTRA-LIGAND FREE ENERGY PREDICTED BY IDOCK:   19.38 KCAL/MOL
REMARK 927      BINDING AFFINITY PREDICTED BY RF-SCORE:    0.00 PKD
ROOT
HETATM    1  O   UNL     1      -9.490   6.337  72.158  1.00  0.00    -0.152 OA 
HETATM    2  C   UNL     1      -8.743   6.768  71.003  1.00  0.00    -0.137 C  
HETATM    3  H   UNL     1      -9.033   6.638  72.934  1.00  0.00     0.000 HD 
HETATM    4  C   UNL     1      -9.483   6.281  69.749  1.00  0.00    -0.151 C  
HETATM    5  C   UNL     1     -10.780   7.113  69.511  1.00  0.00    -0.239 C  
HETATM    6  O   UNL     1      -9.695   4.870  69.939  1.00  0.00    -0.166 OA 
HETATM    7  O   UNL     1      -9.591  11.011  72.022  1.00  0.00     8.061 OA 
HETATM    8  H   UNL     1     -10.152   4.569  69.163  1.00  0.00     0.000 HD 
HETATM    9  O   UNL     1     -10.484   8.529  69.528  1.00  0.00    -0.217 OA 
HETATM   10  C   UNL     1      -9.976   8.916  70.825  1.00  0.00    -0.226 C  
HETATM   11  O   UNL     1     -10.460  11.091  69.933  1.00  0.00    -0.052 OA 
HETATM   12  P   UNL     1      -7.290   8.899  69.863  1.00  0.00    -0.064 P  
HETATM   13  C   UNL     1      -8.597   8.292  71.066  1.00  0.00    -0.144 C  
HETATM   14  C   UNL     1      -9.964  10.430  71.014  1.00  0.00     1.681 C  
ENDROOT
BRANCH   5  15
HETATM   15  O   UNL     1     -11.443   6.814  68.266  1.00  0.00    -0.039 OA 
BRANCH  15  16
HETATM   16  C   UNL     1     -10.735   7.170  67.049  1.00  0.00    -0.350 C  
HETATM   17  O   UNL     1     -11.348   9.573  67.089  1.00  0.00    -0.123 OA 
HETATM   18  C   UNL     1     -10.263   8.633  67.032  1.00  0.00    -0.290 C  
HETATM   19  C   UNL     1      -9.322   8.838  68.216  1.00  0.00    -0.137 C  
HETATM   20  O   UNL     1      -9.091  10.243  68.371  1.00  0.00    -0.129 OA 
HETATM   21  H   UNL     1     -11.057  10.477  67.079  1.00  0.00     0.000 HD 
HETATM   22  C   UNL     1      -8.063   7.976  67.980  1.00  0.00    -0.129 C  
HETATM   23  O   UNL     1      -8.405   6.588  67.810  1.00  0.00    -0.118 OA 
HETATM   24  O   UNL     1      -7.305   8.389  66.837  1.00  0.00    -0.081 OA 
HETATM   25  H   UNL     1      -8.506  10.371  69.108  1.00  0.00     0.000 HD 
HETATM   26  C   UNL     1      -9.485   6.267  66.916  1.00  0.00    -0.138 C  
HETATM   27  P   UNL     1      -6.388   9.728  66.927  1.00  0.00    -0.067 P  
HETATM   28  C   UNL     1      -9.098   6.153  65.430  1.00  0.00     0.143 C  
HETATM   29  O   UNL     1      -7.772   6.248  65.197  1.00  0.00    -0.086 OA 
HETATM   30  O   UNL     1      -9.897   5.975  64.521  1.00  0.00     1.472 OA 
ENDBRANCH  15  16
ENDBRANCH   5  15
TORSDOF 2
ENDMDL
MODEL      249
REMARK 921   NORMALIZED FREE ENERGY PREDICTED BY IDOCK:   28.90 KCAL/MOL
REMARK 922        TOTAL FREE ENERGY PREDICTED BY IDOCK:   31.57 KCAL/MOL
REMARK 923 INTER-LIGAND FREE ENERGY PREDICTED BY IDOCK:   13.39 KCAL/MOL
REMARK 924 INTRA-LIGAND FREE ENERGY PREDICTED BY IDOCK:   18.18 KCAL/MOL
REMARK 927      BINDING AFFINITY PREDICTED BY RF-SCORE:    0.00 PKD
ROOT
HETATM    1  O   UNL     1      -9.214   6.973  66.191  1.00  0.00    -0.260 OA 
HETATM    2  C   UNL     1      -7.920   7.556  66.444  1.00  0.00    -0.107 C  
HETATM    3  H   UNL     1      -9.123   6.028  66.228  1.00  0.00     0.000 HD 
HETATM    4  C   UNL     1      -8.067   9.083  66.384  1.00  0.00    -0.110 C  
HETATM    5  C   UNL     1      -8.815   9.619  67.643  1.00  0.00    -0.125 C  
HETATM    6  O   UNL     1      -8.712   9.367  65.129  1.00  0.00    -0.158 OA 
HETATM    7  O   UNL     1      -7.983   5.935  70.582  1.00  0.00    -0.105 OA 
HETATM    8  H   UNL     1      -8.803  10.312  65.092  1.00  0.00     0.000 HD 
HETATM    9  O   UNL     1      -8.197   9.118  68.851  1.00  0.00    -0.108 OA 
HETATM   10  C   UNL     1      -8.291   7.676  68.896  1.00  0.00    -0.129 C  
HETATM   11  O   UNL     1      -7.686   8.099  71.180  1.00  0.00    -0.080 OA 
HETATM   12  P   UNL     1      -5.589   7.396  68.024  1.00  0.00    -0.028 P  
HETATM   13  C   UNL     1      -7.421   7.049  67.801  1.00  0.00    -0.098 C  
HETATM   14  C   UNL     1      -7.967   7.118  70.279  1.00  0.00    -0.116 C  
ENDROOT
BRANCH   5  15
HETATM   15  O   UNL     1      -8.852  11.058  67.728  1.00  0.00    -0.130 OA 
BRANCH  15  16
HETATM   16  C   UNL     1      -9.670  11.749  66.747  1.00  0.00    -0.197 C  
HETATM   17  O   UNL     1      -7.855  12.088  65.092  1.00  0.00     0.972 OA 
HETATM   18  C   UNL     1      -9.173  11.558  65.305  1.00  0.00    -0.080 C  
HETATM   19  C   UNL     1      -9.200  10.064  64.992  1.00  0.00    -0.225 C  
HETATM   20  O   UNL     1      -8.493   9.847  63.766  1.00  0.00    -0.152 OA 
HETATM   21  H   UNL     1      -7.547  11.969  64.201  1.00  0.00     0.000 HD 
HETATM   22  C   UNL     1     -10.672   9.600  65.005  1.00  0.00     1.936 C  
HETATM   23  O   UNL     1     -11.299   9.888  66.269  1.00  0.00     0.593 OA 
HETATM   24  O   UNL     1     -11.462  10.203  63.972  1.00  0.00     2.765 OA 
HETATM   25  H   UNL     1      -8.509   8.918  63.571  1.00  0.00     0.000 HD 
HETATM   26  C   UNL     1     -11.115  11.200  66.828  1.00  0.00    -0.214 C  
HETATM   27  P   UNL     1     -11.299   9.689  62.440  1.00  0.00     8.431 P  
HETATM   28  C   UNL     1     -12.094  12.275  66.318  1.00  0.00    -0.074 C  
HETATM   29  O   UNL     1     -13.066  11.797  65.514  1.00  0.00     1.574 OA 
HETATM   30  O   UNL     1     -12.031  13.460  66.614  1.00  0.00    -0.381 OA 
ENDBRANCH  15  16
ENDBRANCH   5  15
TORSDOF 2
ENDMDL
