MODEL        1
REMARK 921   NORMALIZED FREE ENERGY PREDICTED BY IDOCK:   -7.19 KCAL/MOL
REMARK 922        TOTAL FREE ENERGY PREDICTED BY IDOCK:  -14.97 KCAL/MOL
REMARK 923 INTER-LIGAND FREE ENERGY PREDICTED BY IDOCK:  -12.66 KCAL/MOL
REMARK 924 INTRA-LIGAND FREE ENERGY PREDICTED BY IDOCK:   -2.31 KCAL/MOL
REMARK 927      BINDING AFFINITY PREDICTED BY RF-SCORE:    0.00 PKD
ROOT
HETATM    1  C   UNL     1     -12.376  15.266  74.275  1.00  0.00    -0.612 C  
HETATM    2  O   UNL     1     -12.324  16.429  73.460  1.00  0.00    -0.495 OA 
ENDROOT
BRANCH   2   3
HETATM    3  C   UNL     1     -11.937  16.105  72.126  1.00  0.00    -0.537 C  
BRANCH   3   4
HETATM    4  C   UNL     1     -13.115  15.482  71.388  1.00  0.00    -0.580 C  
BRANCH   4   5
HETATM    5  C   UNL     1     -12.778  15.003  69.976  1.00  0.00    -0.160 C  
BRANCH   5   6
HETATM    6  O   UNL     1     -11.993  15.979  69.299  1.00  0.00    -0.324 OA 
BRANCH   6   7
HETATM    7  C   UNL     1     -11.022  15.588  68.409  1.00  0.00    -0.297 A  
HETATM    8  C   UNL     1     -10.212  16.630  67.908  1.00  0.00    -0.284 A  
HETATM    9  C   UNL     1      -9.296  16.360  66.887  1.00  0.00    -0.244 A  
HETATM   10  C   UNL     1     -10.905  14.297  67.881  1.00  0.00    -0.260 A  
HETATM   11  C   UNL     1     -10.042  14.044  66.798  1.00  0.00    -0.264 A  
HETATM   12  C   UNL     1      -9.232  15.081  66.327  1.00  0.00    -0.324 A  
BRANCH   8  13
HETATM   13  O   UNL     1     -10.404  17.869  68.470  1.00  0.00    -0.369 OA 
HETATM   14  C   UNL     1     -10.627  18.966  67.596  1.00  0.00    -0.428 C  
ENDBRANCH   8  13
BRANCH  11  15
HETATM   15  C   UNL     1     -10.143  12.753  66.012  1.00  0.00    -0.277 C  
HETATM   16  C   UNL     1     -10.452  12.746  64.493  1.00  0.00    -0.392 C  
HETATM   17  C   UNL     1     -10.270  11.285  63.932  1.00  0.00    -0.420 C  
HETATM   18  C   UNL     1     -11.863  13.261  64.072  1.00  0.00    -0.512 C  
HETATM   19  C   UNL     1     -12.038  14.769  64.260  1.00  0.00    -0.415 C  
HETATM   20  C   UNL     1     -13.020  12.501  64.723  1.00  0.00    -0.115 C  
BRANCH  17  21
HETATM   21  C   UNL     1      -8.845  10.703  64.031  1.00  0.00    -0.164 C  
HETATM   22  N   UNL     1      -8.221  10.851  62.711  1.00  0.00    -0.370 NA 
HETATM   23  H1  UNL     1      -7.278  10.466  62.776  1.00  0.00     0.000 HD 
HETATM   24  H2  UNL     1      -8.236  11.811  62.367  1.00  0.00     0.000 HD 
BRANCH  21  25
HETATM   25  C   UNL     1      -8.796   9.214  64.543  1.00  0.00    -0.125 C  
HETATM   26  H   UNL     1      -7.558   7.665  64.489  1.00  0.00     0.000 HD 
HETATM   27  O   UNL     1      -7.587   8.563  64.180  1.00  0.00    -0.109 OA 
BRANCH  25  28
HETATM   28  C   UNL     1      -8.986   9.216  66.073  1.00  0.00    -0.221 C  
HETATM   29  C   UNL     1     -10.006   8.278  66.761  1.00  0.00    -0.355 C  
HETATM   30  C   UNL     1      -9.935   8.676  68.250  1.00  0.00    -0.180 C  
HETATM   31  C   UNL     1      -9.757   6.754  66.567  1.00  0.00    -0.183 C  
HETATM   32  C   UNL     1     -10.855   5.873  67.180  1.00  0.00    -0.373 C  
HETATM   33  O   UNL     1      -8.885   8.958  68.824  1.00  0.00    -0.135 OA 
HETATM   34  N   UNL     1     -11.143   8.685  68.910  1.00  0.00    -0.420 N  
HETATM   35  C   UNL     1      -8.375   6.297  67.046  1.00  0.00    -0.109 C  
HETATM   36  H   UNL     1     -11.984   8.359  68.433  1.00  0.00     0.000 HD 
BRANCH  34  37
HETATM   37  C   UNL     1     -11.229   9.155  70.281  1.00  0.00    -0.218 C  
BRANCH  37  38
HETATM   38  C   UNL     1     -11.674   8.070  71.276  1.00  0.00    -0.311 C  
HETATM   39  C   UNL     1     -11.521   6.677  70.628  1.00  0.00    -0.420 C  
HETATM   40  C   UNL     1     -10.830   8.126  72.561  1.00  0.00    -0.431 C  
BRANCH  38  41
HETATM   41  C   UNL     1     -13.155   8.287  71.619  1.00  0.00    -0.334 C  
HETATM   42  N   UNL     1     -13.917   7.180  71.826  1.00  0.00    -0.515 N  
HETATM   43  O   UNL     1     -13.675   9.396  71.722  1.00  0.00    -0.380 OA 
HETATM   44  H2  UNL     1     -13.521   6.243  71.756  1.00  0.00     0.000 HD 
HETATM   45  H1  UNL     1     -14.900   7.324  72.053  1.00  0.00     0.000 HD 
ENDBRANCH  38  41
ENDBRANCH  37  38
ENDBRANCH  34  37
ENDBRANCH  25  28
ENDBRANCH  21  25
ENDBRANCH  17  21
ENDBRANCH  11  15
ENDBRANCH   6   7
ENDBRANCH   5   6
ENDBRANCH   4   5
ENDBRANCH   3   4
ENDBRANCH   2   3
TORSDOF 13
ENDMDL
MODEL        2
REMARK 921   NORMALIZED FREE ENERGY PREDICTED BY IDOCK:   -7.00 KCAL/MOL
REMARK 922        TOTAL FREE ENERGY PREDICTED BY IDOCK:  -14.63 KCAL/MOL
REMARK 923 INTER-LIGAND FREE ENERGY PREDICTED BY IDOCK:  -12.53 KCAL/MOL
REMARK 924 INTRA-LIGAND FREE ENERGY PREDICTED BY IDOCK:   -2.10 KCAL/MOL
REMARK 927      BINDING AFFINITY PREDICTED BY RF-SCORE:    0.00 PKD
ROOT
HETATM    1  C   UNL     1     -14.394   7.513  71.543  1.00  0.00    -0.458 C  
HETATM    2  O   UNL     1     -12.982   7.574  71.400  1.00  0.00    -0.351 OA 
ENDROOT
BRANCH   2   3
HETATM    3  C   UNL     1     -12.398   8.393  72.412  1.00  0.00    -0.351 C  
BRANCH   3   4
HETATM    4  C   UNL     1     -10.900   8.128  72.483  1.00  0.00    -0.431 C  
BRANCH   4   5
HETATM    5  C   UNL     1     -10.490   6.746  71.976  1.00  0.00    -0.202 C  
BRANCH   5   6
HETATM    6  O   UNL     1      -9.629   6.871  70.848  1.00  0.00    -0.165 OA 
BRANCH   6   7
HETATM    7  C   UNL     1     -10.157   7.064  69.594  1.00  0.00    -0.186 A  
HETATM    8  C   UNL     1     -10.359   5.889  68.839  1.00  0.00    -0.228 A  
HETATM    9  C   UNL     1     -10.751   5.989  67.501  1.00  0.00    -0.383 A  
HETATM   10  C   UNL     1     -10.347   8.318  69.000  1.00  0.00    -0.233 A  
HETATM   11  C   UNL     1     -10.660   8.418  67.631  1.00  0.00    -0.265 A  
HETATM   12  C   UNL     1     -10.877   7.245  66.902  1.00  0.00    -0.265 A  
BRANCH   8  13
HETATM   13  O   UNL     1     -10.135   4.702  69.496  1.00  0.00    -0.222 OA 
HETATM   14  C   UNL     1      -9.237   3.776  68.901  1.00  0.00    -0.156 C  
ENDBRANCH   8  13
BRANCH  11  15
HETATM   15  C   UNL     1     -10.546   9.743  66.906  1.00  0.00    -0.243 C  
HETATM   16  C   UNL     1      -9.523   9.960  65.761  1.00  0.00    -0.280 C  
HETATM   17  C   UNL     1      -9.803  11.349  65.071  1.00  0.00    -0.304 C  
HETATM   18  C   UNL     1      -8.016   9.905  66.161  1.00  0.00    -0.109 C  
HETATM   19  C   UNL     1      -7.539   8.500  66.532  1.00  0.00    -0.088 C  
HETATM   20  C   UNL     1      -7.626  10.909  67.247  1.00  0.00    -0.104 C  
BRANCH  17  21
HETATM   21  C   UNL     1     -11.175  11.489  64.382  1.00  0.00    -0.256 C  
HETATM   22  N   UNL     1     -11.002  11.098  62.978  1.00  0.00    -0.821 NA 
HETATM   23  H1  UNL     1     -11.910  11.190  62.522  1.00  0.00     0.000 HD 
HETATM   24  H2  UNL     1     -10.595  10.169  62.870  1.00  0.00     0.000 HD 
BRANCH  21  25
HETATM   25  C   UNL     1     -11.816  12.922  64.520  1.00  0.00    -0.375 C  
HETATM   26  H   UNL     1     -13.374  13.773  65.404  1.00  0.00     0.000 HD 
HETATM   27  O   UNL     1     -12.988  12.909  65.322  1.00  0.00    -0.703 OA 
BRANCH  25  28
HETATM   28  C   UNL     1     -10.756  13.878  65.103  1.00  0.00    -0.371 C  
HETATM   29  C   UNL     1     -11.079  14.807  66.297  1.00  0.00    -0.341 C  
HETATM   30  C   UNL     1      -9.792  15.639  66.482  1.00  0.00    -0.261 C  
HETATM   31  C   UNL     1     -11.488  14.092  67.617  1.00  0.00    -0.364 C  
HETATM   32  C   UNL     1     -11.898  15.061  68.735  1.00  0.00    -0.331 C  
HETATM   33  O   UNL     1      -8.662  15.169  66.365  1.00  0.00    -0.277 OA 
HETATM   34  N   UNL     1      -9.994  16.963  66.802  1.00  0.00    -0.277 N  
HETATM   35  C   UNL     1     -10.432  13.104  68.126  1.00  0.00    -0.255 C  
HETATM   36  H   UNL     1     -10.938  17.303  66.981  1.00  0.00     0.000 HD 
BRANCH  34  37
HETATM   37  C   UNL     1      -8.870  17.879  66.886  1.00  0.00    -0.253 C  
BRANCH  37  38
HETATM   38  C   UNL     1      -9.241  19.258  67.455  1.00  0.00    -0.356 C  
HETATM   39  C   UNL     1     -10.098  20.029  66.427  1.00  0.00    -0.609 C  
HETATM   40  C   UNL     1     -10.032  19.114  68.766  1.00  0.00    -0.493 C  
BRANCH  38  41
HETATM   41  C   UNL     1      -7.954  20.054  67.710  1.00  0.00    -0.289 C  
HETATM   42  N   UNL     1      -7.625  21.016  66.806  1.00  0.00    -0.554 N  
HETATM   43  O   UNL     1      -7.222  19.873  68.680  1.00  0.00    -0.321 OA 
HETATM   44  H2  UNL     1      -8.211  21.202  65.992  1.00  0.00     0.000 HD 
HETATM   45  H1  UNL     1      -6.770  21.545  66.976  1.00  0.00     0.000 HD 
ENDBRANCH  38  41
ENDBRANCH  37  38
ENDBRANCH  34  37
ENDBRANCH  25  28
ENDBRANCH  21  25
ENDBRANCH  17  21
ENDBRANCH  11  15
ENDBRANCH   6   7
ENDBRANCH   5   6
ENDBRANCH   4   5
ENDBRANCH   3   4
ENDBRANCH   2   3
TORSDOF 13
ENDMDL
MODEL        3
REMARK 921   NORMALIZED FREE ENERGY PREDICTED BY IDOCK:   -6.91 KCAL/MOL
REMARK 922        TOTAL FREE ENERGY PREDICTED BY IDOCK:  -14.48 KCAL/MOL
REMARK 923 INTER-LIGAND FREE ENERGY PREDICTED BY IDOCK:  -11.73 KCAL/MOL
REMARK 924 INTRA-LIGAND FREE ENERGY PREDICTED BY IDOCK:   -2.75 KCAL/MOL
REMARK 927      BINDING AFFINITY PREDICTED BY RF-SCORE:    0.00 PKD
ROOT
HETATM    1  C   UNL     1      -5.882   5.880  66.141  1.00  0.00    -0.021 C  
HETATM    2  O   UNL     1      -6.843   6.525  66.964  1.00  0.00    -0.061 OA 
ENDROOT
BRANCH   2   3
HETATM    3  C   UNL     1      -6.488   6.427  68.343  1.00  0.00    -0.049 C  
BRANCH   3   4
HETATM    4  C   UNL     1      -6.951   7.676  69.081  1.00  0.00    -0.068 C  
BRANCH   4   5
HETATM    5  C   UNL     1      -7.732   7.384  70.362  1.00  0.00    -0.093 C  
BRANCH   5   6
HETATM    6  O   UNL     1      -8.108   8.602  70.998  1.00  0.00    -0.111 OA 
BRANCH   6   7
HETATM    7  C   UNL     1      -9.205   9.302  70.558  1.00  0.00    -0.261 A  
HETATM    8  C   UNL     1     -10.420   8.981  71.202  1.00  0.00    -0.293 A  
HETATM    9  C   UNL     1     -11.615   9.527  70.727  1.00  0.00    -0.378 A  
HETATM   10  C   UNL     1      -9.206  10.160  69.452  1.00  0.00    -0.229 A  
HETATM   11  C   UNL     1     -10.419  10.643  68.925  1.00  0.00    -0.232 A  
HETATM   12  C   UNL     1     -11.611  10.333  69.585  1.00  0.00    -0.267 A  
BRANCH   8  13
HETATM   13  O   UNL     1     -10.329   8.119  72.269  1.00  0.00    -0.242 OA 
HETATM   14  C   UNL     1     -11.185   6.985  72.278  1.00  0.00    -0.263 C  
ENDBRANCH   8  13
BRANCH  11  15
HETATM   15  C   UNL     1     -10.464  11.291  67.556  1.00  0.00    -0.234 C  
HETATM   16  C   UNL     1     -10.837  10.485  66.286  1.00  0.00    -0.063 C  
HETATM   17  C   UNL     1     -11.012  11.478  65.074  1.00  0.00    -0.305 C  
HETATM   18  C   UNL     1      -9.840   9.364  65.860  1.00  0.00    -0.362 C  
HETATM   19  C   UNL     1      -9.838   8.164  66.810  1.00  0.00    -0.329 C  
HETATM   20  C   UNL     1      -8.413   9.861  65.619  1.00  0.00    -0.152 C  
BRANCH  17  21
HETATM   21  C   UNL     1     -12.149  12.510  65.214  1.00  0.00    -0.444 C  
HETATM   22  N   UNL     1     -13.218  12.113  64.290  1.00  0.00    -0.725 NA 
HETATM   23  H1  UNL     1     -13.970  12.796  64.382  1.00  0.00     0.000 HD 
HETATM   24  H2  UNL     1     -13.531  11.153  64.432  1.00  0.00     0.000 HD 
BRANCH  21  25
HETATM   25  C   UNL     1     -11.693  14.000  64.981  1.00  0.00    -0.364 C  
HETATM   26  H   UNL     1     -12.239  15.568  63.895  1.00  0.00     0.000 HD 
HETATM   27  O   UNL     1     -12.514  14.670  64.036  1.00  0.00    -0.796 OA 
BRANCH  25  28
HETATM   28  C   UNL     1     -11.700  14.733  66.338  1.00  0.00    -0.268 C  
HETATM   29  C   UNL     1     -10.618  14.459  67.409  1.00  0.00    -0.270 C  
HETATM   30  C   UNL     1     -11.060  15.315  68.614  1.00  0.00    -0.279 C  
HETATM   31  C   UNL     1      -9.155  14.782  66.987  1.00  0.00    -0.257 C  
HETATM   32  C   UNL     1      -8.115  14.393  68.047  1.00  0.00    -0.142 C  
HETATM   33  O   UNL     1     -11.533  16.445  68.502  1.00  0.00    -0.351 OA 
HETATM   34  N   UNL     1     -10.877  14.728  69.846  1.00  0.00    -0.411 N  
HETATM   35  C   UNL     1      -8.956  16.237  66.549  1.00  0.00    -0.313 C  
HETATM   36  H   UNL     1     -10.400  13.829  69.913  1.00  0.00     0.000 HD 
BRANCH  34  37
HETATM   37  C   UNL     1     -11.360  15.380  71.050  1.00  0.00    -0.367 C  
BRANCH  37  38
HETATM   38  C   UNL     1     -12.650  14.759  71.611  1.00  0.00    -0.394 C  
HETATM   39  C   UNL     1     -13.873  15.367  70.893  1.00  0.00    -0.245 C  
HETATM   40  C   UNL     1     -12.653  13.234  71.413  1.00  0.00    -0.365 C  
BRANCH  38  41
HETATM   41  C   UNL     1     -12.751  15.088  73.107  1.00  0.00    -0.486 C  
HETATM   42  N   UNL     1     -13.582  16.101  73.469  1.00  0.00    -0.866 N  
HETATM   43  O   UNL     1     -12.133  14.483  73.981  1.00  0.00    -0.372 OA 
HETATM   44  H2  UNL     1     -14.117  16.622  72.774  1.00  0.00     0.000 HD 
HETATM   45  H1  UNL     1     -13.649  16.320  74.462  1.00  0.00     0.000 HD 
ENDBRANCH  38  41
ENDBRANCH  37  38
ENDBRANCH  34  37
ENDBRANCH  25  28
ENDBRANCH  21  25
ENDBRANCH  17  21
ENDBRANCH  11  15
ENDBRANCH   6   7
ENDBRANCH   5   6
ENDBRANCH   4   5
ENDBRANCH   3   4
ENDBRANCH   2   3
TORSDOF 13
ENDMDL
MODEL        4
REMARK 921   NORMALIZED FREE ENERGY PREDICTED BY IDOCK:   -6.89 KCAL/MOL
REMARK 922        TOTAL FREE ENERGY PREDICTED BY IDOCK:  -14.44 KCAL/MOL
REMARK 923 INTER-LIGAND FREE ENERGY PREDICTED BY IDOCK:  -11.88 KCAL/MOL
REMARK 924 INTRA-LIGAND FREE ENERGY PREDICTED BY IDOCK:   -2.56 KCAL/MOL
REMARK 927      BINDING AFFINITY PREDICTED BY RF-SCORE:    0.00 PKD
ROOT
HETATM    1  C   UNL     1      -6.542  19.412  68.399  1.00  0.00    -0.257 C  
HETATM    2  O   UNL     1      -7.824  19.017  68.866  1.00  0.00    -0.336 OA 
ENDROOT
BRANCH   2   3
HETATM    3  C   UNL     1      -8.275  17.840  68.198  1.00  0.00    -0.260 C  
BRANCH   3   4
HETATM    4  C   UNL     1      -7.181  16.781  68.230  1.00  0.00    -0.173 C  
BRANCH   4   5
HETATM    5  C   UNL     1      -7.668  15.399  68.663  1.00  0.00    -0.143 C  
BRANCH   5   6
HETATM    6  O   UNL     1      -8.983  15.487  69.204  1.00  0.00    -0.219 OA 
BRANCH   6   7
HETATM    7  C   UNL     1      -9.997  14.720  68.685  1.00  0.00    -0.232 A  
HETATM    8  C   UNL     1     -11.118  14.555  69.528  1.00  0.00    -0.253 A  
HETATM    9  C   UNL     1     -12.136  13.674  69.154  1.00  0.00    -0.361 A  
HETATM   10  C   UNL     1      -9.912  14.001  67.487  1.00  0.00    -0.236 A  
HETATM   11  C   UNL     1     -10.897  13.052  67.153  1.00  0.00    -0.278 A  
HETATM   12  C   UNL     1     -12.011  12.916  67.987  1.00  0.00    -0.323 A  
BRANCH   8  13
HETATM   13  O   UNL     1     -11.112  15.287  70.691  1.00  0.00    -0.300 OA 
HETATM   14  C   UNL     1     -12.347  15.826  71.140  1.00  0.00    -0.427 C  
ENDBRANCH   8  13
BRANCH  11  15
HETATM   15  C   UNL     1     -10.659  12.045  66.046  1.00  0.00    -0.303 C  
HETATM   16  C   UNL     1     -10.525  12.482  64.564  1.00  0.00    -0.366 C  
HETATM   17  C   UNL     1     -10.064  11.247  63.699  1.00  0.00    -0.432 C  
HETATM   18  C   UNL     1     -11.800  13.093  63.906  1.00  0.00    -0.533 C  
HETATM   19  C   UNL     1     -12.154  14.480  64.445  1.00  0.00    -0.492 C  
HETATM   20  C   UNL     1     -13.022  12.173  63.948  1.00  0.00    -0.323 C  
BRANCH  17  21
HETATM   21  C   UNL     1      -8.679  10.666  64.049  1.00  0.00    -0.131 C  
HETATM   22  N   UNL     1      -7.860  10.725  62.832  1.00  0.00    -0.353 NA 
HETATM   23  H1  UNL     1      -6.944  10.340  63.062  1.00  0.00     0.000 HD 
HETATM   24  H2  UNL     1      -7.810  11.661  62.429  1.00  0.00     0.000 HD 
BRANCH  21  25
HETATM   25  C   UNL     1      -8.730   9.213  64.655  1.00  0.00    -0.166 C  
HETATM   26  H   UNL     1      -7.619   7.569  64.667  1.00  0.00     0.000 HD 
HETATM   27  O   UNL     1      -7.589   8.446  64.301  1.00  0.00    -0.109 OA 
BRANCH  25  28
HETATM   28  C   UNL     1      -8.867   9.326  66.187  1.00  0.00    -0.183 C  
HETATM   29  C   UNL     1      -9.951   8.540  66.960  1.00  0.00    -0.318 C  
HETATM   30  C   UNL     1      -9.791   9.017  68.418  1.00  0.00    -0.166 C  
HETATM   31  C   UNL     1      -9.863   6.989  66.856  1.00  0.00    -0.259 C  
HETATM   32  C   UNL     1     -11.022   6.264  67.554  1.00  0.00    -0.444 C  
HETATM   33  O   UNL     1      -8.699   9.225  68.945  1.00  0.00    -0.128 OA 
HETATM   34  N   UNL     1     -10.969   9.189  69.110  1.00  0.00    -0.424 N  
HETATM   35  C   UNL     1      -8.518   6.424  67.325  1.00  0.00    -0.111 C  
HETATM   36  H   UNL     1     -11.854   8.923  68.678  1.00  0.00     0.000 HD 
BRANCH  34  37
HETATM   37  C   UNL     1     -10.961   9.747  70.450  1.00  0.00    -0.312 C  
BRANCH  37  38
HETATM   38  C   UNL     1     -11.558   8.807  71.511  1.00  0.00    -0.374 C  
HETATM   39  C   UNL     1     -11.985   7.480  70.847  1.00  0.00    -0.278 C  
HETATM   40  C   UNL     1     -10.534   8.512  72.620  1.00  0.00    -0.225 C  
BRANCH  38  41
HETATM   41  C   UNL     1     -12.803   9.469  72.118  1.00  0.00    -0.389 C  
HETATM   42  N   UNL     1     -13.616   8.690  72.881  1.00  0.00    -0.782 N  
HETATM   43  O   UNL     1     -13.092  10.653  71.958  1.00  0.00    -0.481 OA 
HETATM   44  H2  UNL     1     -13.407   7.705  73.043  1.00  0.00     0.000 HD 
HETATM   45  H1  UNL     1     -14.443   9.129  73.284  1.00  0.00     0.000 HD 
ENDBRANCH  38  41
ENDBRANCH  37  38
ENDBRANCH  34  37
ENDBRANCH  25  28
ENDBRANCH  21  25
ENDBRANCH  17  21
ENDBRANCH  11  15
ENDBRANCH   6   7
ENDBRANCH   5   6
ENDBRANCH   4   5
ENDBRANCH   3   4
ENDBRANCH   2   3
TORSDOF 13
ENDMDL
MODEL        5
REMARK 921   NORMALIZED FREE ENERGY PREDICTED BY IDOCK:   -6.71 KCAL/MOL
REMARK 922        TOTAL FREE ENERGY PREDICTED BY IDOCK:  -14.11 KCAL/MOL
REMARK 923 INTER-LIGAND FREE ENERGY PREDICTED BY IDOCK:  -11.40 KCAL/MOL
REMARK 924 INTRA-LIGAND FREE ENERGY PREDICTED BY IDOCK:   -2.71 KCAL/MOL
REMARK 927      BINDING AFFINITY PREDICTED BY RF-SCORE:    0.00 PKD
ROOT
HETATM    1  C   UNL     1     -13.390  13.150  72.096  1.00  0.00    -0.524 C  
HETATM    2  O   UNL     1     -13.247  11.737  72.052  1.00  0.00    -0.506 OA 
ENDROOT
BRANCH   2   3
HETATM    3  C   UNL     1     -12.644  11.319  70.828  1.00  0.00    -0.332 C  
BRANCH   3   4
HETATM    4  C   UNL     1     -11.613  10.235  71.109  1.00  0.00    -0.385 C  
BRANCH   4   5
HETATM    5  C   UNL     1     -11.769   8.990  70.236  1.00  0.00     0.014 C  
BRANCH   5   6
HETATM    6  O   UNL     1     -10.502   8.378  70.019  1.00  0.00    -0.214 OA 
BRANCH   6   7
HETATM    7  C   UNL     1      -9.572   8.982  69.208  1.00  0.00    -0.162 A  
HETATM    8  C   UNL     1      -8.335   9.272  69.823  1.00  0.00    -0.142 A  
HETATM    9  C   UNL     1      -7.379  10.018  69.128  1.00  0.00    -0.087 A  
HETATM   10  C   UNL     1      -9.834   9.443  67.912  1.00  0.00    -0.197 A  
HETATM   11  C   UNL     1      -8.903  10.264  67.246  1.00  0.00    -0.136 A  
HETATM   12  C   UNL     1      -7.675  10.525  67.859  1.00  0.00    -0.092 A  
BRANCH   8  13
HETATM   13  O   UNL     1      -8.169   8.796  71.101  1.00  0.00    -0.137 OA 
HETATM   14  C   UNL     1      -6.949   8.137  71.409  1.00  0.00    -0.059 C  
ENDBRANCH   8  13
BRANCH  11  15
HETATM   15  C   UNL     1      -9.300  11.031  66.001  1.00  0.00    -0.225 C  
HETATM   16  C   UNL     1      -9.690  10.304  64.687  1.00  0.00    -0.398 C  
HETATM   17  C   UNL     1     -10.260  11.357  63.662  1.00  0.00    -0.448 C  
HETATM   18  C   UNL     1      -8.558   9.496  63.982  1.00  0.00    -0.222 C  
HETATM   19  C   UNL     1      -8.151   8.233  64.743  1.00  0.00    -0.151 C  
HETATM   20  C   UNL     1      -7.324  10.332  63.631  1.00  0.00    -0.082 C  
BRANCH  17  21
HETATM   21  C   UNL     1     -11.553  12.078  64.093  1.00  0.00    -0.379 C  
HETATM   22  N   UNL     1     -12.644  11.552  63.264  1.00  0.00    -0.796 NA 
HETATM   23  H1  UNL     1     -13.500  12.029  63.548  1.00  0.00     0.000 HD 
HETATM   24  H2  UNL     1     -12.722  10.536  63.303  1.00  0.00     0.000 HD 
BRANCH  21  25
HETATM   25  C   UNL     1     -11.463  13.649  64.022  1.00  0.00    -0.271 C  
HETATM   26  H   UNL     1     -12.673  15.214  64.173  1.00  0.00     0.000 HD 
HETATM   27  O   UNL     1     -12.727  14.266  64.217  1.00  0.00    -0.660 OA 
BRANCH  25  28
HETATM   28  C   UNL     1     -10.445  14.129  65.075  1.00  0.00    -0.447 C  
HETATM   29  C   UNL     1     -10.894  14.895  66.342  1.00  0.00    -0.325 C  
HETATM   30  C   UNL     1      -9.572  15.258  67.048  1.00  0.00    -0.224 C  
HETATM   31  C   UNL     1     -11.853  14.121  67.293  1.00  0.00    -0.452 C  
HETATM   32  C   UNL     1     -12.350  14.963  68.476  1.00  0.00     0.059 C  
HETATM   33  O   UNL     1      -8.606  14.498  67.108  1.00  0.00    -0.201 OA 
HETATM   34  N   UNL     1      -9.543  16.507  67.628  1.00  0.00    -0.233 N  
HETATM   35  C   UNL     1     -11.275  12.790  67.787  1.00  0.00    -0.317 C  
HETATM   36  H   UNL     1     -10.388  17.079  67.642  1.00  0.00     0.000 HD 
BRANCH  34  37
HETATM   37  C   UNL     1      -8.319  17.015  68.221  1.00  0.00    -0.228 C  
BRANCH  37  38
HETATM   38  C   UNL     1      -8.162  18.540  68.097  1.00  0.00    -0.315 C  
HETATM   39  C   UNL     1      -9.409  19.239  68.681  1.00  0.00    -0.446 C  
HETATM   40  C   UNL     1      -6.911  19.023  68.849  1.00  0.00    -0.357 C  
BRANCH  38  41
HETATM   41  C   UNL     1      -8.049  18.909  66.611  1.00  0.00    -0.280 C  
HETATM   42  N   UNL     1      -8.423  20.165  66.249  1.00  0.00    -0.524 N  
HETATM   43  O   UNL     1      -7.634  18.138  65.747  1.00  0.00    -0.519 OA 
HETATM   44  H2  UNL     1      -8.765  20.836  66.937  1.00  0.00     0.000 HD 
HETATM   45  H1  UNL     1      -8.348  20.410  65.263  1.00  0.00     0.000 HD 
ENDBRANCH  38  41
ENDBRANCH  37  38
ENDBRANCH  34  37
ENDBRANCH  25  28
ENDBRANCH  21  25
ENDBRANCH  17  21
ENDBRANCH  11  15
ENDBRANCH   6   7
ENDBRANCH   5   6
ENDBRANCH   4   5
ENDBRANCH   3   4
ENDBRANCH   2   3
TORSDOF 13
ENDMDL
MODEL        6
REMARK 921   NORMALIZED FREE ENERGY PREDICTED BY IDOCK:   -6.64 KCAL/MOL
REMARK 922        TOTAL FREE ENERGY PREDICTED BY IDOCK:  -13.99 KCAL/MOL
REMARK 923 INTER-LIGAND FREE ENERGY PREDICTED BY IDOCK:  -11.68 KCAL/MOL
REMARK 924 INTRA-LIGAND FREE ENERGY PREDICTED BY IDOCK:   -2.30 KCAL/MOL
REMARK 927      BINDING AFFINITY PREDICTED BY RF-SCORE:    0.00 PKD
ROOT
HETATM    1  C   UNL     1      -9.210   1.853  67.823  1.00  0.00    -0.167 C  
HETATM    2  O   UNL     1      -8.542   3.061  68.160  1.00  0.00    -0.082 OA 
ENDROOT
BRANCH   2   3
HETATM    3  C   UNL     1      -8.292   3.851  66.998  1.00  0.00    -0.100 C  
BRANCH   3   4
HETATM    4  C   UNL     1      -9.458   3.719  66.028  1.00  0.00    -0.178 C  
BRANCH   4   5
HETATM    5  C   UNL     1     -10.301   4.988  65.897  1.00  0.00    -0.185 C  
BRANCH   5   6
HETATM    6  O   UNL     1     -10.858   5.342  67.159  1.00  0.00    -0.196 OA 
BRANCH   6   7
HETATM    7  C   UNL     1     -10.562   6.557  67.728  1.00  0.00    -0.259 A  
HETATM    8  C   UNL     1     -10.698   6.612  69.132  1.00  0.00    -0.264 A  
HETATM    9  C   UNL     1     -10.565   7.838  69.789  1.00  0.00    -0.241 A  
HETATM   10  C   UNL     1     -10.298   7.727  67.005  1.00  0.00    -0.405 A  
HETATM   11  C   UNL     1     -10.246   8.973  67.658  1.00  0.00    -0.300 A  
HETATM   12  C   UNL     1     -10.362   9.008  69.051  1.00  0.00    -0.233 A  
BRANCH   8  13
HETATM   13  O   UNL     1     -10.973   5.421  69.760  1.00  0.00    -0.246 OA 
HETATM   14  C   UNL     1     -10.025   4.933  70.698  1.00  0.00    -0.235 C  
ENDBRANCH   8  13
BRANCH  11  15
HETATM   15  C   UNL     1     -10.290  10.264  66.867  1.00  0.00    -0.298 C  
HETATM   16  C   UNL     1      -9.495  10.436  65.547  1.00  0.00    -0.267 C  
HETATM   17  C   UNL     1      -9.920  11.789  64.858  1.00  0.00    -0.280 C  
HETATM   18  C   UNL     1      -7.940  10.416  65.668  1.00  0.00    -0.153 C  
HETATM   19  C   UNL     1      -7.378   9.034  66.009  1.00  0.00    -0.094 C  
HETATM   20  C   UNL     1      -7.378  11.474  66.620  1.00  0.00    -0.069 C  
BRANCH  17  21
HETATM   21  C   UNL     1     -11.397  11.883  64.425  1.00  0.00    -0.326 C  
HETATM   22  N   UNL     1     -11.508  11.245  63.108  1.00  0.00    -0.831 NA 
HETATM   23  H1  UNL     1     -12.485  11.307  62.821  1.00  0.00     0.000 HD 
HETATM   24  H2  UNL     1     -11.149  10.290  63.095  1.00  0.00     0.000 HD 
BRANCH  21  25
HETATM   25  C   UNL     1     -11.970  13.351  64.418  1.00  0.00    -0.411 C  
HETATM   26  H   UNL     1     -13.470  14.363  65.230  1.00  0.00     0.000 HD 
HETATM   27  O   UNL     1     -13.124  13.478  65.235  1.00  0.00    -0.713 OA 
BRANCH  25  28
HETATM   28  C   UNL     1     -10.856  14.312  64.880  1.00  0.00    -0.429 C  
HETATM   29  C   UNL     1     -11.086  15.319  66.032  1.00  0.00    -0.278 C  
HETATM   30  C   UNL     1      -9.773  16.127  66.090  1.00  0.00    -0.323 C  
HETATM   31  C   UNL     1     -11.433  14.695  67.414  1.00  0.00    -0.384 C  
HETATM   32  C   UNL     1     -11.754  15.740  68.492  1.00  0.00    -0.328 C  
HETATM   33  O   UNL     1      -8.662  15.621  65.938  1.00  0.00    -0.219 OA 
HETATM   34  N   UNL     1      -9.925  17.473  66.340  1.00  0.00    -0.314 N  
HETATM   35  C   UNL     1     -10.372  13.712  67.921  1.00  0.00    -0.249 C  
HETATM   36  H   UNL     1     -10.850  17.847  66.551  1.00  0.00     0.000 HD 
BRANCH  34  37
HETATM   37  C   UNL     1      -8.778  18.362  66.303  1.00  0.00    -0.191 C  
BRANCH  37  38
HETATM   38  C   UNL     1      -8.656  19.260  67.545  1.00  0.00    -0.325 C  
HETATM   39  C   UNL     1      -8.000  18.468  68.696  1.00  0.00    -0.334 C  
HETATM   40  C   UNL     1      -7.807  20.505  67.238  1.00  0.00    -0.367 C  
BRANCH  38  41
HETATM   41  C   UNL     1     -10.062  19.688  67.989  1.00  0.00    -0.437 C  
HETATM   42  N   UNL     1     -10.279  19.829  69.324  1.00  0.00    -0.621 N  
HETATM   43  O   UNL     1     -10.984  19.915  67.208  1.00  0.00    -0.354 OA 
HETATM   44  H2  UNL     1      -9.538  19.657  70.004  1.00  0.00     0.000 HD 
HETATM   45  H1  UNL     1     -11.213  20.113  69.620  1.00  0.00     0.000 HD 
ENDBRANCH  38  41
ENDBRANCH  37  38
ENDBRANCH  34  37
ENDBRANCH  25  28
ENDBRANCH  21  25
ENDBRANCH  17  21
ENDBRANCH  11  15
ENDBRANCH   6   7
ENDBRANCH   5   6
ENDBRANCH   4   5
ENDBRANCH   3   4
ENDBRANCH   2   3
TORSDOF 13
ENDMDL
MODEL        7
REMARK 921   NORMALIZED FREE ENERGY PREDICTED BY IDOCK:   -6.51 KCAL/MOL
REMARK 922        TOTAL FREE ENERGY PREDICTED BY IDOCK:  -13.76 KCAL/MOL
REMARK 923 INTER-LIGAND FREE ENERGY PREDICTED BY IDOCK:  -11.23 KCAL/MOL
REMARK 924 INTRA-LIGAND FREE ENERGY PREDICTED BY IDOCK:   -2.53 KCAL/MOL
REMARK 927      BINDING AFFINITY PREDICTED BY RF-SCORE:    0.00 PKD
ROOT
HETATM    1  C   UNL     1      -6.668   6.842  69.488  1.00  0.00    -0.050 C  
HETATM    2  O   UNL     1      -6.729   6.432  70.847  1.00  0.00    -0.054 OA 
ENDROOT
BRANCH   2   3
HETATM    3  C   UNL     1      -6.895   7.552  71.715  1.00  0.00    -0.057 C  
BRANCH   3   4
HETATM    4  C   UNL     1      -7.814   8.575  71.060  1.00  0.00    -0.122 C  
BRANCH   4   5
HETATM    5  C   UNL     1      -9.194   8.674  71.710  1.00  0.00    -0.268 C  
BRANCH   5   6
HETATM    6  O   UNL     1     -10.085   7.733  71.119  1.00  0.00    -0.187 OA 
BRANCH   6   7
HETATM    7  C   UNL     1     -10.374   7.803  69.778  1.00  0.00    -0.221 A  
HETATM    8  C   UNL     1     -10.270   6.583  69.076  1.00  0.00    -0.177 A  
HETATM    9  C   UNL     1     -10.398   6.576  67.685  1.00  0.00    -0.239 A  
HETATM   10  C   UNL     1     -10.602   8.995  69.078  1.00  0.00    -0.209 A  
HETATM   11  C   UNL     1     -10.648   8.997  67.671  1.00  0.00    -0.298 A  
HETATM   12  C   UNL     1     -10.564   7.779  66.992  1.00  0.00    -0.396 A  
BRANCH   8  13
HETATM   13  O   UNL     1     -10.030   5.465  69.840  1.00  0.00    -0.183 OA 
HETATM   14  C   UNL     1      -9.560   4.300  69.177  1.00  0.00    -0.179 C  
ENDBRANCH   8  13
BRANCH  11  15
HETATM   15  C   UNL     1     -10.564  10.297  66.897  1.00  0.00    -0.282 C  
HETATM   16  C   UNL     1      -9.555  10.489  65.736  1.00  0.00    -0.260 C  
HETATM   17  C   UNL     1      -9.865  11.846  64.997  1.00  0.00    -0.234 C  
HETATM   18  C   UNL     1      -8.044  10.475  66.123  1.00  0.00    -0.145 C  
HETATM   19  C   UNL     1      -7.538   9.093  66.541  1.00  0.00    -0.093 C  
HETATM   20  C   UNL     1      -7.662  11.526  67.168  1.00  0.00    -0.160 C  
BRANCH  17  21
HETATM   21  C   UNL     1     -11.245  11.937  64.317  1.00  0.00    -0.357 C  
HETATM   22  N   UNL     1     -11.109  11.366  62.972  1.00  0.00    -0.840 NA 
HETATM   23  H1  UNL     1     -12.022  11.426  62.521  1.00  0.00     0.000 HD 
HETATM   24  H2  UNL     1     -10.729  10.419  62.977  1.00  0.00     0.000 HD 
BRANCH  21  25
HETATM   25  C   UNL     1     -11.846  13.393  64.280  1.00  0.00    -0.423 C  
HETATM   26  H   UNL     1     -13.385  14.385  65.043  1.00  0.00     0.000 HD 
HETATM   27  O   UNL     1     -13.023  13.507  65.066  1.00  0.00    -0.719 OA 
BRANCH  25  28
HETATM   28  C   UNL     1     -10.763  14.381  64.759  1.00  0.00    -0.423 C  
HETATM   29  C   UNL     1     -11.027  15.366  65.923  1.00  0.00    -0.293 C  
HETATM   30  C   UNL     1      -9.739  16.211  65.997  1.00  0.00    -0.344 C  
HETATM   31  C   UNL     1     -11.361  14.714  67.296  1.00  0.00    -0.364 C  
HETATM   32  C   UNL     1     -11.717  15.735  68.385  1.00  0.00    -0.279 C  
HETATM   33  O   UNL     1      -8.613  15.741  65.843  1.00  0.00    -0.194 OA 
HETATM   34  N   UNL     1      -9.932  17.549  66.263  1.00  0.00    -0.315 N  
HETATM   35  C   UNL     1     -10.273  13.756  67.794  1.00  0.00    -0.241 C  
HETATM   36  H   UNL     1     -10.868  17.893  66.476  1.00  0.00     0.000 HD 
BRANCH  34  37
HETATM   37  C   UNL     1      -8.811  18.471  66.243  1.00  0.00    -0.207 C  
BRANCH  37  38
HETATM   38  C   UNL     1      -8.668  19.294  67.535  1.00  0.00    -0.335 C  
HETATM   39  C   UNL     1      -7.982  18.437  68.621  1.00  0.00    -0.317 C  
HETATM   40  C   UNL     1      -7.833  20.561  67.287  1.00  0.00    -0.367 C  
BRANCH  38  41
HETATM   41  C   UNL     1     -10.066  19.684  68.034  1.00  0.00    -0.437 C  
HETATM   42  N   UNL     1     -10.238  19.806  69.378  1.00  0.00    -0.611 N  
HETATM   43  O   UNL     1     -11.021  19.896  67.289  1.00  0.00    -0.354 OA 
HETATM   44  H2  UNL     1      -9.469  19.645  70.028  1.00  0.00     0.000 HD 
HETATM   45  H1  UNL     1     -11.167  20.065  69.709  1.00  0.00     0.000 HD 
ENDBRANCH  38  41
ENDBRANCH  37  38
ENDBRANCH  34  37
ENDBRANCH  25  28
ENDBRANCH  21  25
ENDBRANCH  17  21
ENDBRANCH  11  15
ENDBRANCH   6   7
ENDBRANCH   5   6
ENDBRANCH   4   5
ENDBRANCH   3   4
ENDBRANCH   2   3
TORSDOF 13
ENDMDL
MODEL        8
REMARK 921   NORMALIZED FREE ENERGY PREDICTED BY IDOCK:   -6.38 KCAL/MOL
REMARK 922        TOTAL FREE ENERGY PREDICTED BY IDOCK:  -13.54 KCAL/MOL
REMARK 923 INTER-LIGAND FREE ENERGY PREDICTED BY IDOCK:  -10.92 KCAL/MOL
REMARK 924 INTRA-LIGAND FREE ENERGY PREDICTED BY IDOCK:   -2.62 KCAL/MOL
REMARK 927      BINDING AFFINITY PREDICTED BY RF-SCORE:    0.00 PKD
ROOT
HETATM    1  C   UNL     1      -7.979  20.012  66.334  1.00  0.00    -0.297 C  
HETATM    2  O   UNL     1      -8.529  19.503  67.541  1.00  0.00    -0.288 OA 
ENDROOT
BRANCH   2   3
HETATM    3  C   UNL     1      -9.906  19.854  67.667  1.00  0.00    -0.393 C  
BRANCH   3   4
HETATM    4  C   UNL     1     -10.772  18.618  67.461  1.00  0.00    -0.447 C  
BRANCH   4   5
HETATM    5  C   UNL     1     -10.400  17.444  68.366  1.00  0.00    -0.379 C  
BRANCH   5   6
HETATM    6  O   UNL     1      -9.909  16.358  67.587  1.00  0.00    -0.237 OA 
BRANCH   6   7
HETATM    7  C   UNL     1     -10.528  15.133  67.641  1.00  0.00    -0.253 A  
HETATM    8  C   UNL     1     -11.315  14.807  66.515  1.00  0.00    -0.344 A  
HETATM    9  C   UNL     1     -12.103  13.653  66.536  1.00  0.00    -0.469 A  
HETATM   10  C   UNL     1     -10.543  14.303  68.768  1.00  0.00    -0.255 A  
HETATM   11  C   UNL     1     -11.400  13.186  68.820  1.00  0.00    -0.333 A  
HETATM   12  C   UNL     1     -12.157  12.865  67.690  1.00  0.00    -0.239 A  
BRANCH   8  13
HETATM   13  O   UNL     1     -11.253  15.686  65.460  1.00  0.00    -0.256 OA 
HETATM   14  C   UNL     1     -12.138  15.473  64.369  1.00  0.00    -0.139 C  
ENDBRANCH   8  13
BRANCH  11  15
HETATM   15  C   UNL     1     -11.670  12.478  70.132  1.00  0.00    -0.255 C  
HETATM   16  C   UNL     1     -12.951  12.759  70.959  1.00  0.00    -0.166 C  
HETATM   17  C   UNL     1     -13.046  11.718  72.138  1.00  0.00    -0.308 C  
HETATM   18  C   UNL     1     -13.087  14.192  71.559  1.00  0.00    -0.424 C  
HETATM   19  C   UNL     1     -13.345  15.269  70.502  1.00  0.00    -0.208 C  
HETATM   20  C   UNL     1     -11.923  14.599  72.465  1.00  0.00    -0.187 C  
BRANCH  17  21
HETATM   21  C   UNL     1     -13.185  10.241  71.716  1.00  0.00    -0.430 C  
HETATM   22  N   UNL     1     -14.244   9.648  72.541  1.00  0.00    -0.551 NA 
HETATM   23  H1  UNL     1     -14.336   8.671  72.263  1.00  0.00     0.000 HD 
HETATM   24  H2  UNL     1     -15.124  10.161  72.490  1.00  0.00     0.000 HD 
BRANCH  21  25
HETATM   25  C   UNL     1     -11.842   9.422  71.805  1.00  0.00    -0.382 C  
HETATM   26  H   UNL     1     -11.140   7.816  72.733  1.00  0.00     0.000 HD 
HETATM   27  O   UNL     1     -11.950   8.309  72.679  1.00  0.00    -0.399 OA 
BRANCH  25  28
HETATM   28  C   UNL     1     -11.448   8.972  70.383  1.00  0.00    -0.202 C  
HETATM   29  C   UNL     1     -10.211   9.560  69.664  1.00  0.00    -0.234 C  
HETATM   30  C   UNL     1     -10.252   8.915  68.263  1.00  0.00    -0.201 C  
HETATM   31  C   UNL     1      -8.844   9.313  70.364  1.00  0.00    -0.271 C  
HETATM   32  C   UNL     1      -7.666  10.006  69.665  1.00  0.00    -0.158 C  
HETATM   33  O   UNL     1     -10.569   7.742  68.068  1.00  0.00    -0.201 OA 
HETATM   34  N   UNL     1      -9.894   9.747  67.226  1.00  0.00    -0.172 N  
HETATM   35  C   UNL     1      -8.535   7.829  70.589  1.00  0.00    -0.126 C  
HETATM   36  H   UNL     1      -9.550  10.686  67.426  1.00  0.00     0.000 HD 
BRANCH  34  37
HETATM   37  C   UNL     1     -10.004   9.297  65.850  1.00  0.00    -0.219 C  
BRANCH  37  38
HETATM   38  C   UNL     1      -9.166  10.126  64.863  1.00  0.00    -0.281 C  
HETATM   39  C   UNL     1      -9.947  11.394  64.455  1.00  0.00    -0.318 C  
HETATM   40  C   UNL     1      -7.826  10.539  65.495  1.00  0.00    -0.138 C  
BRANCH  38  41
HETATM   41  C   UNL     1      -8.908   9.288  63.603  1.00  0.00    -0.116 C  
HETATM   42  N   UNL     1      -8.411   8.034  63.778  1.00  0.00    -0.381 N  
HETATM   43  O   UNL     1      -9.134   9.685  62.462  1.00  0.00    -0.267 OA 
HETATM   44  H2  UNL     1      -8.217   7.665  64.709  1.00  0.00     0.000 HD 
HETATM   45  H1  UNL     1      -8.240   7.477  62.941  1.00  0.00     0.000 HD 
ENDBRANCH  38  41
ENDBRANCH  37  38
ENDBRANCH  34  37
ENDBRANCH  25  28
ENDBRANCH  21  25
ENDBRANCH  17  21
ENDBRANCH  11  15
ENDBRANCH   6   7
ENDBRANCH   5   6
ENDBRANCH   4   5
ENDBRANCH   3   4
ENDBRANCH   2   3
TORSDOF 13
ENDMDL
MODEL        9
REMARK 921   NORMALIZED FREE ENERGY PREDICTED BY IDOCK:   -6.27 KCAL/MOL
REMARK 922        TOTAL FREE ENERGY PREDICTED BY IDOCK:  -13.35 KCAL/MOL
REMARK 923 INTER-LIGAND FREE ENERGY PREDICTED BY IDOCK:  -11.66 KCAL/MOL
REMARK 924 INTRA-LIGAND FREE ENERGY PREDICTED BY IDOCK:   -1.68 KCAL/MOL
REMARK 927      BINDING AFFINITY PREDICTED BY RF-SCORE:    0.00 PKD
ROOT
HETATM    1  C   UNL     1     -12.389  11.105  70.610  1.00  0.00    -0.388 C  
HETATM    2  O   UNL     1     -13.051   9.862  70.799  1.00  0.00    -0.300 OA 
ENDROOT
BRANCH   2   3
HETATM    3  C   UNL     1     -13.243   9.588  72.186  1.00  0.00    -0.451 C  
BRANCH   3   4
HETATM    4  C   UNL     1     -14.307   8.511  72.354  1.00  0.00    -0.412 C  
BRANCH   4   5
HETATM    5  C   UNL     1     -14.053   7.254  71.523  1.00  0.00    -0.378 C  
BRANCH   5   6
HETATM    6  O   UNL     1     -13.018   6.474  72.113  1.00  0.00    -0.187 OA 
BRANCH   6   7
HETATM    7  C   UNL     1     -11.843   6.257  71.435  1.00  0.00    -0.205 A  
HETATM    8  C   UNL     1     -10.946   5.363  72.058  1.00  0.00    -0.178 A  
HETATM    9  C   UNL     1      -9.665   5.191  71.526  1.00  0.00    -0.221 A  
HETATM   10  C   UNL     1     -11.445   6.965  70.295  1.00  0.00    -0.373 A  
HETATM   11  C   UNL     1     -10.129   6.853  69.809  1.00  0.00    -0.196 A  
HETATM   12  C   UNL     1      -9.259   5.948  70.423  1.00  0.00    -0.174 A  
BRANCH   8  13
HETATM   13  O   UNL     1     -11.412   4.723  73.181  1.00  0.00    -0.309 OA 
HETATM   14  C   UNL     1     -10.823   3.477  73.526  1.00  0.00    -0.229 C  
ENDBRANCH   8  13
BRANCH  11  15
HETATM   15  C   UNL     1      -9.592   7.841  68.794  1.00  0.00    -0.154 C  
HETATM   16  C   UNL     1     -10.163   7.922  67.355  1.00  0.00    -0.320 C  
HETATM   17  C   UNL     1      -9.558   9.182  66.626  1.00  0.00    -0.263 C  
HETATM   18  C   UNL     1      -9.934   6.674  66.448  1.00  0.00    -0.076 C  
HETATM   19  C   UNL     1     -10.757   5.457  66.874  1.00  0.00    -0.264 C  
HETATM   20  C   UNL     1      -8.462   6.294  66.277  1.00  0.00    -0.133 C  
BRANCH  17  21
HETATM   21  C   UNL     1      -9.909  10.548  67.250  1.00  0.00    -0.177 C  
HETATM   22  N   UNL     1     -11.362  10.573  67.460  1.00  0.00    -0.485 NA 
HETATM   23  H1  UNL     1     -11.595  11.476  67.873  1.00  0.00     0.000 HD 
HETATM   24  H2  UNL     1     -11.699   9.784  68.012  1.00  0.00     0.000 HD 
BRANCH  21  25
HETATM   25  C   UNL     1      -9.416  11.783  66.405  1.00  0.00    -0.221 C  
HETATM   26  H   UNL     1      -9.522  12.442  64.537  1.00  0.00     0.000 HD 
HETATM   27  O   UNL     1      -9.821  11.698  65.047  1.00  0.00    -0.247 OA 
BRANCH  25  28
HETATM   28  C   UNL     1      -9.951  13.071  67.062  1.00  0.00    -0.242 C  
HETATM   29  C   UNL     1     -10.333  14.309  66.217  1.00  0.00    -0.297 C  
HETATM   30  C   UNL     1     -10.716  15.374  67.266  1.00  0.00    -0.307 C  
HETATM   31  C   UNL     1     -11.475  14.093  65.183  1.00  0.00    -0.336 C  
HETATM   32  C   UNL     1     -11.740  15.321  64.301  1.00  0.00    -0.223 C  
HETATM   33  O   UNL     1     -11.348  15.117  68.289  1.00  0.00    -0.298 OA 
HETATM   34  N   UNL     1     -10.306  16.656  66.973  1.00  0.00    -0.301 N  
HETATM   35  C   UNL     1     -12.780  13.594  65.813  1.00  0.00    -0.470 C  
HETATM   36  H   UNL     1      -9.863  16.854  66.077  1.00  0.00     0.000 HD 
BRANCH  34  37
HETATM   37  C   UNL     1     -10.500  17.727  67.934  1.00  0.00    -0.397 C  
BRANCH  37  38
HETATM   38  C   UNL     1      -9.387  18.788  67.906  1.00  0.00    -0.331 C  
HETATM   39  C   UNL     1      -9.873  20.068  68.620  1.00  0.00    -0.377 C  
HETATM   40  C   UNL     1      -8.119  18.269  68.603  1.00  0.00    -0.304 C  
BRANCH  38  41
HETATM   41  C   UNL     1      -9.070  19.137  66.445  1.00  0.00    -0.343 C  
HETATM   42  N   UNL     1      -9.613  20.279  65.944  1.00  0.00    -0.620 N  
HETATM   43  O   UNL     1      -8.353  18.450  65.720  1.00  0.00    -0.478 OA 
HETATM   44  H2  UNL     1     -10.207  20.880  66.515  1.00  0.00     0.000 HD 
HETATM   45  H1  UNL     1      -9.403  20.511  64.974  1.00  0.00     0.000 HD 
ENDBRANCH  38  41
ENDBRANCH  37  38
ENDBRANCH  34  37
ENDBRANCH  25  28
ENDBRANCH  21  25
ENDBRANCH  17  21
ENDBRANCH  11  15
ENDBRANCH   6   7
ENDBRANCH   5   6
ENDBRANCH   4   5
ENDBRANCH   3   4
ENDBRANCH   2   3
TORSDOF 13
ENDMDL
MODEL       10
REMARK 921   NORMALIZED FREE ENERGY PREDICTED BY IDOCK:   -6.22 KCAL/MOL
REMARK 922        TOTAL FREE ENERGY PREDICTED BY IDOCK:  -13.26 KCAL/MOL
REMARK 923 INTER-LIGAND FREE ENERGY PREDICTED BY IDOCK:  -11.78 KCAL/MOL
REMARK 924 INTRA-LIGAND FREE ENERGY PREDICTED BY IDOCK:   -1.48 KCAL/MOL
REMARK 927      BINDING AFFINITY PREDICTED BY RF-SCORE:    0.00 PKD
ROOT
HETATM    1  C   UNL     1     -13.160  15.862  73.463  1.00  0.00    -0.565 C  
HETATM    2  O   UNL     1     -13.204  14.446  73.352  1.00  0.00    -0.576 OA 
ENDROOT
BRANCH   2   3
HETATM    3  C   UNL     1     -14.003  14.042  72.240  1.00  0.00    -0.553 C  
BRANCH   3   4
HETATM    4  C   UNL     1     -13.218  14.235  70.950  1.00  0.00    -0.320 C  
BRANCH   4   5
HETATM    5  C   UNL     1     -12.181  13.143  70.687  1.00  0.00    -0.321 C  
BRANCH   5   6
HETATM    6  O   UNL     1     -12.826  11.890  70.481  1.00  0.00    -0.067 OA 
BRANCH   6   7
HETATM    7  C   UNL     1     -12.086  10.772  70.181  1.00  0.00    -0.346 A  
HETATM    8  C   UNL     1     -12.072   9.774  71.179  1.00  0.00    -0.370 A  
HETATM    9  C   UNL     1     -11.232   8.668  71.035  1.00  0.00    -0.321 A  
HETATM   10  C   UNL     1     -11.258  10.649  69.058  1.00  0.00    -0.324 A  
HETATM   11  C   UNL     1     -10.352   9.576  68.955  1.00  0.00    -0.225 A  
HETATM   12  C   UNL     1     -10.366   8.586  69.941  1.00  0.00    -0.210 A  
BRANCH   8  13
HETATM   13  O   UNL     1     -12.903   9.983  72.254  1.00  0.00    -0.354 OA 
HETATM   14  C   UNL     1     -13.983   9.080  72.442  1.00  0.00    -0.448 C  
ENDBRANCH   8  13
BRANCH  11  15
HETATM   15  C   UNL     1      -9.237   9.601  67.929  1.00  0.00    -0.134 C  
HETATM   16  C   UNL     1      -9.402   8.952  66.531  1.00  0.00    -0.252 C  
HETATM   17  C   UNL     1      -8.168   9.338  65.630  1.00  0.00    -0.119 C  
HETATM   18  C   UNL     1      -9.563   7.401  66.504  1.00  0.00    -0.228 C  
HETATM   19  C   UNL     1     -10.906   6.921  67.058  1.00  0.00    -0.436 C  
HETATM   20  C   UNL     1      -8.409   6.646  67.167  1.00  0.00    -0.113 C  
BRANCH  17  21
HETATM   21  C   UNL     1      -8.003  10.842  65.331  1.00  0.00    -0.027 C  
HETATM   22  N   UNL     1      -7.524  11.482  66.562  1.00  0.00    -0.327 NA 
HETATM   23  H1  UNL     1      -7.415  12.477  66.365  1.00  0.00     0.000 HD 
HETATM   24  H2  UNL     1      -6.675  11.054  66.931  1.00  0.00     0.000 HD 
BRANCH  21  25
HETATM   25  C   UNL     1      -9.307  11.531  64.778  1.00  0.00    -0.042 C  
HETATM   26  H   UNL     1     -11.112  11.002  64.146  1.00  0.00     0.000 HD 
HETATM   27  O   UNL     1     -10.325  10.587  64.480  1.00  0.00    -0.348 OA 
BRANCH  25  28
HETATM   28  C   UNL     1      -9.795  12.561  65.816  1.00  0.00    -0.244 C  
HETATM   29  C   UNL     1     -10.353  13.938  65.386  1.00  0.00    -0.364 C  
HETATM   30  C   UNL     1     -10.622  14.666  66.719  1.00  0.00    -0.288 C  
HETATM   31  C   UNL     1     -11.626  13.900  64.491  1.00  0.00    -0.409 C  
HETATM   32  C   UNL     1     -12.073  15.287  64.008  1.00  0.00    -0.031 C  
HETATM   33  O   UNL     1     -11.083  14.106  67.713  1.00  0.00    -0.263 OA 
HETATM   34  N   UNL     1     -10.317  16.009  66.724  1.00  0.00    -0.295 N  
HETATM   35  C   UNL     1     -12.799  13.153  65.135  1.00  0.00    -0.367 C  
HETATM   36  H   UNL     1     -10.022  16.464  65.860  1.00  0.00     0.000 HD 
BRANCH  34  37
HETATM   37  C   UNL     1     -10.413  16.781  67.949  1.00  0.00    -0.335 C  
BRANCH  37  38
HETATM   38  C   UNL     1      -9.442  17.972  68.004  1.00  0.00    -0.284 C  
HETATM   39  C   UNL     1     -10.026  19.076  68.912  1.00  0.00    -0.460 C  
HETATM   40  C   UNL     1      -8.073  17.537  68.553  1.00  0.00    -0.275 C  
BRANCH  38  41
HETATM   41  C   UNL     1      -9.276  18.544  66.589  1.00  0.00    -0.306 C  
HETATM   42  N   UNL     1      -8.034  18.964  66.228  1.00  0.00    -0.284 N  
HETATM   43  O   UNL     1     -10.194  18.630  65.777  1.00  0.00    -0.552 OA 
HETATM   44  H2  UNL     1      -7.245  18.903  66.871  1.00  0.00     0.000 HD 
HETATM   45  H1  UNL     1      -7.923  19.344  65.289  1.00  0.00     0.000 HD 
ENDBRANCH  38  41
ENDBRANCH  37  38
ENDBRANCH  34  37
ENDBRANCH  25  28
ENDBRANCH  21  25
ENDBRANCH  17  21
ENDBRANCH  11  15
ENDBRANCH   6   7
ENDBRANCH   5   6
ENDBRANCH   4   5
ENDBRANCH   3   4
ENDBRANCH   2   3
TORSDOF 13
ENDMDL
MODEL       11
REMARK 921   NORMALIZED FREE ENERGY PREDICTED BY IDOCK:   -6.20 KCAL/MOL
REMARK 922        TOTAL FREE ENERGY PREDICTED BY IDOCK:  -13.23 KCAL/MOL
REMARK 923 INTER-LIGAND FREE ENERGY PREDICTED BY IDOCK:  -10.89 KCAL/MOL
REMARK 924 INTRA-LIGAND FREE ENERGY PREDICTED BY IDOCK:   -2.34 KCAL/MOL
REMARK 927      BINDING AFFINITY PREDICTED BY RF-SCORE:    0.00 PKD
ROOT
HETATM    1  C   UNL     1      -9.871   4.496  69.882  1.00  0.00    -0.227 C  
HETATM    2  O   UNL     1      -8.795   4.143  70.740  1.00  0.00    -0.081 OA 
ENDROOT
BRANCH   2   3
HETATM    3  C   UNL     1      -8.011   5.286  71.079  1.00  0.00    -0.103 C  
BRANCH   3   4
HETATM    4  C   UNL     1      -8.316   6.421  70.111  1.00  0.00    -0.134 C  
BRANCH   4   5
HETATM    5  C   UNL     1      -7.661   7.750  70.488  1.00  0.00    -0.088 C  
BRANCH   5   6
HETATM    6  O   UNL     1      -8.508   8.484  71.367  1.00  0.00    -0.141 OA 
BRANCH   6   7
HETATM    7  C   UNL     1      -9.476   9.316  70.860  1.00  0.00    -0.261 A  
HETATM    8  C   UNL     1     -10.749   9.194  71.458  1.00  0.00    -0.367 A  
HETATM    9  C   UNL     1     -11.834   9.887  70.915  1.00  0.00    -0.443 A  
HETATM   10  C   UNL     1      -9.310  10.127  69.730  1.00  0.00    -0.183 A  
HETATM   11  C   UNL     1     -10.419  10.759  69.136  1.00  0.00    -0.243 A  
HETATM   12  C   UNL     1     -11.669  10.644  69.752  1.00  0.00    -0.385 A  
BRANCH   8  13
HETATM   13  O   UNL     1     -10.825   8.365  72.552  1.00  0.00    -0.344 OA 
HETATM   14  C   UNL     1     -11.582   7.169  72.425  1.00  0.00    -0.253 C  
ENDBRANCH   8  13
BRANCH  11  15
HETATM   15  C   UNL     1     -10.317  11.360  67.749  1.00  0.00    -0.206 C  
HETATM   16  C   UNL     1     -10.891  10.636  66.504  1.00  0.00    -0.168 C  
HETATM   17  C   UNL     1     -10.827  11.607  65.264  1.00  0.00    -0.340 C  
HETATM   18  C   UNL     1     -10.207   9.291  66.109  1.00  0.00    -0.229 C  
HETATM   19  C   UNL     1     -10.491   8.155  67.095  1.00  0.00    -0.396 C  
HETATM   20  C   UNL     1      -8.704   9.412  65.849  1.00  0.00    -0.177 C  
BRANCH  17  21
HETATM   21  C   UNL     1     -11.672  12.892  65.377  1.00  0.00    -0.375 C  
HETATM   22  N   UNL     1     -13.026  12.567  64.915  1.00  0.00    -0.805 NA 
HETATM   23  H1  UNL     1     -13.585  13.417  64.989  1.00  0.00     0.000 HD 
HETATM   24  H2  UNL     1     -13.438  11.775  65.409  1.00  0.00     0.000 HD 
BRANCH  21  25
HETATM   25  C   UNL     1     -11.066  14.125  64.606  1.00  0.00    -0.371 C  
HETATM   26  H   UNL     1     -11.645  15.916  63.981  1.00  0.00     0.000 HD 
HETATM   27  O   UNL     1     -12.011  15.173  64.446  1.00  0.00    -0.430 OA 
BRANCH  25  28
HETATM   28  C   UNL     1      -9.819  14.616  65.370  1.00  0.00    -0.280 C  
HETATM   29  C   UNL     1      -9.875  15.856  66.292  1.00  0.00    -0.325 C  
HETATM   30  C   UNL     1      -8.417  16.038  66.762  1.00  0.00    -0.260 C  
HETATM   31  C   UNL     1     -10.853  15.757  67.498  1.00  0.00    -0.315 C  
HETATM   32  C   UNL     1     -10.946  17.052  68.317  1.00  0.00    -0.269 C  
HETATM   33  O   UNL     1      -7.678  15.098  67.051  1.00  0.00    -0.205 OA 
HETATM   34  N   UNL     1      -7.990  17.345  66.849  1.00  0.00    -0.213 N  
HETATM   35  C   UNL     1     -10.567  14.562  68.415  1.00  0.00    -0.244 C  
HETATM   36  H   UNL     1      -8.650  18.105  66.691  1.00  0.00     0.000 HD 
BRANCH  34  37
HETATM   37  C   UNL     1      -6.605  17.646  67.165  1.00  0.00    -0.161 C  
BRANCH  37  38
HETATM   38  C   UNL     1      -6.424  18.960  67.944  1.00  0.00    -0.227 C  
HETATM   39  C   UNL     1      -6.074  18.647  69.415  1.00  0.00    -0.274 C  
HETATM   40  C   UNL     1      -5.302  19.811  67.327  1.00  0.00    -0.160 C  
BRANCH  38  41
HETATM   41  C   UNL     1      -7.744  19.742  67.914  1.00  0.00    -0.295 C  
HETATM   42  N   UNL     1      -7.787  20.867  67.150  1.00  0.00    -0.556 N  
HETATM   43  O   UNL     1      -8.752  19.402  68.530  1.00  0.00    -0.352 OA 
HETATM   44  H2  UNL     1      -6.974  21.179  66.619  1.00  0.00     0.000 HD 
HETATM   45  H1  UNL     1      -8.663  21.387  67.131  1.00  0.00     0.000 HD 
ENDBRANCH  38  41
ENDBRANCH  37  38
ENDBRANCH  34  37
ENDBRANCH  25  28
ENDBRANCH  21  25
ENDBRANCH  17  21
ENDBRANCH  11  15
ENDBRANCH   6   7
ENDBRANCH   5   6
ENDBRANCH   4   5
ENDBRANCH   3   4
ENDBRANCH   2   3
TORSDOF 13
ENDMDL
MODEL       12
REMARK 921   NORMALIZED FREE ENERGY PREDICTED BY IDOCK:   -6.17 KCAL/MOL
REMARK 922        TOTAL FREE ENERGY PREDICTED BY IDOCK:  -13.17 KCAL/MOL
REMARK 923 INTER-LIGAND FREE ENERGY PREDICTED BY IDOCK:  -10.90 KCAL/MOL
REMARK 924 INTRA-LIGAND FREE ENERGY PREDICTED BY IDOCK:   -2.27 KCAL/MOL
REMARK 927      BINDING AFFINITY PREDICTED BY RF-SCORE:    0.00 PKD
ROOT
HETATM    1  C   UNL     1     -13.726  13.932  71.516  1.00  0.00    -0.247 C  
HETATM    2  O   UNL     1     -13.508  12.785  72.326  1.00  0.00    -0.565 OA 
ENDROOT
BRANCH   2   3
HETATM    3  C   UNL     1     -12.991  11.702  71.555  1.00  0.00    -0.358 C  
BRANCH   3   4
HETATM    4  C   UNL     1     -13.177  10.396  72.316  1.00  0.00    -0.285 C  
BRANCH   4   5
HETATM    5  C   UNL     1     -13.533   9.206  71.426  1.00  0.00    -0.298 C  
BRANCH   5   6
HETATM    6  O   UNL     1     -12.506   8.221  71.487  1.00  0.00    -0.302 OA 
BRANCH   6   7
HETATM    7  C   UNL     1     -11.258   8.492  70.979  1.00  0.00    -0.268 A  
HETATM    8  C   UNL     1     -10.192   8.341  71.892  1.00  0.00    -0.245 A  
HETATM    9  C   UNL     1      -8.905   8.734  71.517  1.00  0.00    -0.295 A  
HETATM   10  C   UNL     1     -11.020   9.034  69.710  1.00  0.00    -0.177 A  
HETATM   11  C   UNL     1      -9.740   9.506  69.365  1.00  0.00    -0.190 A  
HETATM   12  C   UNL     1      -8.691   9.330  70.271  1.00  0.00    -0.246 A  
BRANCH   8  13
HETATM   13  O   UNL     1     -10.517   7.816  73.120  1.00  0.00    -0.339 OA 
HETATM   14  C   UNL     1     -10.348   6.418  73.308  1.00  0.00    -0.233 C  
ENDBRANCH   8  13
BRANCH  11  15
HETATM   15  C   UNL     1      -9.540  10.381  68.144  1.00  0.00    -0.155 C  
HETATM   16  C   UNL     1     -10.048   9.951  66.743  1.00  0.00    -0.292 C  
HETATM   17  C   UNL     1      -9.890  11.158  65.742  1.00  0.00    -0.279 C  
HETATM   18  C   UNL     1      -9.363   8.699  66.114  1.00  0.00    -0.291 C  
HETATM   19  C   UNL     1      -9.727   7.391  66.819  1.00  0.00    -0.271 C  
HETATM   20  C   UNL     1      -7.844   8.828  65.972  1.00  0.00    -0.105 C  
BRANCH  17  21
HETATM   21  C   UNL     1     -10.719  12.415  66.074  1.00  0.00    -0.261 C  
HETATM   22  N   UNL     1     -12.100  11.978  66.316  1.00  0.00    -0.528 NA 
HETATM   23  H1  UNL     1     -12.648  12.809  66.536  1.00  0.00     0.000 HD 
HETATM   24  H2  UNL     1     -12.170  11.254  67.030  1.00  0.00     0.000 HD 
BRANCH  21  25
HETATM   25  C   UNL     1     -10.642  13.541  64.975  1.00  0.00    -0.372 C  
HETATM   26  H   UNL     1     -11.855  14.834  64.086  1.00  0.00     0.000 HD 
HETATM   27  O   UNL     1     -11.902  14.155  64.749  1.00  0.00    -0.373 OA 
BRANCH  25  28
HETATM   28  C   UNL     1      -9.591  14.581  65.414  1.00  0.00    -0.023 C  
HETATM   29  C   UNL     1      -9.987  15.834  66.230  1.00  0.00    -0.315 C  
HETATM   30  C   UNL     1      -8.670  16.627  66.359  1.00  0.00    -0.310 C  
HETATM   31  C   UNL     1     -10.624  15.558  67.622  1.00  0.00    -0.291 C  
HETATM   32  C   UNL     1     -11.093  16.830  68.342  1.00  0.00    -0.266 C  
HETATM   33  O   UNL     1      -7.577  16.096  66.552  1.00  0.00    -0.233 OA 
HETATM   34  N   UNL     1      -8.799  17.995  66.254  1.00  0.00    -0.219 N  
HETATM   35  C   UNL     1      -9.731  14.720  68.544  1.00  0.00    -0.218 C  
HETATM   36  H   UNL     1      -9.727  18.412  66.184  1.00  0.00     0.000 HD 
BRANCH  34  37
HETATM   37  C   UNL     1      -7.622  18.845  66.240  1.00  0.00    -0.271 C  
BRANCH  37  38
HETATM   38  C   UNL     1      -7.599  19.881  67.377  1.00  0.00    -0.308 C  
HETATM   39  C   UNL     1      -6.729  21.087  66.961  1.00  0.00    -0.409 C  
HETATM   40  C   UNL     1      -9.021  20.370  67.700  1.00  0.00    -0.364 C  
BRANCH  38  41
HETATM   41  C   UNL     1      -6.976  19.238  68.623  1.00  0.00    -0.308 C  
HETATM   42  N   UNL     1      -6.066  18.247  68.426  1.00  0.00    -0.190 N  
HETATM   43  O   UNL     1      -7.249  19.576  69.773  1.00  0.00    -0.195 OA 
HETATM   44  H2  UNL     1      -5.807  17.943  67.487  1.00  0.00     0.000 HD 
HETATM   45  H1  UNL     1      -5.652  17.819  69.254  1.00  0.00     0.000 HD 
ENDBRANCH  38  41
ENDBRANCH  37  38
ENDBRANCH  34  37
ENDBRANCH  25  28
ENDBRANCH  21  25
ENDBRANCH  17  21
ENDBRANCH  11  15
ENDBRANCH   6   7
ENDBRANCH   5   6
ENDBRANCH   4   5
ENDBRANCH   3   4
ENDBRANCH   2   3
TORSDOF 13
ENDMDL
MODEL       13
REMARK 921   NORMALIZED FREE ENERGY PREDICTED BY IDOCK:   -6.14 KCAL/MOL
REMARK 922        TOTAL FREE ENERGY PREDICTED BY IDOCK:  -13.12 KCAL/MOL
REMARK 923 INTER-LIGAND FREE ENERGY PREDICTED BY IDOCK:  -10.76 KCAL/MOL
REMARK 924 INTRA-LIGAND FREE ENERGY PREDICTED BY IDOCK:   -2.36 KCAL/MOL
REMARK 927      BINDING AFFINITY PREDICTED BY RF-SCORE:    0.00 PKD
ROOT
HETATM    1  C   UNL     1      -9.445   2.151  70.653  1.00  0.00    -0.113 C  
HETATM    2  O   UNL     1      -9.859   3.443  71.076  1.00  0.00    -0.169 OA 
ENDROOT
BRANCH   2   3
HETATM    3  C   UNL     1      -9.446   4.444  70.148  1.00  0.00    -0.175 C  
BRANCH   3   4
HETATM    4  C   UNL     1     -10.614   5.373  69.843  1.00  0.00    -0.351 C  
BRANCH   4   5
HETATM    5  C   UNL     1     -10.410   6.236  68.599  1.00  0.00    -0.206 C  
BRANCH   5   6
HETATM    6  O   UNL     1     -10.064   7.566  68.973  1.00  0.00    -0.181 OA 
BRANCH   6   7
HETATM    7  C   UNL     1      -9.180   8.291  68.211  1.00  0.00    -0.134 A  
HETATM    8  C   UNL     1      -7.896   8.455  68.773  1.00  0.00    -0.115 A  
HETATM    9  C   UNL     1      -6.974   9.299  68.148  1.00  0.00    -0.076 A  
HETATM   10  C   UNL     1      -9.522   8.973  67.037  1.00  0.00    -0.212 A  
HETATM   11  C   UNL     1      -8.621   9.885  66.455  1.00  0.00    -0.136 A  
HETATM   12  C   UNL     1      -7.347  10.022  67.011  1.00  0.00    -0.091 A  
BRANCH   8  13
HETATM   13  O   UNL     1      -7.651   7.762  69.935  1.00  0.00    -0.086 OA 
HETATM   14  C   UNL     1      -6.383   7.932  70.552  1.00  0.00    -0.037 C  
ENDBRANCH   8  13
BRANCH  11  15
HETATM   15  C   UNL     1      -9.087  10.861  65.393  1.00  0.00    -0.218 C  
HETATM   16  C   UNL     1      -9.600  10.377  64.012  1.00  0.00    -0.376 C  
HETATM   17  C   UNL     1     -10.212  11.600  63.228  1.00  0.00    -0.445 C  
HETATM   18  C   UNL     1      -8.553   9.679  63.091  1.00  0.00    -0.208 C  
HETATM   19  C   UNL     1      -8.131   8.296  63.593  1.00  0.00    -0.126 C  
HETATM   20  C   UNL     1      -7.323  10.537  62.787  1.00  0.00    -0.090 C  
BRANCH  17  21
HETATM   21  C   UNL     1     -11.443  12.263  63.879  1.00  0.00    -0.435 C  
HETATM   22  N   UNL     1     -12.635  11.710  63.223  1.00  0.00    -0.864 NA 
HETATM   23  H1  UNL     1     -13.449  12.148  63.653  1.00  0.00     0.000 HD 
HETATM   24  H2  UNL     1     -12.669  10.691  63.251  1.00  0.00     0.000 HD 
BRANCH  21  25
HETATM   25  C   UNL     1     -11.422  13.837  63.831  1.00  0.00    -0.111 C  
HETATM   26  H   UNL     1     -12.690  15.347  64.050  1.00  0.00     0.000 HD 
HETATM   27  O   UNL     1     -12.703  14.397  64.079  1.00  0.00    -0.739 OA 
BRANCH  25  28
HETATM   28  C   UNL     1     -10.389  14.344  64.858  1.00  0.00    -0.419 C  
HETATM   29  C   UNL     1     -10.825  14.913  66.228  1.00  0.00    -0.331 C  
HETATM   30  C   UNL     1      -9.506  15.380  66.877  1.00  0.00    -0.230 C  
HETATM   31  C   UNL     1     -11.596  13.927  67.153  1.00  0.00    -0.391 C  
HETATM   32  C   UNL     1     -12.096  14.573  68.453  1.00  0.00    -0.249 C  
HETATM   33  O   UNL     1      -8.450  14.755  66.786  1.00  0.00    -0.222 OA 
HETATM   34  N   UNL     1      -9.588  16.558  67.586  1.00  0.00    -0.233 N  
HETATM   35  C   UNL     1     -10.815  12.644  67.459  1.00  0.00    -0.267 C  
HETATM   36  H   UNL     1     -10.494  17.006  67.720  1.00  0.00     0.000 HD 
BRANCH  34  37
HETATM   37  C   UNL     1      -8.393  17.165  68.144  1.00  0.00    -0.226 C  
BRANCH  37  38
HETATM   38  C   UNL     1      -8.366  18.697  68.020  1.00  0.00    -0.299 C  
HETATM   39  C   UNL     1      -9.706  19.282  68.520  1.00  0.00    -0.481 C  
HETATM   40  C   UNL     1      -7.215  19.293  68.847  1.00  0.00    -0.393 C  
BRANCH  38  41
HETATM   41  C   UNL     1      -8.193  19.074  66.542  1.00  0.00    -0.302 C  
HETATM   42  N   UNL     1      -8.174  20.398  66.233  1.00  0.00    -0.542 N  
HETATM   43  O   UNL     1      -8.064  18.249  65.640  1.00  0.00    -0.477 OA 
HETATM   44  H2  UNL     1      -8.271  21.113  66.954  1.00  0.00     0.000 HD 
HETATM   45  H1  UNL     1      -8.059  20.648  65.251  1.00  0.00     0.000 HD 
ENDBRANCH  38  41
ENDBRANCH  37  38
ENDBRANCH  34  37
ENDBRANCH  25  28
ENDBRANCH  21  25
ENDBRANCH  17  21
ENDBRANCH  11  15
ENDBRANCH   6   7
ENDBRANCH   5   6
ENDBRANCH   4   5
ENDBRANCH   3   4
ENDBRANCH   2   3
TORSDOF 13
ENDMDL
MODEL       14
REMARK 921   NORMALIZED FREE ENERGY PREDICTED BY IDOCK:   -6.08 KCAL/MOL
REMARK 922        TOTAL FREE ENERGY PREDICTED BY IDOCK:  -13.02 KCAL/MOL
REMARK 923 INTER-LIGAND FREE ENERGY PREDICTED BY IDOCK:  -11.21 KCAL/MOL
REMARK 924 INTRA-LIGAND FREE ENERGY PREDICTED BY IDOCK:   -1.81 KCAL/MOL
REMARK 927      BINDING AFFINITY PREDICTED BY RF-SCORE:    0.00 PKD
ROOT
HETATM    1  C   UNL     1     -10.624  11.664  63.379  1.00  0.00    -0.409 C  
HETATM    2  O   UNL     1      -9.444  11.233  62.716  1.00  0.00    -0.352 OA 
ENDROOT
BRANCH   2   3
HETATM    3  C   UNL     1      -9.326   9.811  62.749  1.00  0.00    -0.124 C  
BRANCH   3   4
HETATM    4  C   UNL     1      -8.184   9.414  63.674  1.00  0.00    -0.169 C  
BRANCH   4   5
HETATM    5  C   UNL     1      -8.619   9.140  65.114  1.00  0.00    -0.176 C  
BRANCH   5   6
HETATM    6  O   UNL     1      -8.556   7.744  65.389  1.00  0.00    -0.137 OA 
BRANCH   6   7
HETATM    7  C   UNL     1      -9.035   7.252  66.579  1.00  0.00    -0.152 A  
HETATM    8  C   UNL     1      -9.172   5.849  66.639  1.00  0.00    -0.140 A  
HETATM    9  C   UNL     1      -9.789   5.263  67.748  1.00  0.00    -0.187 A  
HETATM   10  C   UNL     1      -9.519   8.046  67.626  1.00  0.00    -0.171 A  
HETATM   11  C   UNL     1     -10.214   7.462  68.703  1.00  0.00    -0.203 A  
HETATM   12  C   UNL     1     -10.322   6.070  68.757  1.00  0.00    -0.267 A  
BRANCH   8  13
HETATM   13  O   UNL     1      -8.685   5.148  65.562  1.00  0.00    -0.137 OA 
HETATM   14  C   UNL     1      -9.512   4.139  65.000  1.00  0.00    -0.173 C  
ENDBRANCH   8  13
BRANCH  11  15
HETATM   15  C   UNL     1     -11.018   8.317  69.661  1.00  0.00    -0.092 C  
HETATM   16  C   UNL     1     -10.336   9.332  70.614  1.00  0.00    -0.326 C  
HETATM   17  C   UNL     1     -11.441  10.214  71.311  1.00  0.00    -0.327 C  
HETATM   18  C   UNL     1      -9.418   8.731  71.722  1.00  0.00    -0.363 C  
HETATM   19  C   UNL     1      -8.119   8.134  71.176  1.00  0.00    -0.111 C  
HETATM   20  C   UNL     1     -10.125   7.728  72.637  1.00  0.00    -0.320 C  
BRANCH  17  21
HETATM   21  C   UNL     1     -12.288  11.091  70.368  1.00  0.00    -0.356 C  
HETATM   22  N   UNL     1     -13.472  10.310  69.988  1.00  0.00    -0.275 NA 
HETATM   23  H1  UNL     1     -14.032  10.890  69.364  1.00  0.00     0.000 HD 
HETATM   24  H2  UNL     1     -13.997   9.966  70.791  1.00  0.00     0.000 HD 
BRANCH  21  25
HETATM   25  C   UNL     1     -11.503  11.620  69.108  1.00  0.00    -0.300 C  
HETATM   26  H   UNL     1     -11.538  11.402  67.137  1.00  0.00     0.000 HD 
HETATM   27  O   UNL     1     -12.012  11.084  67.896  1.00  0.00    -0.620 OA 
BRANCH  25  28
HETATM   28  C   UNL     1     -11.568  13.161  69.102  1.00  0.00    -0.368 C  
HETATM   29  C   UNL     1     -10.740  13.999  68.100  1.00  0.00    -0.254 C  
HETATM   30  C   UNL     1     -11.029  15.459  68.506  1.00  0.00    -0.278 C  
HETATM   31  C   UNL     1     -11.053  13.754  66.595  1.00  0.00    -0.316 C  
HETATM   32  C   UNL     1     -10.132  14.533  65.646  1.00  0.00    -0.384 C  
HETATM   33  O   UNL     1     -12.138  15.855  68.859  1.00  0.00    -0.315 OA 
HETATM   34  N   UNL     1      -9.947  16.309  68.436  1.00  0.00    -0.228 N  
HETATM   35  C   UNL     1     -12.523  13.996  66.233  1.00  0.00    -0.439 C  
HETATM   36  H   UNL     1      -9.063  15.975  68.054  1.00  0.00     0.000 HD 
BRANCH  34  37
HETATM   37  C   UNL     1     -10.058  17.679  68.903  1.00  0.00    -0.351 C  
BRANCH  37  38
HETATM   38  C   UNL     1      -9.474  18.712  67.925  1.00  0.00    -0.331 C  
HETATM   39  C   UNL     1     -10.373  19.967  67.897  1.00  0.00    -0.545 C  
HETATM   40  C   UNL     1      -8.051  19.118  68.345  1.00  0.00    -0.378 C  
BRANCH  38  41
HETATM   41  C   UNL     1      -9.445  18.103  66.517  1.00  0.00    -0.304 C  
HETATM   42  N   UNL     1     -10.535  18.303  65.727  1.00  0.00    -0.331 N  
HETATM   43  O   UNL     1      -8.497  17.460  66.072  1.00  0.00    -0.503 OA 
HETATM   44  H2  UNL     1     -11.339  18.837  66.058  1.00  0.00     0.000 HD 
HETATM   45  H1  UNL     1     -10.516  17.898  64.792  1.00  0.00     0.000 HD 
ENDBRANCH  38  41
ENDBRANCH  37  38
ENDBRANCH  34  37
ENDBRANCH  25  28
ENDBRANCH  21  25
ENDBRANCH  17  21
ENDBRANCH  11  15
ENDBRANCH   6   7
ENDBRANCH   5   6
ENDBRANCH   4   5
ENDBRANCH   3   4
ENDBRANCH   2   3
TORSDOF 13
ENDMDL
MODEL       15
REMARK 921   NORMALIZED FREE ENERGY PREDICTED BY IDOCK:   -5.88 KCAL/MOL
REMARK 922        TOTAL FREE ENERGY PREDICTED BY IDOCK:  -12.66 KCAL/MOL
REMARK 923 INTER-LIGAND FREE ENERGY PREDICTED BY IDOCK:  -11.44 KCAL/MOL
REMARK 924 INTRA-LIGAND FREE ENERGY PREDICTED BY IDOCK:   -1.22 KCAL/MOL
REMARK 927      BINDING AFFINITY PREDICTED BY RF-SCORE:    0.00 PKD
ROOT
HETATM    1  C   UNL     1     -10.797  19.750  65.546  1.00  0.00    -0.151 C  
HETATM    2  O   UNL     1      -9.391  19.707  65.742  1.00  0.00    -0.386 OA 
ENDROOT
BRANCH   2   3
HETATM    3  C   UNL     1      -9.062  19.775  67.129  1.00  0.00    -0.330 C  
BRANCH   3   4
HETATM    4  C   UNL     1     -10.322  19.582  67.963  1.00  0.00    -0.564 C  
BRANCH   4   5
HETATM    5  C   UNL     1     -10.718  18.119  68.159  1.00  0.00    -0.221 C  
BRANCH   5   6
HETATM    6  O   UNL     1      -9.797  17.472  69.032  1.00  0.00    -0.285 OA 
BRANCH   6   7
HETATM    7  C   UNL     1      -9.068  16.394  68.592  1.00  0.00    -0.233 A  
HETATM    8  C   UNL     1      -7.671  16.591  68.544  1.00  0.00    -0.204 A  
HETATM    9  C   UNL     1      -6.857  15.611  67.972  1.00  0.00    -0.145 A  
HETATM   10  C   UNL     1      -9.627  15.222  68.068  1.00  0.00    -0.203 A  
HETATM   11  C   UNL     1      -8.814  14.273  67.418  1.00  0.00    -0.211 A  
HETATM   12  C   UNL     1      -7.431  14.473  67.397  1.00  0.00    -0.194 A  
BRANCH   8  13
HETATM   13  O   UNL     1      -7.210  17.776  69.066  1.00  0.00    -0.255 OA 
HETATM   14  C   UNL     1      -5.804  17.954  69.162  1.00  0.00    -0.213 C  
ENDBRANCH   8  13
BRANCH  11  15
HETATM   15  C   UNL     1      -9.429  13.179  66.569  1.00  0.00    -0.246 C  
HETATM   16  C   UNL     1      -9.923  13.451  65.125  1.00  0.00    -0.190 C  
HETATM   17  C   UNL     1     -10.297  12.082  64.439  1.00  0.00    -0.342 C  
HETATM   18  C   UNL     1     -11.136  14.420  64.980  1.00  0.00    -0.385 C  
HETATM   19  C   UNL     1     -10.791  15.875  65.303  1.00  0.00    -0.401 C  
HETATM   20  C   UNL     1     -12.379  13.978  65.756  1.00  0.00    -0.506 C  
BRANCH  17  21
HETATM   21  C   UNL     1      -9.135  11.085  64.259  1.00  0.00    -0.102 C  
HETATM   22  N   UNL     1      -8.680  11.188  62.867  1.00  0.00    -0.456 NA 
HETATM   23  H1  UNL     1      -7.911  10.529  62.748  1.00  0.00     0.000 HD 
HETATM   24  H2  UNL     1      -8.433  12.141  62.598  1.00  0.00     0.000 HD 
BRANCH  21  25
HETATM   25  C   UNL     1      -9.498   9.602  64.651  1.00  0.00    -0.152 C  
HETATM   26  H   UNL     1      -8.834   7.767  64.295  1.00  0.00     0.000 HD 
HETATM   27  O   UNL     1      -8.615   8.661  64.059  1.00  0.00    -0.127 OA 
BRANCH  25  28
HETATM   28  C   UNL     1      -9.482   9.485  66.189  1.00  0.00    -0.281 C  
HETATM   29  C   UNL     1     -10.294   8.392  66.922  1.00  0.00    -0.378 C  
HETATM   30  C   UNL     1     -10.069   8.700  68.417  1.00  0.00    -0.191 C  
HETATM   31  C   UNL     1      -9.910   6.923  66.580  1.00  0.00    -0.217 C  
HETATM   32  C   UNL     1     -10.816   5.883  67.255  1.00  0.00    -0.351 C  
HETATM   33  O   UNL     1      -8.989   9.066  68.877  1.00  0.00    -0.138 OA 
HETATM   34  N   UNL     1     -11.174   8.525  69.222  1.00  0.00    -0.413 N  
HETATM   35  C   UNL     1      -8.435   6.602  66.846  1.00  0.00    -0.115 C  
HETATM   36  H   UNL     1     -12.030   8.135  68.830  1.00  0.00     0.000 HD 
BRANCH  34  37
HETATM   37  C   UNL     1     -11.126   8.894  70.625  1.00  0.00    -0.262 C  
BRANCH  37  38
HETATM   38  C   UNL     1     -11.867   7.908  71.545  1.00  0.00    -0.322 C  
HETATM   39  C   UNL     1     -11.990   6.538  70.845  1.00  0.00    -0.353 C  
HETATM   40  C   UNL     1     -11.114   7.731  72.875  1.00  0.00    -0.457 C  
BRANCH  38  41
HETATM   41  C   UNL     1     -13.279   8.445  71.816  1.00  0.00    -0.355 C  
HETATM   42  N   UNL     1     -14.324   7.736  71.311  1.00  0.00    -0.653 N  
HETATM   43  O   UNL     1     -13.508   9.465  72.463  1.00  0.00    -0.455 OA 
HETATM   44  H2  UNL     1     -14.175   6.882  70.774  1.00  0.00     0.000 HD 
HETATM   45  H1  UNL     1     -15.262   8.093  71.490  1.00  0.00     0.000 HD 
ENDBRANCH  38  41
ENDBRANCH  37  38
ENDBRANCH  34  37
ENDBRANCH  25  28
ENDBRANCH  21  25
ENDBRANCH  17  21
ENDBRANCH  11  15
ENDBRANCH   6   7
ENDBRANCH   5   6
ENDBRANCH   4   5
ENDBRANCH   3   4
ENDBRANCH   2   3
TORSDOF 13
ENDMDL
MODEL       16
REMARK 921   NORMALIZED FREE ENERGY PREDICTED BY IDOCK:   -5.76 KCAL/MOL
REMARK 922        TOTAL FREE ENERGY PREDICTED BY IDOCK:  -12.44 KCAL/MOL
REMARK 923 INTER-LIGAND FREE ENERGY PREDICTED BY IDOCK:  -10.95 KCAL/MOL
REMARK 924 INTRA-LIGAND FREE ENERGY PREDICTED BY IDOCK:   -1.49 KCAL/MOL
REMARK 927      BINDING AFFINITY PREDICTED BY RF-SCORE:    0.00 PKD
ROOT
HETATM    1  C   UNL     1      -9.856   4.103  74.216  1.00  0.00    -0.132 C  
HETATM    2  O   UNL     1     -10.291   5.407  73.856  1.00  0.00    -0.214 OA 
ENDROOT
BRANCH   2   3
HETATM    3  C   UNL     1     -11.311   5.352  72.860  1.00  0.00    -0.303 C  
BRANCH   3   4
HETATM    4  C   UNL     1     -11.138   6.508  71.885  1.00  0.00    -0.300 C  
BRANCH   4   5
HETATM    5  C   UNL     1     -10.066   7.515  72.302  1.00  0.00    -0.199 C  
BRANCH   5   6
HETATM    6  O   UNL     1     -10.601   8.835  72.295  1.00  0.00    -0.337 OA 
BRANCH   6   7
HETATM    7  C   UNL     1     -10.662   9.550  71.124  1.00  0.00    -0.338 A  
HETATM    8  C   UNL     1     -11.878  10.231  70.898  1.00  0.00    -0.377 A  
HETATM    9  C   UNL     1     -12.095  10.863  69.671  1.00  0.00    -0.400 A  
HETATM   10  C   UNL     1      -9.686   9.511  70.120  1.00  0.00    -0.289 A  
HETATM   11  C   UNL     1      -9.940  10.077  68.856  1.00  0.00    -0.198 A  
HETATM   12  C   UNL     1     -11.139  10.765  68.655  1.00  0.00    -0.312 A  
BRANCH   8  13
HETATM   13  O   UNL     1     -12.785  10.206  71.930  1.00  0.00    -0.409 OA 
HETATM   14  C   UNL     1     -13.775   9.187  71.916  1.00  0.00    -0.424 C  
ENDBRANCH   8  13
BRANCH  11  15
HETATM   15  C   UNL     1      -9.046   9.762  67.674  1.00  0.00    -0.140 C  
HETATM   16  C   UNL     1      -9.547   8.909  66.480  1.00  0.00    -0.297 C  
HETATM   17  C   UNL     1      -8.473   8.950  65.327  1.00  0.00    -0.185 C  
HETATM   18  C   UNL     1      -9.880   7.416  66.787  1.00  0.00    -0.290 C  
HETATM   19  C   UNL     1     -11.136   7.240  67.642  1.00  0.00    -0.071 C  
HETATM   20  C   UNL     1      -8.710   6.630  67.384  1.00  0.00    -0.118 C  
BRANCH  17  21
HETATM   21  C   UNL     1      -8.204  10.338  64.713  1.00  0.00    -0.163 C  
HETATM   22  N   UNL     1      -7.208  11.006  65.561  1.00  0.00    -0.365 NA 
HETATM   23  H1  UNL     1      -7.030  11.924  65.155  1.00  0.00     0.000 HD 
HETATM   24  H2  UNL     1      -6.359  10.455  65.688  1.00  0.00     0.000 HD 
BRANCH  21  25
HETATM   25  C   UNL     1      -9.499  11.216  64.523  1.00  0.00    -0.223 C  
HETATM   26  H   UNL     1     -11.468  10.997  64.619  1.00  0.00     0.000 HD 
HETATM   27  O   UNL     1     -10.687  10.468  64.734  1.00  0.00    -0.159 OA 
BRANCH  25  28
HETATM   28  C   UNL     1      -9.423  12.416  65.489  1.00  0.00     0.008 C  
HETATM   29  C   UNL     1     -10.032  13.788  65.119  1.00  0.00    -0.240 C  
HETATM   30  C   UNL     1      -9.648  14.699  66.304  1.00  0.00    -0.308 C  
HETATM   31  C   UNL     1     -11.568  13.798  64.869  1.00  0.00    -0.362 C  
HETATM   32  C   UNL     1     -12.102  15.161  64.404  1.00  0.00    -0.313 C  
HETATM   33  O   UNL     1      -9.659  14.324  67.475  1.00  0.00    -0.209 OA 
HETATM   34  N   UNL     1      -9.296  15.986  65.961  1.00  0.00    -0.338 N  
HETATM   35  C   UNL     1     -12.382  13.283  66.061  1.00  0.00    -0.449 C  
HETATM   36  H   UNL     1      -9.383  16.294  64.993  1.00  0.00     0.000 HD 
BRANCH  34  37
HETATM   37  C   UNL     1      -8.801  16.906  66.970  1.00  0.00    -0.212 C  
BRANCH  37  38
HETATM   38  C   UNL     1      -9.822  17.983  67.373  1.00  0.00    -0.309 C  
HETATM   39  C   UNL     1     -11.103  17.308  67.909  1.00  0.00    -0.053 C  
HETATM   40  C   UNL     1      -9.243  18.905  68.459  1.00  0.00    -0.404 C  
BRANCH  38  41
HETATM   41  C   UNL     1     -10.190  18.809  66.133  1.00  0.00    -0.421 C  
HETATM   42  N   UNL     1      -9.570  20.009  65.976  1.00  0.00    -0.538 N  
HETATM   43  O   UNL     1     -10.999  18.441  65.284  1.00  0.00    -0.563 OA 
HETATM   44  H2  UNL     1      -8.887  20.347  66.654  1.00  0.00     0.000 HD 
HETATM   45  H1  UNL     1      -9.814  20.558  65.152  1.00  0.00     0.000 HD 
ENDBRANCH  38  41
ENDBRANCH  37  38
ENDBRANCH  34  37
ENDBRANCH  25  28
ENDBRANCH  21  25
ENDBRANCH  17  21
ENDBRANCH  11  15
ENDBRANCH   6   7
ENDBRANCH   5   6
ENDBRANCH   4   5
ENDBRANCH   3   4
ENDBRANCH   2   3
TORSDOF 13
ENDMDL
MODEL       17
REMARK 921   NORMALIZED FREE ENERGY PREDICTED BY IDOCK:   -5.68 KCAL/MOL
REMARK 922        TOTAL FREE ENERGY PREDICTED BY IDOCK:  -12.30 KCAL/MOL
REMARK 923 INTER-LIGAND FREE ENERGY PREDICTED BY IDOCK:   -9.44 KCAL/MOL
REMARK 924 INTRA-LIGAND FREE ENERGY PREDICTED BY IDOCK:   -2.86 KCAL/MOL
REMARK 927      BINDING AFFINITY PREDICTED BY RF-SCORE:    0.00 PKD
ROOT
HETATM    1  C   UNL     1     -12.571  16.173  73.652  1.00  0.00    -0.575 C  
HETATM    2  O   UNL     1     -13.875  15.977  73.121  1.00  0.00    -0.576 OA 
ENDROOT
BRANCH   2   3
HETATM    3  C   UNL     1     -13.823  15.290  71.872  1.00  0.00    -0.520 C  
BRANCH   3   4
HETATM    4  C   UNL     1     -12.422  15.397  71.286  1.00  0.00    -0.460 C  
BRANCH   4   5
HETATM    5  C   UNL     1     -12.346  15.064  69.796  1.00  0.00    -0.240 C  
BRANCH   5   6
HETATM    6  O   UNL     1     -11.436  15.943  69.142  1.00  0.00    -0.338 OA 
BRANCH   6   7
HETATM    7  C   UNL     1     -10.253  15.462  68.637  1.00  0.00    -0.217 A  
HETATM    8  C   UNL     1      -9.644  16.272  67.654  1.00  0.00    -0.227 A  
HETATM    9  C   UNL     1      -8.519  15.800  66.973  1.00  0.00    -0.251 A  
HETATM   10  C   UNL     1      -9.728  14.195  68.920  1.00  0.00    -0.084 A  
HETATM   11  C   UNL     1      -8.645  13.688  68.176  1.00  0.00    -0.176 A  
HETATM   12  C   UNL     1      -8.041  14.511  67.221  1.00  0.00    -0.219 A  
BRANCH   8  13
HETATM   13  O   UNL     1     -10.233  17.493  67.428  1.00  0.00    -0.313 OA 
HETATM   14  C   UNL     1      -9.467  18.484  66.758  1.00  0.00    -0.301 C  
ENDBRANCH   8  13
BRANCH  11  15
HETATM   15  C   UNL     1      -8.281  12.219  68.242  1.00  0.00    -0.167 C  
HETATM   16  C   UNL     1      -7.513  11.624  69.450  1.00  0.00     0.154 C  
HETATM   17  C   UNL     1      -7.486  10.053  69.325  1.00  0.00    -0.103 C  
HETATM   18  C   UNL     1      -6.050  12.125  69.654  1.00  0.00    -0.129 C  
HETATM   19  C   UNL     1      -5.968  13.580  70.118  1.00  0.00    -0.145 C  
HETATM   20  C   UNL     1      -5.142  11.896  68.444  1.00  0.00    -0.046 C  
BRANCH  17  21
HETATM   21  C   UNL     1      -8.860   9.355  69.370  1.00  0.00    -0.159 C  
HETATM   22  N   UNL     1      -9.008   8.767  70.707  1.00  0.00    -0.173 NA 
HETATM   23  H1  UNL     1      -9.917   8.305  70.737  1.00  0.00     0.000 HD 
HETATM   24  H2  UNL     1      -8.881   9.446  71.458  1.00  0.00     0.000 HD 
BRANCH  21  25
HETATM   25  C   UNL     1      -9.073   8.288  68.231  1.00  0.00    -0.135 C  
HETATM   26  H   UNL     1     -10.134   6.641  67.918  1.00  0.00     0.000 HD 
HETATM   27  O   UNL     1     -10.006   7.285  68.605  1.00  0.00    -0.158 OA 
BRANCH  25  28
HETATM   28  C   UNL     1      -9.530   9.020  66.953  1.00  0.00    -0.219 C  
HETATM   29  C   UNL     1      -8.603  10.018  66.220  1.00  0.00    -0.137 C  
HETATM   30  C   UNL     1      -9.480  10.574  65.080  1.00  0.00    -0.244 C  
HETATM   31  C   UNL     1      -7.270   9.425  65.675  1.00  0.00    -0.091 C  
HETATM   32  C   UNL     1      -6.344  10.479  65.052  1.00  0.00    -0.048 C  
HETATM   33  O   UNL     1     -10.263   9.883  64.431  1.00  0.00     0.047 OA 
HETATM   34  N   UNL     1      -9.320  11.918  64.822  1.00  0.00    -0.422 N  
HETATM   35  C   UNL     1      -7.476   8.253  64.709  1.00  0.00    -0.093 C  
HETATM   36  H   UNL     1      -8.600  12.446  65.314  1.00  0.00     0.000 HD 
BRANCH  34  37
HETATM   37  C   UNL     1     -10.171  12.587  63.855  1.00  0.00    -0.360 C  
BRANCH  37  38
HETATM   38  C   UNL     1     -11.514  13.058  64.438  1.00  0.00    -0.409 C  
HETATM   39  C   UNL     1     -12.674  12.358  63.698  1.00  0.00    -0.466 C  
HETATM   40  C   UNL     1     -11.601  12.734  65.939  1.00  0.00    -0.428 C  
BRANCH  38  41
HETATM   41  C   UNL     1     -11.645  14.573  64.226  1.00  0.00    -0.238 C  
HETATM   42  N   UNL     1     -12.860  15.046  63.839  1.00  0.00    -0.612 N  
HETATM   43  O   UNL     1     -10.722  15.367  64.395  1.00  0.00    -0.163 OA 
HETATM   44  H2  UNL     1     -13.652  14.420  63.696  1.00  0.00     0.000 HD 
HETATM   45  H1  UNL     1     -12.947  16.052  63.698  1.00  0.00     0.000 HD 
ENDBRANCH  38  41
ENDBRANCH  37  38
ENDBRANCH  34  37
ENDBRANCH  25  28
ENDBRANCH  21  25
ENDBRANCH  17  21
ENDBRANCH  11  15
ENDBRANCH   6   7
ENDBRANCH   5   6
ENDBRANCH   4   5
ENDBRANCH   3   4
ENDBRANCH   2   3
TORSDOF 13
ENDMDL
MODEL       18
REMARK 921   NORMALIZED FREE ENERGY PREDICTED BY IDOCK:   -5.67 KCAL/MOL
REMARK 922        TOTAL FREE ENERGY PREDICTED BY IDOCK:  -12.29 KCAL/MOL
REMARK 923 INTER-LIGAND FREE ENERGY PREDICTED BY IDOCK:   -9.92 KCAL/MOL
REMARK 924 INTRA-LIGAND FREE ENERGY PREDICTED BY IDOCK:   -2.37 KCAL/MOL
REMARK 927      BINDING AFFINITY PREDICTED BY RF-SCORE:    0.00 PKD
ROOT
HETATM    1  C   UNL     1      -8.505   2.780  69.235  1.00  0.00    -0.063 C  
HETATM    2  O   UNL     1      -7.660   3.821  69.705  1.00  0.00    -0.051 OA 
ENDROOT
BRANCH   2   3
HETATM    3  C   UNL     1      -8.379   5.047  69.837  1.00  0.00    -0.081 C  
BRANCH   3   4
HETATM    4  C   UNL     1      -9.810   4.756  70.268  1.00  0.00    -0.313 C  
BRANCH   4   5
HETATM    5  C   UNL     1     -10.850   5.673  69.624  1.00  0.00    -0.295 C  
BRANCH   5   6
HETATM    6  O   UNL     1     -11.312   6.634  70.568  1.00  0.00    -0.307 OA 
BRANCH   6   7
HETATM    7  C   UNL     1     -11.015   7.965  70.402  1.00  0.00    -0.249 A  
HETATM    8  C   UNL     1     -11.833   8.859  71.126  1.00  0.00    -0.298 A  
HETATM    9  C   UNL     1     -11.708  10.234  70.911  1.00  0.00    -0.472 A  
HETATM   10  C   UNL     1     -10.089   8.459  69.475  1.00  0.00    -0.200 A  
HETATM   11  C   UNL     1     -10.022   9.839  69.200  1.00  0.00    -0.195 A  
HETATM   12  C   UNL     1     -10.824  10.712  69.940  1.00  0.00    -0.301 A  
BRANCH   8  13
HETATM   13  O   UNL     1     -12.724   8.287  72.002  1.00  0.00    -0.321 OA 
HETATM   14  C   UNL     1     -13.990   8.913  72.160  1.00  0.00    -0.456 C  
ENDBRANCH   8  13
BRANCH  11  15
HETATM   15  C   UNL     1      -9.274  10.350  67.986  1.00  0.00    -0.142 C  
HETATM   16  C   UNL     1      -7.757  10.093  67.797  1.00  0.00    -0.090 C  
HETATM   17  C   UNL     1      -7.329  10.549  66.351  1.00  0.00    -0.129 C  
HETATM   18  C   UNL     1      -6.806  10.776  68.828  1.00  0.00    -0.067 C  
HETATM   19  C   UNL     1      -6.894  10.168  70.229  1.00  0.00    -0.150 C  
HETATM   20  C   UNL     1      -6.954  12.298  68.894  1.00  0.00    -0.098 C  
BRANCH  17  21
HETATM   21  C   UNL     1      -7.989   9.785  65.186  1.00  0.00    -0.129 C  
HETATM   22  N   UNL     1      -6.911   9.271  64.333  1.00  0.00    -0.091 NA 
HETATM   23  H1  UNL     1      -7.348   8.765  63.562  1.00  0.00     0.000 HD 
HETATM   24  H2  UNL     1      -6.231   8.708  64.844  1.00  0.00     0.000 HD 
BRANCH  21  25
HETATM   25  C   UNL     1      -9.031  10.639  64.369  1.00  0.00    -0.195 C  
HETATM   26  H   UNL     1     -10.293  10.395  62.858  1.00  0.00     0.000 HD 
HETATM   27  O   UNL     1      -9.666   9.879  63.351  1.00  0.00    -0.099 OA 
BRANCH  25  28
HETATM   28  C   UNL     1     -10.066  11.221  65.352  1.00  0.00    -0.314 C  
HETATM   29  C   UNL     1     -10.700  12.614  65.127  1.00  0.00    -0.321 C  
HETATM   30  C   UNL     1     -11.583  12.829  66.374  1.00  0.00    -0.378 C  
HETATM   31  C   UNL     1     -11.520  12.777  63.814  1.00  0.00    -0.533 C  
HETATM   32  C   UNL     1     -12.037  14.205  63.591  1.00  0.00    -0.053 C  
HETATM   33  O   UNL     1     -12.249  11.935  66.893  1.00  0.00    -0.493 OA 
HETATM   34  N   UNL     1     -11.586  14.113  66.872  1.00  0.00    -0.371 N  
HETATM   35  C   UNL     1     -12.666  11.766  63.684  1.00  0.00    -0.407 C  
HETATM   36  H   UNL     1     -11.097  14.853  66.369  1.00  0.00     0.000 HD 
BRANCH  34  37
HETATM   37  C   UNL     1     -12.281  14.420  68.109  1.00  0.00    -0.107 C  
BRANCH  37  38
HETATM   38  C   UNL     1     -11.424  15.200  69.119  1.00  0.00    -0.322 C  
HETATM   39  C   UNL     1     -10.052  14.510  69.278  1.00  0.00    -0.083 C  
HETATM   40  C   UNL     1     -11.210  16.649  68.651  1.00  0.00    -0.235 C  
BRANCH  38  41
HETATM   41  C   UNL     1     -12.132  15.195  70.481  1.00  0.00    -0.343 C  
HETATM   42  N   UNL     1     -13.446  15.546  70.504  1.00  0.00    -0.820 N  
HETATM   43  O   UNL     1     -11.580  14.885  71.535  1.00  0.00    -0.346 OA 
HETATM   44  H2  UNL     1     -13.941  15.803  69.650  1.00  0.00     0.000 HD 
HETATM   45  H1  UNL     1     -13.916  15.543  71.408  1.00  0.00     0.000 HD 
ENDBRANCH  38  41
ENDBRANCH  37  38
ENDBRANCH  34  37
ENDBRANCH  25  28
ENDBRANCH  21  25
ENDBRANCH  17  21
ENDBRANCH  11  15
ENDBRANCH   6   7
ENDBRANCH   5   6
ENDBRANCH   4   5
ENDBRANCH   3   4
ENDBRANCH   2   3
TORSDOF 13
ENDMDL
MODEL       19
REMARK 921   NORMALIZED FREE ENERGY PREDICTED BY IDOCK:   -5.67 KCAL/MOL
REMARK 922        TOTAL FREE ENERGY PREDICTED BY IDOCK:  -12.28 KCAL/MOL
REMARK 923 INTER-LIGAND FREE ENERGY PREDICTED BY IDOCK:  -10.37 KCAL/MOL
REMARK 924 INTRA-LIGAND FREE ENERGY PREDICTED BY IDOCK:   -1.91 KCAL/MOL
REMARK 927      BINDING AFFINITY PREDICTED BY RF-SCORE:    0.00 PKD
ROOT
HETATM    1  C   UNL     1      -7.144   3.164  71.073  1.00  0.00    -0.033 C  
HETATM    2  O   UNL     1      -7.664   4.112  71.995  1.00  0.00    -0.071 OA 
ENDROOT
BRANCH   2   3
HETATM    3  C   UNL     1      -8.586   4.996  71.359  1.00  0.00    -0.126 C  
BRANCH   3   4
HETATM    4  C   UNL     1      -7.886   5.740  70.230  1.00  0.00    -0.100 C  
BRANCH   4   5
HETATM    5  C   UNL     1      -6.986   6.881  70.704  1.00  0.00    -0.063 C  
BRANCH   5   6
HETATM    6  O   UNL     1      -7.684   7.705  71.632  1.00  0.00    -0.081 OA 
BRANCH   6   7
HETATM    7  C   UNL     1      -8.641   8.587  71.190  1.00  0.00    -0.169 A  
HETATM    8  C   UNL     1      -9.865   8.547  71.893  1.00  0.00    -0.288 A  
HETATM    9  C   UNL     1     -10.950   9.295  71.428  1.00  0.00    -0.429 A  
HETATM   10  C   UNL     1      -8.522   9.371  70.037  1.00  0.00    -0.202 A  
HETATM   11  C   UNL     1      -9.639  10.059  69.524  1.00  0.00    -0.249 A  
HETATM   12  C   UNL     1     -10.837  10.026  70.242  1.00  0.00    -0.370 A  
BRANCH   8  13
HETATM   13  O   UNL     1      -9.898   7.738  73.004  1.00  0.00    -0.231 OA 
HETATM   14  C   UNL     1     -11.084   6.994  73.245  1.00  0.00    -0.182 C  
ENDBRANCH   8  13
BRANCH  11  15
HETATM   15  C   UNL     1      -9.616  10.635  68.123  1.00  0.00    -0.165 C  
HETATM   16  C   UNL     1     -10.465  10.023  66.979  1.00  0.00    -0.302 C  
HETATM   17  C   UNL     1     -10.398  10.970  65.720  1.00  0.00    -0.316 C  
HETATM   18  C   UNL     1     -10.081   8.580  66.528  1.00  0.00    -0.328 C  
HETATM   19  C   UNL     1     -10.426   7.510  67.566  1.00  0.00    -0.341 C  
HETATM   20  C   UNL     1      -8.627   8.439  66.073  1.00  0.00    -0.164 C  
BRANCH  17  21
HETATM   21  C   UNL     1     -10.986  12.382  65.913  1.00  0.00    -0.288 C  
HETATM   22  N   UNL     1     -12.331  12.222  66.477  1.00  0.00    -0.360 NA 
HETATM   23  H1  UNL     1     -12.721  13.156  66.605  1.00  0.00     0.000 HD 
HETATM   24  H2  UNL     1     -12.343  11.665  67.331  1.00  0.00     0.000 HD 
BRANCH  21  25
HETATM   25  C   UNL     1     -10.996  13.255  64.602  1.00  0.00    -0.370 C  
HETATM   26  H   UNL     1     -12.317  13.979  63.310  1.00  0.00     0.000 HD 
HETATM   27  O   UNL     1     -12.310  13.453  64.101  1.00  0.00    -0.558 OA 
BRANCH  25  28
HETATM   28  C   UNL     1     -10.312  14.604  64.906  1.00  0.00    -0.382 C  
HETATM   29  C   UNL     1     -10.669  15.423  66.168  1.00  0.00    -0.316 C  
HETATM   30  C   UNL     1      -9.838  16.715  66.023  1.00  0.00    -0.309 C  
HETATM   31  C   UNL     1     -10.395  14.720  67.529  1.00  0.00    -0.238 C  
HETATM   32  C   UNL     1     -10.865  15.534  68.742  1.00  0.00    -0.256 C  
HETATM   33  O   UNL     1      -8.686  16.731  65.593  1.00  0.00    -0.441 OA 
HETATM   34  N   UNL     1     -10.476  17.868  66.422  1.00  0.00    -0.349 N  
HETATM   35  C   UNL     1      -8.935  14.288  67.706  1.00  0.00    -0.188 C  
HETATM   36  H   UNL     1     -11.396  17.813  66.858  1.00  0.00     0.000 HD 
BRANCH  34  37
HETATM   37  C   UNL     1      -9.847  19.162  66.227  1.00  0.00    -0.383 C  
BRANCH  37  38
HETATM   38  C   UNL     1      -9.247  19.755  67.513  1.00  0.00    -0.428 C  
HETATM   39  C   UNL     1      -9.740  21.207  67.693  1.00  0.00    -0.043 C  
HETATM   40  C   UNL     1      -9.658  18.925  68.741  1.00  0.00    -0.433 C  
BRANCH  38  41
HETATM   41  C   UNL     1      -7.717  19.772  67.387  1.00  0.00    -0.272 C  
HETATM   42  N   UNL     1      -7.185  19.397  66.193  1.00  0.00    -0.253 N  
HETATM   43  O   UNL     1      -6.963  20.111  68.296  1.00  0.00    -0.294 OA 
HETATM   44  H2  UNL     1      -7.778  19.115  65.413  1.00  0.00     0.000 HD 
HETATM   45  H1  UNL     1      -6.169  19.408  66.110  1.00  0.00     0.000 HD 
ENDBRANCH  38  41
ENDBRANCH  37  38
ENDBRANCH  34  37
ENDBRANCH  25  28
ENDBRANCH  21  25
ENDBRANCH  17  21
ENDBRANCH  11  15
ENDBRANCH   6   7
ENDBRANCH   5   6
ENDBRANCH   4   5
ENDBRANCH   3   4
ENDBRANCH   2   3
TORSDOF 13
ENDMDL
MODEL       20
REMARK 921   NORMALIZED FREE ENERGY PREDICTED BY IDOCK:   -5.61 KCAL/MOL
REMARK 922        TOTAL FREE ENERGY PREDICTED BY IDOCK:  -12.19 KCAL/MOL
REMARK 923 INTER-LIGAND FREE ENERGY PREDICTED BY IDOCK:  -10.06 KCAL/MOL
REMARK 924 INTRA-LIGAND FREE ENERGY PREDICTED BY IDOCK:   -2.13 KCAL/MOL
REMARK 927      BINDING AFFINITY PREDICTED BY RF-SCORE:    0.00 PKD
ROOT
HETATM    1  C   UNL     1     -10.759  19.492  65.624  1.00  0.00    -0.325 C  
HETATM    2  O   UNL     1      -9.498  20.116  65.828  1.00  0.00    -0.284 OA 
ENDROOT
BRANCH   2   3
HETATM    3  C   UNL     1      -9.178  20.185  67.217  1.00  0.00    -0.382 C  
BRANCH   3   4
HETATM    4  C   UNL     1     -10.358  19.686  68.040  1.00  0.00    -0.579 C  
BRANCH   4   5
HETATM    5  C   UNL     1     -10.076  18.396  68.810  1.00  0.00    -0.363 C  
BRANCH   5   6
HETATM    6  O   UNL     1      -8.692  18.067  68.729  1.00  0.00    -0.279 OA 
BRANCH   6   7
HETATM    7  C   UNL     1      -8.303  16.773  68.483  1.00  0.00    -0.243 A  
HETATM    8  C   UNL     1      -7.046  16.633  67.856  1.00  0.00    -0.140 A  
HETATM    9  C   UNL     1      -6.627  15.370  67.429  1.00  0.00    -0.150 A  
HETATM   10  C   UNL     1      -9.119  15.651  68.671  1.00  0.00    -0.205 A  
HETATM   11  C   UNL     1      -8.732  14.395  68.167  1.00  0.00    -0.175 A  
HETATM   12  C   UNL     1      -7.476  14.268  67.567  1.00  0.00    -0.201 A  
BRANCH   8  13
HETATM   13  O   UNL     1      -6.317  17.787  67.697  1.00  0.00    -0.158 OA 
HETATM   14  C   UNL     1      -5.994  18.189  66.373  1.00  0.00    -0.172 C  
ENDBRANCH   8  13
BRANCH  11  15
HETATM   15  C   UNL     1      -9.730  13.259  68.069  1.00  0.00    -0.223 C  
HETATM   16  C   UNL     1     -10.160  12.669  66.702  1.00  0.00    -0.248 C  
HETATM   17  C   UNL     1     -11.023  11.372  66.945  1.00  0.00    -0.355 C  
HETATM   18  C   UNL     1     -10.960  13.619  65.759  1.00  0.00    -0.281 C  
HETATM   19  C   UNL     1     -10.110  14.752  65.179  1.00  0.00    -0.358 C  
HETATM   20  C   UNL     1     -12.242  14.176  66.380  1.00  0.00    -0.473 C  
BRANCH  17  21
HETATM   21  C   UNL     1     -10.296  10.208  67.647  1.00  0.00    -0.219 C  
HETATM   22  N   UNL     1     -10.652   8.975  66.934  1.00  0.00    -0.221 NA 
HETATM   23  H1  UNL     1     -10.172   8.205  67.399  1.00  0.00     0.000 HD 
HETATM   24  H2  UNL     1     -10.456   9.022  65.934  1.00  0.00     0.000 HD 
BRANCH  21  25
HETATM   25  C   UNL     1     -10.599  10.103  69.190  1.00  0.00    -0.224 C  
HETATM   26  H   UNL     1     -11.898  10.830  70.501  1.00  0.00     0.000 HD 
HETATM   27  O   UNL     1     -11.716  10.892  69.571  1.00  0.00    -0.275 OA 
BRANCH  25  28
HETATM   28  C   UNL     1     -10.823   8.619  69.546  1.00  0.00    -0.138 C  
HETATM   29  C   UNL     1     -10.135   7.970  70.770  1.00  0.00    -0.207 C  
HETATM   30  C   UNL     1     -10.553   6.488  70.691  1.00  0.00    -0.233 C  
HETATM   31  C   UNL     1     -10.495   8.590  72.152  1.00  0.00    -0.412 C  
HETATM   32  C   UNL     1      -9.706   7.978  73.318  1.00  0.00    -0.308 C  
HETATM   33  O   UNL     1     -11.679   6.120  70.360  1.00  0.00    -0.298 OA 
HETATM   34  N   UNL     1      -9.570   5.585  71.031  1.00  0.00    -0.166 N  
HETATM   35  C   UNL     1     -11.997   8.572  72.454  1.00  0.00    -0.434 C  
HETATM   36  H   UNL     1      -8.676   5.920  71.388  1.00  0.00     0.000 HD 
BRANCH  34  37
HETATM   37  C   UNL     1      -9.799   4.159  70.884  1.00  0.00    -0.177 C  
BRANCH  37  38
HETATM   38  C   UNL     1      -9.538   3.358  72.171  1.00  0.00    -0.206 C  
HETATM   39  C   UNL     1      -9.329   1.869  71.822  1.00  0.00    -0.169 C  
HETATM   40  C   UNL     1      -8.291   3.887  72.900  1.00  0.00    -0.095 C  
BRANCH  38  41
HETATM   41  C   UNL     1     -10.764   3.476  73.088  1.00  0.00    -0.172 C  
HETATM   42  N   UNL     1     -11.314   2.320  73.547  1.00  0.00    -0.219 N  
HETATM   43  O   UNL     1     -11.259   4.548  73.429  1.00  0.00    -0.293 OA 
HETATM   44  H2  UNL     1     -10.928   1.411  73.292  1.00  0.00     0.000 HD 
HETATM   45  H1  UNL     1     -12.128   2.398  74.155  1.00  0.00     0.000 HD 
ENDBRANCH  38  41
ENDBRANCH  37  38
ENDBRANCH  34  37
ENDBRANCH  25  28
ENDBRANCH  21  25
ENDBRANCH  17  21
ENDBRANCH  11  15
ENDBRANCH   6   7
ENDBRANCH   5   6
ENDBRANCH   4   5
ENDBRANCH   3   4
ENDBRANCH   2   3
TORSDOF 13
ENDMDL
MODEL       21
REMARK 921   NORMALIZED FREE ENERGY PREDICTED BY IDOCK:   -5.60 KCAL/MOL
REMARK 922        TOTAL FREE ENERGY PREDICTED BY IDOCK:  -12.16 KCAL/MOL
REMARK 923 INTER-LIGAND FREE ENERGY PREDICTED BY IDOCK:   -9.33 KCAL/MOL
REMARK 924 INTRA-LIGAND FREE ENERGY PREDICTED BY IDOCK:   -2.84 KCAL/MOL
REMARK 927      BINDING AFFINITY PREDICTED BY RF-SCORE:    0.00 PKD
ROOT
HETATM    1  C   UNL     1      -9.819  18.761  68.206  1.00  0.00    -0.373 C  
HETATM    2  O   UNL     1     -10.217  17.762  69.134  1.00  0.00    -0.346 OA 
ENDROOT
BRANCH   2   3
HETATM    3  C   UNL     1     -10.574  16.553  68.466  1.00  0.00    -0.318 C  
BRANCH   3   4
HETATM    4  C   UNL     1     -10.024  15.360  69.237  1.00  0.00    -0.256 C  
BRANCH   4   5
HETATM    5  C   UNL     1     -10.362  14.008  68.610  1.00  0.00    -0.238 C  
BRANCH   5   6
HETATM    6  O   UNL     1      -9.194  13.423  68.042  1.00  0.00    -0.195 OA 
BRANCH   6   7
HETATM    7  C   UNL     1      -8.594  12.347  68.652  1.00  0.00     0.032 A  
HETATM    8  C   UNL     1      -7.301  12.591  69.163  1.00  0.00     0.127 A  
HETATM    9  C   UNL     1      -6.549  11.526  69.667  1.00  0.00    -0.112 A  
HETATM   10  C   UNL     1      -9.112  11.046  68.650  1.00  0.00    -0.174 A  
HETATM   11  C   UNL     1      -8.321   9.964  69.082  1.00  0.00    -0.145 A  
HETATM   12  C   UNL     1      -7.051  10.224  69.604  1.00  0.00    -0.125 A  
BRANCH   8  13
HETATM   13  O   UNL     1      -6.865  13.893  69.110  1.00  0.00    -0.109 OA 
HETATM   14  C   UNL     1      -6.170  14.405  70.239  1.00  0.00    -0.172 C  
ENDBRANCH   8  13
BRANCH  11  15
HETATM   15  C   UNL     1      -8.735   8.537  68.784  1.00  0.00    -0.139 C  
HETATM   16  C   UNL     1     -10.109   7.978  69.234  1.00  0.00    -0.198 C  
HETATM   17  C   UNL     1     -10.328   6.557  68.588  1.00  0.00    -0.216 C  
HETATM   18  C   UNL     1     -10.337   7.857  70.772  1.00  0.00    -0.211 C  
HETATM   19  C   UNL     1     -10.484   9.210  71.471  1.00  0.00    -0.422 C  
HETATM   20  C   UNL     1      -9.296   6.994  71.488  1.00  0.00    -0.154 C  
BRANCH  17  21
HETATM   21  C   UNL     1     -10.393   6.526  67.047  1.00  0.00    -0.253 C  
HETATM   22  N   UNL     1     -10.886   5.200  66.657  1.00  0.00    -0.424 NA 
HETATM   23  H1  UNL     1     -10.929   5.179  65.638  1.00  0.00     0.000 HD 
HETATM   24  H2  UNL     1     -11.774   4.959  67.098  1.00  0.00     0.000 HD 
BRANCH  21  25
HETATM   25  C   UNL     1      -9.028   6.878  66.343  1.00  0.00    -0.153 C  
HETATM   26  H   UNL     1      -7.660   5.978  65.223  1.00  0.00     0.000 HD 
HETATM   27  O   UNL     1      -8.483   5.766  65.648  1.00  0.00    -0.137 OA 
BRANCH  25  28
HETATM   28  C   UNL     1      -9.262   8.066  65.388  1.00  0.00     0.197 C  
HETATM   29  C   UNL     1      -8.555   9.425  65.602  1.00  0.00    -0.159 C  
HETATM   30  C   UNL     1      -9.142  10.330  64.500  1.00  0.00    -0.234 C  
HETATM   31  C   UNL     1      -7.000   9.392  65.544  1.00  0.00    -0.086 C  
HETATM   32  C   UNL     1      -6.348  10.744  65.867  1.00  0.00    -0.109 C  
HETATM   33  O   UNL     1      -9.373   9.939  63.357  1.00  0.00    -0.273 OA 
HETATM   34  N   UNL     1      -9.384  11.631  64.880  1.00  0.00    -0.417 N  
HETATM   35  C   UNL     1      -6.453   8.836  64.225  1.00  0.00    -0.071 C  
HETATM   36  H   UNL     1      -9.099  11.951  65.805  1.00  0.00     0.000 HD 
BRANCH  34  37
HETATM   37  C   UNL     1     -10.044  12.552  63.972  1.00  0.00    -0.289 C  
BRANCH  37  38
HETATM   38  C   UNL     1     -11.496  12.872  64.367  1.00  0.00    -0.405 C  
HETATM   39  C   UNL     1     -12.466  12.129  63.423  1.00  0.00    -0.625 C  
HETATM   40  C   UNL     1     -11.774  12.444  65.818  1.00  0.00    -0.470 C  
BRANCH  38  41
HETATM   41  C   UNL     1     -11.731  14.381  64.217  1.00  0.00    -0.310 C  
HETATM   42  N   UNL     1     -10.751  15.213  64.661  1.00  0.00    -0.612 N  
HETATM   43  O   UNL     1     -12.743  14.866  63.716  1.00  0.00    -0.754 OA 
HETATM   44  H2  UNL     1      -9.894  14.849  65.076  1.00  0.00     0.000 HD 
HETATM   45  H1  UNL     1     -10.907  16.216  64.561  1.00  0.00     0.000 HD 
ENDBRANCH  38  41
ENDBRANCH  37  38
ENDBRANCH  34  37
ENDBRANCH  25  28
ENDBRANCH  21  25
ENDBRANCH  17  21
ENDBRANCH  11  15
ENDBRANCH   6   7
ENDBRANCH   5   6
ENDBRANCH   4   5
ENDBRANCH   3   4
ENDBRANCH   2   3
TORSDOF 13
ENDMDL
MODEL       22
REMARK 921   NORMALIZED FREE ENERGY PREDICTED BY IDOCK:   -5.52 KCAL/MOL
REMARK 922        TOTAL FREE ENERGY PREDICTED BY IDOCK:  -12.03 KCAL/MOL
REMARK 923 INTER-LIGAND FREE ENERGY PREDICTED BY IDOCK:   -9.25 KCAL/MOL
REMARK 924 INTRA-LIGAND FREE ENERGY PREDICTED BY IDOCK:   -2.78 KCAL/MOL
REMARK 927      BINDING AFFINITY PREDICTED BY RF-SCORE:    0.00 PKD
ROOT
HETATM    1  C   UNL     1     -12.159  13.420  64.162  1.00  0.00    -0.433 C  
HETATM    2  O   UNL     1     -12.861  13.784  65.342  1.00  0.00    -0.650 OA 
ENDROOT
BRANCH   2   3
HETATM    3  C   UNL     1     -11.977  13.879  66.458  1.00  0.00    -0.439 C  
BRANCH   3   4
HETATM    4  C   UNL     1     -11.579  12.482  66.916  1.00  0.00    -0.436 C  
BRANCH   4   5
HETATM    5  C   UNL     1     -10.573  12.471  68.067  1.00  0.00    -0.223 C  
BRANCH   5   6
HETATM    6  O   UNL     1     -11.255  12.426  69.316  1.00  0.00    -0.242 OA 
BRANCH   6   7
HETATM    7  C   UNL     1     -11.348  11.244  70.010  1.00  0.00    -0.208 A  
HETATM    8  C   UNL     1     -12.399  11.181  70.951  1.00  0.00    -0.399 A  
HETATM    9  C   UNL     1     -12.489  10.083  71.810  1.00  0.00    -0.475 A  
HETATM   10  C   UNL     1     -10.405  10.211  69.946  1.00  0.00    -0.308 A  
HETATM   11  C   UNL     1     -10.449   9.147  70.867  1.00  0.00    -0.347 A  
HETATM   12  C   UNL     1     -11.507   9.088  71.778  1.00  0.00    -0.442 A  
BRANCH   8  13
HETATM   13  O   UNL     1     -13.270  12.244  70.956  1.00  0.00    -0.042 OA 
HETATM   14  C   UNL     1     -13.365  13.015  72.145  1.00  0.00    -0.524 C  
ENDBRANCH   8  13
BRANCH  11  15
HETATM   15  C   UNL     1      -9.268   8.211  71.024  1.00  0.00    -0.178 C  
HETATM   16  C   UNL     1      -8.980   7.086  69.997  1.00  0.00    -0.142 C  
HETATM   17  C   UNL     1      -7.577   6.440  70.314  1.00  0.00    -0.096 C  
HETATM   18  C   UNL     1     -10.037   5.942  69.910  1.00  0.00    -0.258 C  
HETATM   19  C   UNL     1     -11.360   6.387  69.285  1.00  0.00    -0.405 C  
HETATM   20  C   UNL     1     -10.285   5.223  71.238  1.00  0.00    -0.291 C  
BRANCH  17  21
HETATM   21  C   UNL     1      -6.364   7.384  70.191  1.00  0.00    -0.034 C  
HETATM   22  N   UNL     1      -5.968   7.768  71.551  1.00  0.00    -0.035 NA 
HETATM   23  H1  UNL     1      -5.166   8.393  71.470  1.00  0.00     0.000 HD 
HETATM   24  H2  UNL     1      -5.790   6.966  72.156  1.00  0.00     0.000 HD 
BRANCH  21  25
HETATM   25  C   UNL     1      -6.622   8.641  69.276  1.00  0.00    -0.049 C  
HETATM   26  H   UNL     1      -5.807  10.415  68.926  1.00  0.00     0.000 HD 
HETATM   27  O   UNL     1      -5.651   9.658  69.477  1.00  0.00    -0.034 OA 
BRANCH  25  28
HETATM   28  C   UNL     1      -6.643   8.180  67.805  1.00  0.00    -0.057 C  
HETATM   29  C   UNL     1      -7.959   8.127  66.994  1.00  0.00    -0.104 C  
HETATM   30  C   UNL     1      -7.538   7.529  65.636  1.00  0.00    -0.091 C  
HETATM   31  C   UNL     1      -8.695   9.487  66.814  1.00  0.00    -0.138 C  
HETATM   32  C   UNL     1     -10.045   9.359  66.095  1.00  0.00    -0.324 C  
HETATM   33  O   UNL     1      -6.486   7.817  65.068  1.00  0.00    -0.044 OA 
HETATM   34  N   UNL     1      -8.437   6.644  65.084  1.00  0.00    -0.300 N  
HETATM   35  C   UNL     1      -7.831  10.561  66.146  1.00  0.00    -0.145 C  
HETATM   36  H   UNL     1      -9.341   6.494  65.532  1.00  0.00     0.000 HD 
BRANCH  34  37
HETATM   37  C   UNL     1      -8.107   5.924  63.867  1.00  0.00    -0.098 C  
BRANCH  37  38
HETATM   38  C   UNL     1      -8.803   4.557  63.753  1.00  0.00    -0.140 C  
HETATM   39  C   UNL     1      -9.768   4.565  62.548  1.00  0.00    -0.038 C  
HETATM   40  C   UNL     1      -7.771   3.432  63.568  1.00  0.00    -0.068 C  
BRANCH  38  41
HETATM   41  C   UNL     1      -9.619   4.306  65.029  1.00  0.00    -0.177 C  
HETATM   42  N   UNL     1     -10.969   4.208  64.897  1.00  0.00    -0.710 N  
HETATM   43  O   UNL     1      -9.119   4.184  66.145  1.00  0.00    -0.124 OA 
HETATM   44  H2  UNL     1     -11.421   4.297  63.987  1.00  0.00     0.000 HD 
HETATM   45  H1  UNL     1     -11.511   4.042  65.744  1.00  0.00     0.000 HD 
ENDBRANCH  38  41
ENDBRANCH  37  38
ENDBRANCH  34  37
ENDBRANCH  25  28
ENDBRANCH  21  25
ENDBRANCH  17  21
ENDBRANCH  11  15
ENDBRANCH   6   7
ENDBRANCH   5   6
ENDBRANCH   4   5
ENDBRANCH   3   4
ENDBRANCH   2   3
TORSDOF 13
ENDMDL
MODEL       23
REMARK 921   NORMALIZED FREE ENERGY PREDICTED BY IDOCK:   -5.51 KCAL/MOL
REMARK 922        TOTAL FREE ENERGY PREDICTED BY IDOCK:  -12.00 KCAL/MOL
REMARK 923 INTER-LIGAND FREE ENERGY PREDICTED BY IDOCK:   -9.74 KCAL/MOL
REMARK 924 INTRA-LIGAND FREE ENERGY PREDICTED BY IDOCK:   -2.26 KCAL/MOL
REMARK 927      BINDING AFFINITY PREDICTED BY RF-SCORE:    0.00 PKD
ROOT
HETATM    1  C   UNL     1      -6.182  20.032  70.298  1.00  0.00    -0.351 C  
HETATM    2  O   UNL     1      -6.433  20.169  68.906  1.00  0.00    -0.303 OA 
ENDROOT
BRANCH   2   3
HETATM    3  C   UNL     1      -5.572  19.327  68.142  1.00  0.00    -0.200 C  
BRANCH   3   4
HETATM    4  C   UNL     1      -5.589  17.918  68.720  1.00  0.00    -0.179 C  
BRANCH   4   5
HETATM    5  C   UNL     1      -6.203  16.873  67.789  1.00  0.00    -0.141 C  
BRANCH   5   6
HETATM    6  O   UNL     1      -7.280  17.443  67.052  1.00  0.00    -0.161 OA 
BRANCH   6   7
HETATM    7  C   UNL     1      -8.509  16.829  67.037  1.00  0.00    -0.199 A  
HETATM    8  C   UNL     1      -9.429  17.300  67.998  1.00  0.00    -0.271 A  
HETATM    9  C   UNL     1     -10.650  16.641  68.163  1.00  0.00    -0.336 A  
HETATM   10  C   UNL     1      -8.824  15.707  66.259  1.00  0.00    -0.364 A  
HETATM   11  C   UNL     1     -10.018  14.996  66.484  1.00  0.00    -0.276 A  
HETATM   12  C   UNL     1     -10.927  15.488  67.425  1.00  0.00    -0.306 A  
BRANCH   8  13
HETATM   13  O   UNL     1      -9.032  18.395  68.728  1.00  0.00    -0.304 OA 
HETATM   14  C   UNL     1      -9.951  19.470  68.861  1.00  0.00    -0.448 C  
ENDBRANCH   8  13
BRANCH  11  15
HETATM   15  C   UNL     1     -10.220  13.616  65.892  1.00  0.00    -0.318 C  
HETATM   16  C   UNL     1     -10.692  13.420  64.428  1.00  0.00    -0.423 C  
HETATM   17  C   UNL     1     -10.590  11.893  64.051  1.00  0.00    -0.422 C  
HETATM   18  C   UNL     1     -12.134  13.912  64.095  1.00  0.00    -0.464 C  
HETATM   19  C   UNL     1     -12.270  15.436  64.099  1.00  0.00    -0.075 C  
HETATM   20  C   UNL     1     -13.223  13.274  64.960  1.00  0.00     0.192 C  
BRANCH  17  21
HETATM   21  C   UNL     1      -9.170  11.292  64.074  1.00  0.00    -0.046 C  
HETATM   22  N   UNL     1      -8.559  11.564  62.767  1.00  0.00    -0.611 NA 
HETATM   23  H1  UNL     1      -7.619  11.167  62.782  1.00  0.00     0.000 HD 
HETATM   24  H2  UNL     1      -8.569  12.554  62.520  1.00  0.00     0.000 HD 
BRANCH  21  25
HETATM   25  C   UNL     1      -9.130   9.759  64.435  1.00  0.00    -0.248 C  
HETATM   26  H   UNL     1      -7.790   8.305  64.590  1.00  0.00     0.000 HD 
HETATM   27  O   UNL     1      -7.814   9.229  64.373  1.00  0.00    -0.113 OA 
BRANCH  25  28
HETATM   28  C   UNL     1      -9.736   9.571  65.840  1.00  0.00    -0.352 C  
HETATM   29  C   UNL     1      -8.871   9.113  67.038  1.00  0.00    -0.135 C  
HETATM   30  C   UNL     1      -9.881   8.966  68.194  1.00  0.00    -0.167 C  
HETATM   31  C   UNL     1      -7.697  10.060  67.423  1.00  0.00    -0.095 C  
HETATM   32  C   UNL     1      -6.810   9.506  68.547  1.00  0.00    -0.061 C  
HETATM   33  O   UNL     1     -10.812   9.748  68.381  1.00  0.00    -0.233 OA 
HETATM   34  N   UNL     1      -9.664   7.890  69.027  1.00  0.00    -0.159 N  
HETATM   35  C   UNL     1      -8.151  11.486  67.753  1.00  0.00    -0.133 C  
HETATM   36  H   UNL     1      -8.833   7.313  68.901  1.00  0.00     0.000 HD 
BRANCH  34  37
HETATM   37  C   UNL     1     -10.610   7.574  70.081  1.00  0.00    -0.235 C  
BRANCH  37  38
HETATM   38  C   UNL     1      -9.975   7.516  71.480  1.00  0.00    -0.197 C  
HETATM   39  C   UNL     1      -9.199   6.191  71.643  1.00  0.00    -0.150 C  
HETATM   40  C   UNL     1      -9.012   8.695  71.693  1.00  0.00    -0.305 C  
BRANCH  38  41
HETATM   41  C   UNL     1     -11.090   7.560  72.535  1.00  0.00    -0.321 C  
HETATM   42  N   UNL     1     -11.218   6.481  73.353  1.00  0.00    -0.462 N  
HETATM   43  O   UNL     1     -11.854   8.511  72.679  1.00  0.00    -0.369 OA 
HETATM   44  H2  UNL     1     -10.599   5.675  73.269  1.00  0.00     0.000 HD 
HETATM   45  H1  UNL     1     -11.959   6.510  74.053  1.00  0.00     0.000 HD 
ENDBRANCH  38  41
ENDBRANCH  37  38
ENDBRANCH  34  37
ENDBRANCH  25  28
ENDBRANCH  21  25
ENDBRANCH  17  21
ENDBRANCH  11  15
ENDBRANCH   6   7
ENDBRANCH   5   6
ENDBRANCH   4   5
ENDBRANCH   3   4
ENDBRANCH   2   3
TORSDOF 13
ENDMDL
MODEL       24
REMARK 921   NORMALIZED FREE ENERGY PREDICTED BY IDOCK:   -5.50 KCAL/MOL
REMARK 922        TOTAL FREE ENERGY PREDICTED BY IDOCK:  -11.99 KCAL/MOL
REMARK 923 INTER-LIGAND FREE ENERGY PREDICTED BY IDOCK:   -8.97 KCAL/MOL
REMARK 924 INTRA-LIGAND FREE ENERGY PREDICTED BY IDOCK:   -3.02 KCAL/MOL
REMARK 927      BINDING AFFINITY PREDICTED BY RF-SCORE:    0.00 PKD
ROOT
HETATM    1  C   UNL     1     -10.917  11.377  64.076  1.00  0.00    -0.355 C  
HETATM    2  O   UNL     1     -10.051  10.259  64.216  1.00  0.00    -0.310 OA 
ENDROOT
BRANCH   2   3
HETATM    3  C   UNL     1      -9.183  10.136  63.091  1.00  0.00    -0.289 C  
BRANCH   3   4
HETATM    4  C   UNL     1      -8.345   8.872  63.225  1.00  0.00    -0.180 C  
BRANCH   4   5
HETATM    5  C   UNL     1      -8.215   8.365  64.661  1.00  0.00    -0.154 C  
BRANCH   5   6
HETATM    6  O   UNL     1      -7.806   7.000  64.666  1.00  0.00    -0.113 OA 
BRANCH   6   7
HETATM    7  C   UNL     1      -8.358   6.117  65.562  1.00  0.00    -0.147 A  
HETATM    8  C   UNL     1      -8.945   4.968  64.990  1.00  0.00    -0.130 A  
HETATM    9  C   UNL     1      -9.661   4.084  65.801  1.00  0.00    -0.192 A  
HETATM   10  C   UNL     1      -8.498   6.364  66.933  1.00  0.00    -0.110 A  
HETATM   11  C   UNL     1      -9.289   5.517  67.733  1.00  0.00    -0.119 A  
HETATM   12  C   UNL     1      -9.846   4.373  67.156  1.00  0.00    -0.217 A  
BRANCH   8  13
HETATM   13  O   UNL     1      -8.772   4.812  63.635  1.00  0.00    -0.137 OA 
HETATM   14  C   UNL     1      -9.622   3.895  62.961  1.00  0.00    -0.140 C  
ENDBRANCH   8  13
BRANCH  11  15
HETATM   15  C   UNL     1      -9.715   5.942  69.124  1.00  0.00    -0.176 C  
HETATM   16  C   UNL     1      -8.705   6.022  70.296  1.00  0.00    -0.143 C  
HETATM   17  C   UNL     1      -9.401   6.702  71.536  1.00  0.00    -0.153 C  
HETATM   18  C   UNL     1      -8.080   4.672  70.764  1.00  0.00    -0.084 C  
HETATM   19  C   UNL     1      -7.098   4.076  69.753  1.00  0.00    -0.042 C  
HETATM   20  C   UNL     1      -9.112   3.625  71.191  1.00  0.00    -0.177 C  
BRANCH  17  21
HETATM   21  C   UNL     1      -9.856   8.160  71.330  1.00  0.00    -0.174 C  
HETATM   22  N   UNL     1      -9.295   8.954  72.431  1.00  0.00    -0.301 NA 
HETATM   23  H1  UNL     1      -9.597   9.919  72.295  1.00  0.00     0.000 HD 
HETATM   24  H2  UNL     1      -8.283   8.860  72.514  1.00  0.00     0.000 HD 
BRANCH  21  25
HETATM   25  C   UNL     1     -11.419   8.332  71.218  1.00  0.00    -0.274 C  
HETATM   26  H   UNL     1     -12.988   8.468  72.423  1.00  0.00     0.000 HD 
HETATM   27  O   UNL     1     -12.046   8.365  72.491  1.00  0.00    -0.393 OA 
BRANCH  25  28
HETATM   28  C   UNL     1     -11.713   9.620  70.423  1.00  0.00    -0.266 C  
HETATM   29  C   UNL     1     -10.581  10.427  69.745  1.00  0.00    -0.302 C  
HETATM   30  C   UNL     1     -11.300  11.661  69.160  1.00  0.00    -0.283 C  
HETATM   31  C   UNL     1      -9.773   9.668  68.652  1.00  0.00    -0.162 C  
HETATM   32  C   UNL     1      -8.598  10.479  68.089  1.00  0.00    -0.123 C  
HETATM   33  O   UNL     1     -12.409  11.609  68.633  1.00  0.00    -0.394 OA 
HETATM   34  N   UNL     1     -10.602  12.844  69.259  1.00  0.00    -0.435 N  
HETATM   35  C   UNL     1     -10.648   9.130  67.514  1.00  0.00    -0.317 C  
HETATM   36  H   UNL     1      -9.648  12.841  69.619  1.00  0.00     0.000 HD 
BRANCH  34  37
HETATM   37  C   UNL     1     -11.216  14.096  68.854  1.00  0.00    -0.267 C  
BRANCH  37  38
HETATM   38  C   UNL     1     -10.592  14.706  67.588  1.00  0.00    -0.256 C  
HETATM   39  C   UNL     1     -10.344  16.214  67.807  1.00  0.00    -0.283 C  
HETATM   40  C   UNL     1      -9.258  14.019  67.250  1.00  0.00    -0.231 C  
BRANCH  38  41
HETATM   41  C   UNL     1     -11.572  14.539  66.419  1.00  0.00    -0.364 C  
HETATM   42  N   UNL     1     -12.781  13.978  66.693  1.00  0.00    -0.435 N  
HETATM   43  O   UNL     1     -11.325  14.890  65.267  1.00  0.00    -0.344 OA 
HETATM   44  H2  UNL     1     -13.026  13.680  67.637  1.00  0.00     0.000 HD 
HETATM   45  H1  UNL     1     -13.432  13.867  65.917  1.00  0.00     0.000 HD 
ENDBRANCH  38  41
ENDBRANCH  37  38
ENDBRANCH  34  37
ENDBRANCH  25  28
ENDBRANCH  21  25
ENDBRANCH  17  21
ENDBRANCH  11  15
ENDBRANCH   6   7
ENDBRANCH   5   6
ENDBRANCH   4   5
ENDBRANCH   3   4
ENDBRANCH   2   3
TORSDOF 13
ENDMDL
MODEL       25
REMARK 921   NORMALIZED FREE ENERGY PREDICTED BY IDOCK:   -5.34 KCAL/MOL
REMARK 922        TOTAL FREE ENERGY PREDICTED BY IDOCK:  -11.71 KCAL/MOL
REMARK 923 INTER-LIGAND FREE ENERGY PREDICTED BY IDOCK:   -9.27 KCAL/MOL
REMARK 924 INTRA-LIGAND FREE ENERGY PREDICTED BY IDOCK:   -2.44 KCAL/MOL
REMARK 927      BINDING AFFINITY PREDICTED BY RF-SCORE:    0.00 PKD
ROOT
HETATM    1  C   UNL     1      -8.165  20.168  66.953  1.00  0.00    -0.316 C  
HETATM    2  O   UNL     1      -8.613  19.045  67.700  1.00  0.00    -0.283 OA 
ENDROOT
BRANCH   2   3
HETATM    3  C   UNL     1      -9.957  19.226  68.142  1.00  0.00    -0.391 C  
BRANCH   3   4
HETATM    4  C   UNL     1     -10.758  17.958  67.877  1.00  0.00    -0.328 C  
BRANCH   4   5
HETATM    5  C   UNL     1     -10.119  16.691  68.446  1.00  0.00    -0.268 C  
BRANCH   5   6
HETATM    6  O   UNL     1      -9.941  15.724  67.416  1.00  0.00    -0.232 OA 
BRANCH   6   7
HETATM    7  C   UNL     1     -10.502  14.476  67.534  1.00  0.00    -0.253 A  
HETATM    8  C   UNL     1     -11.196  14.018  66.393  1.00  0.00    -0.319 A  
HETATM    9  C   UNL     1     -11.927  12.829  66.464  1.00  0.00    -0.428 A  
HETATM   10  C   UNL     1     -10.552  13.741  68.725  1.00  0.00    -0.253 A  
HETATM   11  C   UNL     1     -11.355  12.588  68.818  1.00  0.00    -0.337 A  
HETATM   12  C   UNL     1     -12.019  12.136  67.674  1.00  0.00    -0.190 A  
BRANCH   8  13
HETATM   13  O   UNL     1     -11.107  14.810  65.273  1.00  0.00    -0.332 OA 
HETATM   14  C   UNL     1     -12.148  14.715  64.312  1.00  0.00    -0.415 C  
ENDBRANCH   8  13
BRANCH  11  15
HETATM   15  C   UNL     1     -11.677  11.976  70.166  1.00  0.00    -0.316 C  
HETATM   16  C   UNL     1     -12.975  12.335  70.933  1.00  0.00    -0.062 C  
HETATM   17  C   UNL     1     -13.125  11.378  72.176  1.00  0.00    -0.276 C  
HETATM   18  C   UNL     1     -13.099  13.808  71.431  1.00  0.00    -0.413 C  
HETATM   19  C   UNL     1     -13.305  14.815  70.297  1.00  0.00     0.173 C  
HETATM   20  C   UNL     1     -11.954  14.253  72.343  1.00  0.00     0.173 C  
BRANCH  17  21
HETATM   21  C   UNL     1     -13.281   9.879  71.851  1.00  0.00    -0.458 C  
HETATM   22  N   UNL     1     -14.359   9.357  72.700  1.00  0.00    -0.722 NA 
HETATM   23  H1  UNL     1     -14.462   8.365  72.485  1.00  0.00     0.000 HD 
HETATM   24  H2  UNL     1     -15.230   9.878  72.606  1.00  0.00     0.000 HD 
BRANCH  21  25
HETATM   25  C   UNL     1     -11.952   9.049  72.008  1.00  0.00    -0.363 C  
HETATM   26  H   UNL     1     -11.234   7.598  73.156  1.00  0.00     0.000 HD 
HETATM   27  O   UNL     1     -12.036   8.099  73.060  1.00  0.00    -0.269 OA 
BRANCH  25  28
HETATM   28  C   UNL     1     -11.643   8.359  70.664  1.00  0.00    -0.205 C  
HETATM   29  C   UNL     1     -10.200   8.270  70.116  1.00  0.00    -0.199 C  
HETATM   30  C   UNL     1     -10.365   7.603  68.734  1.00  0.00    -0.204 C  
HETATM   31  C   UNL     1      -9.187   7.492  71.005  1.00  0.00    -0.153 C  
HETATM   32  C   UNL     1      -7.750   7.525  70.466  1.00  0.00    -0.094 C  
HETATM   33  O   UNL     1     -11.156   6.686  68.517  1.00  0.00    -0.256 OA 
HETATM   34  N   UNL     1      -9.548   8.102  67.744  1.00  0.00    -0.148 N  
HETATM   35  C   UNL     1      -9.617   6.050  71.297  1.00  0.00    -0.189 C  
HETATM   36  H   UNL     1      -8.840   8.798  67.973  1.00  0.00     0.000 HD 
BRANCH  34  37
HETATM   37  C   UNL     1      -9.689   7.642  66.374  1.00  0.00    -0.127 C  
BRANCH  37  38
HETATM   38  C   UNL     1      -8.643   6.590  65.967  1.00  0.00    -0.150 C  
HETATM   39  C   UNL     1      -8.365   6.694  64.452  1.00  0.00     0.091 C  
HETATM   40  C   UNL     1      -7.329   6.801  66.738  1.00  0.00    -0.081 C  
BRANCH  38  41
HETATM   41  C   UNL     1      -9.201   5.192  66.265  1.00  0.00    -0.146 C  
HETATM   42  N   UNL     1     -10.515   4.973  65.993  1.00  0.00    -0.421 N  
HETATM   43  O   UNL     1      -8.526   4.272  66.723  1.00  0.00    -0.105 OA 
HETATM   44  H2  UNL     1     -11.107   5.708  65.606  1.00  0.00     0.000 HD 
HETATM   45  H1  UNL     1     -10.886   4.044  66.191  1.00  0.00     0.000 HD 
ENDBRANCH  38  41
ENDBRANCH  37  38
ENDBRANCH  34  37
ENDBRANCH  25  28
ENDBRANCH  21  25
ENDBRANCH  17  21
ENDBRANCH  11  15
ENDBRANCH   6   7
ENDBRANCH   5   6
ENDBRANCH   4   5
ENDBRANCH   3   4
ENDBRANCH   2   3
TORSDOF 13
ENDMDL
MODEL       26
REMARK 921   NORMALIZED FREE ENERGY PREDICTED BY IDOCK:   -5.32 KCAL/MOL
REMARK 922        TOTAL FREE ENERGY PREDICTED BY IDOCK:  -11.68 KCAL/MOL
REMARK 923 INTER-LIGAND FREE ENERGY PREDICTED BY IDOCK:   -9.66 KCAL/MOL
REMARK 924 INTRA-LIGAND FREE ENERGY PREDICTED BY IDOCK:   -2.02 KCAL/MOL
REMARK 927      BINDING AFFINITY PREDICTED BY RF-SCORE:    0.00 PKD
ROOT
HETATM    1  C   UNL     1     -10.783  19.819  65.701  1.00  0.00    -0.314 C  
HETATM    2  O   UNL     1      -9.394  19.808  66.000  1.00  0.00    -0.378 OA 
ENDROOT
BRANCH   2   3
HETATM    3  C   UNL     1      -9.159  20.158  67.363  1.00  0.00    -0.364 C  
BRANCH   3   4
HETATM    4  C   UNL     1     -10.319  19.674  68.223  1.00  0.00    -0.539 C  
BRANCH   4   5
HETATM    5  C   UNL     1     -10.076  18.317  68.884  1.00  0.00    -0.335 C  
BRANCH   5   6
HETATM    6  O   UNL     1      -8.697  17.969  68.802  1.00  0.00    -0.279 OA 
BRANCH   6   7
HETATM    7  C   UNL     1      -8.326  16.664  68.586  1.00  0.00    -0.246 A  
HETATM    8  C   UNL     1      -7.063  16.492  67.979  1.00  0.00    -0.143 A  
HETATM    9  C   UNL     1      -6.659  15.214  67.582  1.00  0.00    -0.195 A  
HETATM   10  C   UNL     1      -9.163  15.560  68.784  1.00  0.00    -0.210 A  
HETATM   11  C   UNL     1      -8.790  14.288  68.309  1.00  0.00    -0.185 A  
HETATM   12  C   UNL     1      -7.528  14.129  67.729  1.00  0.00    -0.174 A  
BRANCH   8  13
HETATM   13  O   UNL     1      -6.313  17.631  67.809  1.00  0.00    -0.164 OA 
HETATM   14  C   UNL     1      -5.327  17.927  68.787  1.00  0.00    -0.162 C  
ENDBRANCH   8  13
BRANCH  11  15
HETATM   15  C   UNL     1      -9.805  13.167  68.220  1.00  0.00    -0.227 C  
HETATM   16  C   UNL     1     -10.212  12.544  66.859  1.00  0.00    -0.237 C  
HETATM   17  C   UNL     1     -11.103  11.269  67.118  1.00  0.00    -0.364 C  
HETATM   18  C   UNL     1     -10.971  13.480  65.870  1.00  0.00    -0.284 C  
HETATM   19  C   UNL     1     -10.087  14.581  65.279  1.00  0.00    -0.389 C  
HETATM   20  C   UNL     1     -12.258  14.076  66.443  1.00  0.00    -0.492 C  
BRANCH  17  21
HETATM   21  C   UNL     1     -10.414  10.114  67.871  1.00  0.00    -0.222 C  
HETATM   22  N   UNL     1     -10.674   8.882  67.116  1.00  0.00    -0.358 NA 
HETATM   23  H1  UNL     1     -10.218   8.118  67.615  1.00  0.00     0.000 HD 
HETATM   24  H2  UNL     1     -10.389   8.946  66.139  1.00  0.00     0.000 HD 
BRANCH  21  25
HETATM   25  C   UNL     1     -10.851   9.983  69.379  1.00  0.00    -0.239 C  
HETATM   26  H   UNL     1     -12.343  10.568  70.549  1.00  0.00     0.000 HD 
HETATM   27  O   UNL     1     -12.080  10.646  69.639  1.00  0.00    -0.291 OA 
BRANCH  25  28
HETATM   28  C   UNL     1     -10.945   8.486  69.734  1.00  0.00    -0.131 C  
HETATM   29  C   UNL     1      -9.733   7.715  70.307  1.00  0.00    -0.179 C  
HETATM   30  C   UNL     1     -10.234   6.260  70.419  1.00  0.00    -0.200 C  
HETATM   31  C   UNL     1      -9.186   8.234  71.668  1.00  0.00    -0.245 C  
HETATM   32  C   UNL     1      -7.921   7.501  72.137  1.00  0.00    -0.109 C  
HETATM   33  O   UNL     1     -11.371   5.963  70.783  1.00  0.00    -0.267 OA 
HETATM   34  N   UNL     1      -9.308   5.296  70.090  1.00  0.00    -0.147 N  
HETATM   35  C   UNL     1     -10.240   8.250  72.781  1.00  0.00    -0.325 C  
HETATM   36  H   UNL     1      -8.348   5.567  69.879  1.00  0.00     0.000 HD 
BRANCH  34  37
HETATM   37  C   UNL     1      -9.689   3.896  70.040  1.00  0.00    -0.172 C  
BRANCH  37  38
HETATM   38  C   UNL     1      -8.924   3.087  68.980  1.00  0.00    -0.182 C  
HETATM   39  C   UNL     1      -7.429   3.018  69.359  1.00  0.00    -0.044 C  
HETATM   40  C   UNL     1      -9.485   1.659  68.871  1.00  0.00    -0.192 C  
BRANCH  38  41
HETATM   41  C   UNL     1      -9.050   3.798  67.625  1.00  0.00    -0.158 C  
HETATM   42  N   UNL     1      -9.785   3.180  66.661  1.00  0.00    -0.409 N  
HETATM   43  O   UNL     1      -8.534   4.885  67.376  1.00  0.00    -0.106 OA 
HETATM   44  H2  UNL     1     -10.234   2.281  66.832  1.00  0.00     0.000 HD 
HETATM   45  H1  UNL     1      -9.868   3.653  65.762  1.00  0.00     0.000 HD 
ENDBRANCH  38  41
ENDBRANCH  37  38
ENDBRANCH  34  37
ENDBRANCH  25  28
ENDBRANCH  21  25
ENDBRANCH  17  21
ENDBRANCH  11  15
ENDBRANCH   6   7
ENDBRANCH   5   6
ENDBRANCH   4   5
ENDBRANCH   3   4
ENDBRANCH   2   3
TORSDOF 13
ENDMDL
MODEL       27
REMARK 921   NORMALIZED FREE ENERGY PREDICTED BY IDOCK:   -5.31 KCAL/MOL
REMARK 922        TOTAL FREE ENERGY PREDICTED BY IDOCK:  -11.66 KCAL/MOL
REMARK 923 INTER-LIGAND FREE ENERGY PREDICTED BY IDOCK:   -9.95 KCAL/MOL
REMARK 924 INTRA-LIGAND FREE ENERGY PREDICTED BY IDOCK:   -1.71 KCAL/MOL
REMARK 927      BINDING AFFINITY PREDICTED BY RF-SCORE:    0.00 PKD
ROOT
HETATM    1  C   UNL     1     -10.648   1.554  72.847  1.00  0.00    -0.139 C  
HETATM    2  O   UNL     1     -10.933   2.705  73.628  1.00  0.00    -0.184 OA 
ENDROOT
BRANCH   2   3
HETATM    3  C   UNL     1     -10.538   3.897  72.950  1.00  0.00    -0.149 C  
BRANCH   3   4
HETATM    4  C   UNL     1     -11.392   5.064  73.427  1.00  0.00    -0.345 C  
BRANCH   4   5
HETATM    5  C   UNL     1     -11.740   6.067  72.328  1.00  0.00    -0.284 C  
BRANCH   5   6
HETATM    6  O   UNL     1     -11.152   7.333  72.612  1.00  0.00    -0.272 OA 
BRANCH   6   7
HETATM    7  C   UNL     1     -10.062   7.765  71.896  1.00  0.00    -0.182 A  
HETATM    8  C   UNL     1      -8.886   7.961  72.651  1.00  0.00    -0.178 A  
HETATM    9  C   UNL     1      -7.767   8.539  72.045  1.00  0.00    -0.141 A  
HETATM   10  C   UNL     1     -10.101   8.151  70.550  1.00  0.00    -0.201 A  
HETATM   11  C   UNL     1      -9.002   8.808  69.965  1.00  0.00    -0.162 A  
HETATM   12  C   UNL     1      -7.838   8.976  70.720  1.00  0.00    -0.156 A  
BRANCH   8  13
HETATM   13  O   UNL     1      -8.940   7.569  73.967  1.00  0.00    -0.223 OA 
HETATM   14  C   UNL     1      -8.011   6.587  74.404  1.00  0.00    -0.113 C  
ENDBRANCH   8  13
BRANCH  11  15
HETATM   15  C   UNL     1      -9.144   9.516  68.633  1.00  0.00    -0.132 C  
HETATM   16  C   UNL     1     -10.074   8.973  67.517  1.00  0.00    -0.285 C  
HETATM   17  C   UNL     1     -10.173  10.038  66.360  1.00  0.00    -0.290 C  
HETATM   18  C   UNL     1      -9.673   7.602  66.889  1.00  0.00    -0.277 C  
HETATM   19  C   UNL     1      -9.866   6.421  67.842  1.00  0.00    -0.130 C  
HETATM   20  C   UNL     1      -8.266   7.583  66.288  1.00  0.00    -0.125 C  
BRANCH  17  21
HETATM   21  C   UNL     1     -10.800  11.392  66.749  1.00  0.00    -0.286 C  
HETATM   22  N   UNL     1     -12.055  11.105  67.455  1.00  0.00    -0.280 NA 
HETATM   23  H1  UNL     1     -12.470  12.001  67.712  1.00  0.00     0.000 HD 
HETATM   24  H2  UNL     1     -11.931  10.480  68.251  1.00  0.00     0.000 HD 
BRANCH  21  25
HETATM   25  C   UNL     1     -11.019  12.369  65.533  1.00  0.00    -0.293 C  
HETATM   26  H   UNL     1     -12.519  13.289  64.618  1.00  0.00     0.000 HD 
HETATM   27  O   UNL     1     -12.387  12.700  65.352  1.00  0.00    -0.528 OA 
BRANCH  25  28
HETATM   28  C   UNL     1     -10.169  13.635  65.763  1.00  0.00    -0.317 C  
HETATM   29  C   UNL     1     -10.707  14.829  66.585  1.00  0.00    -0.309 C  
HETATM   30  C   UNL     1      -9.592  15.889  66.478  1.00  0.00    -0.268 C  
HETATM   31  C   UNL     1     -11.059  14.521  68.070  1.00  0.00    -0.289 C  
HETATM   32  C   UNL     1     -11.686  15.712  68.808  1.00  0.00    -0.382 C  
HETATM   33  O   UNL     1      -8.393  15.616  66.516  1.00  0.00    -0.269 OA 
HETATM   34  N   UNL     1     -10.031  17.188  66.345  1.00  0.00    -0.293 N  
HETATM   35  C   UNL     1      -9.880  13.956  68.869  1.00  0.00    -0.041 C  
HETATM   36  H   UNL     1     -11.028  17.395  66.407  1.00  0.00     0.000 HD 
BRANCH  34  37
HETATM   37  C   UNL     1      -9.085  18.265  66.117  1.00  0.00    -0.105 C  
BRANCH  37  38
HETATM   38  C   UNL     1      -8.866  19.163  67.346  1.00  0.00    -0.324 C  
HETATM   39  C   UNL     1      -8.124  18.368  68.443  1.00  0.00    -0.327 C  
HETATM   40  C   UNL     1      -8.040  20.406  66.976  1.00  0.00    -0.351 C  
BRANCH  38  41
HETATM   41  C   UNL     1     -10.232  19.593  67.898  1.00  0.00    -0.448 C  
HETATM   42  N   UNL     1     -10.338  19.760  69.243  1.00  0.00    -0.599 N  
HETATM   43  O   UNL     1     -11.218  19.798  67.192  1.00  0.00    -0.272 OA 
HETATM   44  H2  UNL     1      -9.542  19.606  69.861  1.00  0.00     0.000 HD 
HETATM   45  H1  UNL     1     -11.246  20.046  69.610  1.00  0.00     0.000 HD 
ENDBRANCH  38  41
ENDBRANCH  37  38
ENDBRANCH  34  37
ENDBRANCH  25  28
ENDBRANCH  21  25
ENDBRANCH  17  21
ENDBRANCH  11  15
ENDBRANCH   6   7
ENDBRANCH   5   6
ENDBRANCH   4   5
ENDBRANCH   3   4
ENDBRANCH   2   3
TORSDOF 13
ENDMDL
MODEL       28
REMARK 921   NORMALIZED FREE ENERGY PREDICTED BY IDOCK:   -5.29 KCAL/MOL
REMARK 922        TOTAL FREE ENERGY PREDICTED BY IDOCK:  -11.62 KCAL/MOL
REMARK 923 INTER-LIGAND FREE ENERGY PREDICTED BY IDOCK:   -9.73 KCAL/MOL
REMARK 924 INTRA-LIGAND FREE ENERGY PREDICTED BY IDOCK:   -1.89 KCAL/MOL
REMARK 927      BINDING AFFINITY PREDICTED BY RF-SCORE:    0.00 PKD
ROOT
HETATM    1  C   UNL     1     -13.371  13.222  71.957  1.00  0.00    -0.489 C  
HETATM    2  O   UNL     1     -12.925  12.076  71.246  1.00  0.00    -0.334 OA 
ENDROOT
BRANCH   2   3
HETATM    3  C   UNL     1     -13.324  10.875  71.905  1.00  0.00    -0.324 C  
BRANCH   3   4
HETATM    4  C   UNL     1     -12.255   9.807  71.717  1.00  0.00    -0.449 C  
BRANCH   4   5
HETATM    5  C   UNL     1     -12.746   8.385  71.986  1.00  0.00    -0.360 C  
BRANCH   5   6
HETATM    6  O   UNL     1     -11.691   7.594  72.526  1.00  0.00    -0.322 OA 
BRANCH   6   7
HETATM    7  C   UNL     1     -10.919   6.815  71.699  1.00  0.00    -0.235 A  
HETATM    8  C   UNL     1     -10.706   5.493  72.144  1.00  0.00    -0.231 A  
HETATM    9  C   UNL     1      -9.815   4.668  71.452  1.00  0.00    -0.264 A  
HETATM   10  C   UNL     1     -10.237   7.291  70.572  1.00  0.00    -0.203 A  
HETATM   11  C   UNL     1      -9.278   6.487  69.926  1.00  0.00    -0.149 A  
HETATM   12  C   UNL     1      -9.095   5.174  70.366  1.00  0.00    -0.173 A  
BRANCH   8  13
HETATM   13  O   UNL     1     -11.403   5.113  73.266  1.00  0.00    -0.321 OA 
HETATM   14  C   UNL     1     -10.770   4.215  74.166  1.00  0.00    -0.225 C  
ENDBRANCH   8  13
BRANCH  11  15
HETATM   15  C   UNL     1      -8.310   7.089  68.928  1.00  0.00    -0.125 C  
HETATM   16  C   UNL     1      -8.798   7.716  67.597  1.00  0.00    -0.125 C  
HETATM   17  C   UNL     1      -7.591   8.445  66.893  1.00  0.00    -0.091 C  
HETATM   18  C   UNL     1      -9.448   6.739  66.569  1.00  0.00    -0.193 C  
HETATM   19  C   UNL     1     -10.819   6.221  67.009  1.00  0.00    -0.458 C  
HETATM   20  C   UNL     1      -8.541   5.577  66.159  1.00  0.00    -0.129 C  
BRANCH  17  21
HETATM   21  C   UNL     1      -6.982   9.630  67.669  1.00  0.00    -0.087 C  
HETATM   22  N   UNL     1      -7.842   9.881  68.831  1.00  0.00    -0.086 NA 
HETATM   23  H1  UNL     1      -7.439  10.665  69.345  1.00  0.00     0.000 HD 
HETATM   24  H2  UNL     1      -7.980   9.053  69.412  1.00  0.00     0.000 HD 
BRANCH  21  25
HETATM   25  C   UNL     1      -6.777  10.927  66.798  1.00  0.00    -0.120 C  
HETATM   26  H   UNL     1      -6.725  11.435  64.881  1.00  0.00     0.000 HD 
HETATM   27  O   UNL     1      -6.849  10.653  65.406  1.00  0.00    -0.111 OA 
BRANCH  25  28
HETATM   28  C   UNL     1      -7.836  11.968  67.212  1.00  0.00    -0.170 C  
HETATM   29  C   UNL     1      -8.959  12.407  66.243  1.00  0.00    -0.041 C  
HETATM   30  C   UNL     1      -9.713  13.507  67.018  1.00  0.00    -0.251 C  
HETATM   31  C   UNL     1      -9.923  11.280  65.772  1.00  0.00    -0.281 C  
HETATM   32  C   UNL     1     -10.949  11.750  64.732  1.00  0.00    -0.360 C  
HETATM   33  O   UNL     1      -9.941  13.448  68.225  1.00  0.00    -0.231 OA 
HETATM   34  N   UNL     1     -10.131  14.576  66.256  1.00  0.00    -0.284 N  
HETATM   35  C   UNL     1     -10.624  10.558  66.928  1.00  0.00    -0.303 C  
HETATM   36  H   UNL     1     -10.008  14.556  65.244  1.00  0.00     0.000 HD 
BRANCH  34  37
HETATM   37  C   UNL     1     -10.747  15.730  66.885  1.00  0.00    -0.299 C  
BRANCH  37  38
HETATM   38  C   UNL     1      -9.811  16.946  66.990  1.00  0.00    -0.270 C  
HETATM   39  C   UNL     1      -8.414  16.572  66.451  1.00  0.00    -0.357 C  
HETATM   40  C   UNL     1     -10.364  18.133  66.184  1.00  0.00    -0.394 C  
BRANCH  38  41
HETATM   41  C   UNL     1      -9.674  17.341  68.467  1.00  0.00    -0.296 C  
HETATM   42  N   UNL     1      -9.229  16.389  69.330  1.00  0.00    -0.207 N  
HETATM   43  O   UNL     1      -9.934  18.462  68.899  1.00  0.00    -0.381 OA 
HETATM   44  H2  UNL     1      -8.996  15.449  69.009  1.00  0.00     0.000 HD 
HETATM   45  H1  UNL     1      -9.138  16.651  70.311  1.00  0.00     0.000 HD 
ENDBRANCH  38  41
ENDBRANCH  37  38
ENDBRANCH  34  37
ENDBRANCH  25  28
ENDBRANCH  21  25
ENDBRANCH  17  21
ENDBRANCH  11  15
ENDBRANCH   6   7
ENDBRANCH   5   6
ENDBRANCH   4   5
ENDBRANCH   3   4
ENDBRANCH   2   3
TORSDOF 13
ENDMDL
MODEL       29
REMARK 921   NORMALIZED FREE ENERGY PREDICTED BY IDOCK:   -5.29 KCAL/MOL
REMARK 922        TOTAL FREE ENERGY PREDICTED BY IDOCK:  -11.61 KCAL/MOL
REMARK 923 INTER-LIGAND FREE ENERGY PREDICTED BY IDOCK:   -9.62 KCAL/MOL
REMARK 924 INTRA-LIGAND FREE ENERGY PREDICTED BY IDOCK:   -1.99 KCAL/MOL
REMARK 927      BINDING AFFINITY PREDICTED BY RF-SCORE:    0.00 PKD
ROOT
HETATM    1  C   UNL     1     -12.666  15.241  70.525  1.00  0.00    -0.390 C  
HETATM    2  O   UNL     1     -12.378  13.859  70.690  1.00  0.00    -0.338 OA 
ENDROOT
BRANCH   2   3
HETATM    3  C   UNL     1     -11.909  13.283  69.472  1.00  0.00    -0.327 C  
BRANCH   3   4
HETATM    4  C   UNL     1     -11.667  11.793  69.670  1.00  0.00    -0.413 C  
BRANCH   4   5
HETATM    5  C   UNL     1     -11.776  10.971  68.386  1.00  0.00    -0.259 C  
BRANCH   5   6
HETATM    6  O   UNL     1     -11.909  11.833  67.260  1.00  0.00    -0.596 OA 
BRANCH   6   7
HETATM    7  C   UNL     1     -11.147  11.625  66.136  1.00  0.00    -0.280 A  
HETATM    8  C   UNL     1     -11.447  12.464  65.042  1.00  0.00    -0.332 A  
HETATM    9  C   UNL     1     -10.832  12.233  63.808  1.00  0.00    -0.495 A  
HETATM   10  C   UNL     1     -10.239  10.570  65.979  1.00  0.00    -0.310 A  
HETATM   11  C   UNL     1      -9.684  10.288  64.716  1.00  0.00    -0.397 A  
HETATM   12  C   UNL     1      -9.976  11.141  63.648  1.00  0.00    -0.411 A  
BRANCH   8  13
HETATM   13  O   UNL     1     -12.360  13.463  65.279  1.00  0.00    -0.415 OA 
HETATM   14  C   UNL     1     -12.223  14.673  64.547  1.00  0.00    -0.456 C  
ENDBRANCH   8  13
BRANCH  11  15
HETATM   15  C   UNL     1      -8.972   8.976  64.459  1.00  0.00    -0.069 C  
HETATM   16  C   UNL     1      -7.765   8.523  65.321  1.00  0.00    -0.097 C  
HETATM   17  C   UNL     1      -7.395   7.035  64.954  1.00  0.00    -0.084 C  
HETATM   18  C   UNL     1      -6.473   9.390  65.213  1.00  0.00    -0.074 C  
HETATM   19  C   UNL     1      -6.615  10.771  65.857  1.00  0.00    -0.090 C  
HETATM   20  C   UNL     1      -5.929   9.517  63.788  1.00  0.00    -0.094 C  
BRANCH  17  21
HETATM   21  C   UNL     1      -8.484   5.984  65.247  1.00  0.00    -0.131 C  
HETATM   22  N   UNL     1      -9.612   6.685  65.873  1.00  0.00    -0.385 NA 
HETATM   23  H1  UNL     1     -10.333   5.990  66.066  1.00  0.00     0.000 HD 
HETATM   24  H2  UNL     1      -9.953   7.468  65.316  1.00  0.00     0.000 HD 
BRANCH  21  25
HETATM   25  C   UNL     1      -7.985   4.772  66.122  1.00  0.00    -0.103 C  
HETATM   26  H   UNL     1      -6.404   3.581  66.244  1.00  0.00     0.000 HD 
HETATM   27  O   UNL     1      -6.704   4.312  65.716  1.00  0.00    -0.050 OA 
BRANCH  25  28
HETATM   28  C   UNL     1      -7.973   5.209  67.601  1.00  0.00    -0.099 C  
HETATM   29  C   UNL     1      -8.793   4.451  68.672  1.00  0.00    -0.135 C  
HETATM   30  C   UNL     1      -8.571   5.270  69.960  1.00  0.00    -0.112 C  
HETATM   31  C   UNL     1      -8.417   2.955  68.875  1.00  0.00    -0.099 C  
HETATM   32  C   UNL     1      -9.330   2.227  69.872  1.00  0.00    -0.171 C  
HETATM   33  O   UNL     1      -7.489   5.770  70.264  1.00  0.00    -0.077 OA 
HETATM   34  N   UNL     1      -9.678   5.397  70.770  1.00  0.00    -0.172 N  
HETATM   35  C   UNL     1      -6.945   2.743  69.244  1.00  0.00    -0.040 C  
HETATM   36  H   UNL     1     -10.535   4.897  70.538  1.00  0.00     0.000 HD 
BRANCH  34  37
HETATM   37  C   UNL     1      -9.631   6.240  71.951  1.00  0.00    -0.152 C  
BRANCH  37  38
HETATM   38  C   UNL     1     -10.358   7.584  71.776  1.00  0.00    -0.221 C  
HETATM   39  C   UNL     1     -11.211   7.879  73.029  1.00  0.00    -0.346 C  
HETATM   40  C   UNL     1      -9.351   8.728  71.570  1.00  0.00    -0.337 C  
BRANCH  38  41
HETATM   41  C   UNL     1     -11.293   7.490  70.563  1.00  0.00    -0.260 C  
HETATM   42  N   UNL     1     -12.624   7.355  70.809  1.00  0.00    -0.578 N  
HETATM   43  O   UNL     1     -10.904   7.539  69.398  1.00  0.00    -0.224 OA 
HETATM   44  H2  UNL     1     -12.987   7.317  71.761  1.00  0.00     0.000 HD 
HETATM   45  H1  UNL     1     -13.245   7.292  70.002  1.00  0.00     0.000 HD 
ENDBRANCH  38  41
ENDBRANCH  37  38
ENDBRANCH  34  37
ENDBRANCH  25  28
ENDBRANCH  21  25
ENDBRANCH  17  21
ENDBRANCH  11  15
ENDBRANCH   6   7
ENDBRANCH   5   6
ENDBRANCH   4   5
ENDBRANCH   3   4
ENDBRANCH   2   3
TORSDOF 13
ENDMDL
MODEL       30
REMARK 921   NORMALIZED FREE ENERGY PREDICTED BY IDOCK:   -5.28 KCAL/MOL
REMARK 922        TOTAL FREE ENERGY PREDICTED BY IDOCK:  -11.61 KCAL/MOL
REMARK 923 INTER-LIGAND FREE ENERGY PREDICTED BY IDOCK:   -9.52 KCAL/MOL
REMARK 924 INTRA-LIGAND FREE ENERGY PREDICTED BY IDOCK:   -2.09 KCAL/MOL
REMARK 927      BINDING AFFINITY PREDICTED BY RF-SCORE:    0.00 PKD
ROOT
HETATM    1  C   UNL     1      -6.317  19.714  69.476  1.00  0.00    -0.328 C  
HETATM    2  O   UNL     1      -7.534  19.677  68.744  1.00  0.00    -0.339 OA 
ENDROOT
BRANCH   2   3
HETATM    3  C   UNL     1      -7.556  18.573  67.840  1.00  0.00    -0.239 C  
BRANCH   3   4
HETATM    4  C   UNL     1      -7.134  17.305  68.571  1.00  0.00    -0.220 C  
BRANCH   4   5
HETATM    5  C   UNL     1      -7.922  16.061  68.161  1.00  0.00    -0.142 C  
BRANCH   5   6
HETATM    6  O   UNL     1      -9.302  16.228  68.473  1.00  0.00    -0.199 OA 
BRANCH   6   7
HETATM    7  C   UNL     1     -10.185  15.195  68.273  1.00  0.00    -0.223 A  
HETATM    8  C   UNL     1     -11.076  14.950  69.341  1.00  0.00    -0.280 A  
HETATM    9  C   UNL     1     -11.911  13.831  69.298  1.00  0.00    -0.392 A  
HETATM   10  C   UNL     1     -10.143  14.317  67.184  1.00  0.00    -0.254 A  
HETATM   11  C   UNL     1     -10.925  13.146  67.181  1.00  0.00    -0.289 A  
HETATM   12  C   UNL     1     -11.816  12.929  68.235  1.00  0.00    -0.372 A  
BRANCH   8  13
HETATM   13  O   UNL     1     -11.040  15.853  70.377  1.00  0.00    -0.321 OA 
HETATM   14  C   UNL     1     -11.306  15.369  71.686  1.00  0.00    -0.385 C  
ENDBRANCH   8  13
BRANCH  11  15
HETATM   15  C   UNL     1     -10.654  12.037  66.185  1.00  0.00    -0.298 C  
HETATM   16  C   UNL     1     -10.372  12.337  64.690  1.00  0.00    -0.330 C  
HETATM   17  C   UNL     1      -9.913  11.011  63.972  1.00  0.00    -0.390 C  
HETATM   18  C   UNL     1     -11.550  12.953  63.874  1.00  0.00    -0.515 C  
HETATM   19  C   UNL     1     -11.867  14.398  64.266  1.00  0.00    -0.385 C  
HETATM   20  C   UNL     1     -12.823  12.103  63.884  1.00  0.00    -0.420 C  
BRANCH  17  21
HETATM   21  C   UNL     1      -8.598  10.392  64.487  1.00  0.00    -0.180 C  
HETATM   22  N   UNL     1      -7.663  10.348  63.357  1.00  0.00    -0.280 NA 
HETATM   23  H1  UNL     1      -6.793   9.939  63.698  1.00  0.00     0.000 HD 
HETATM   24  H2  UNL     1      -7.529  11.257  62.914  1.00  0.00     0.000 HD 
BRANCH  21  25
HETATM   25  C   UNL     1      -8.777   8.979  65.159  1.00  0.00    -0.189 C  
HETATM   26  H   UNL     1      -7.707   7.338  65.474  1.00  0.00     0.000 HD 
HETATM   27  O   UNL     1      -7.599   8.191  65.070  1.00  0.00    -0.085 OA 
BRANCH  25  28
HETATM   28  C   UNL     1      -9.193   9.185  66.630  1.00  0.00    -0.207 C  
HETATM   29  C   UNL     1      -8.168   9.073  67.782  1.00  0.00    -0.109 C  
HETATM   30  C   UNL     1      -9.017   9.250  69.057  1.00  0.00    -0.140 C  
HETATM   31  C   UNL     1      -6.990  10.089  67.738  1.00  0.00    -0.085 C  
HETATM   32  C   UNL     1      -5.949   9.866  68.843  1.00  0.00    -0.037 C  
HETATM   33  O   UNL     1      -9.945  10.053  69.145  1.00  0.00    -0.182 OA 
HETATM   34  N   UNL     1      -8.658   8.445  70.115  1.00  0.00    -0.128 N  
HETATM   35  C   UNL     1      -7.449  11.552  67.722  1.00  0.00    -0.101 C  
HETATM   36  H   UNL     1      -7.829   7.855  70.045  1.00  0.00     0.000 HD 
BRANCH  34  37
HETATM   37  C   UNL     1      -9.451   8.431  71.331  1.00  0.00    -0.192 C  
BRANCH  37  38
HETATM   38  C   UNL     1     -10.366   7.201  71.454  1.00  0.00    -0.210 C  
HETATM   39  C   UNL     1     -10.812   7.031  72.923  1.00  0.00    -0.334 C  
HETATM   40  C   UNL     1     -11.609   7.352  70.562  1.00  0.00    -0.256 C  
BRANCH  38  41
HETATM   41  C   UNL     1      -9.578   5.951  71.038  1.00  0.00    -0.166 C  
HETATM   42  N   UNL     1      -9.857   4.791  71.691  1.00  0.00    -0.176 N  
HETATM   43  O   UNL     1      -8.727   5.946  70.152  1.00  0.00    -0.137 OA 
HETATM   44  H2  UNL     1     -10.562   4.752  72.427  1.00  0.00     0.000 HD 
HETATM   45  H1  UNL     1      -9.334   3.960  71.414  1.00  0.00     0.000 HD 
ENDBRANCH  38  41
ENDBRANCH  37  38
ENDBRANCH  34  37
ENDBRANCH  25  28
ENDBRANCH  21  25
ENDBRANCH  17  21
ENDBRANCH  11  15
ENDBRANCH   6   7
ENDBRANCH   5   6
ENDBRANCH   4   5
ENDBRANCH   3   4
ENDBRANCH   2   3
TORSDOF 13
ENDMDL
MODEL       31
REMARK 921   NORMALIZED FREE ENERGY PREDICTED BY IDOCK:   -5.28 KCAL/MOL
REMARK 922        TOTAL FREE ENERGY PREDICTED BY IDOCK:  -11.61 KCAL/MOL
REMARK 923 INTER-LIGAND FREE ENERGY PREDICTED BY IDOCK:   -9.38 KCAL/MOL
REMARK 924 INTRA-LIGAND FREE ENERGY PREDICTED BY IDOCK:   -2.23 KCAL/MOL
REMARK 927      BINDING AFFINITY PREDICTED BY RF-SCORE:    0.00 PKD
ROOT
HETATM    1  C   UNL     1      -8.568   2.083  64.044  1.00  0.00    -0.083 C  
HETATM    2  O   UNL     1      -7.921   2.802  65.084  1.00  0.00    -0.081 OA 
ENDROOT
BRANCH   2   3
HETATM    3  C   UNL     1      -8.822   3.082  66.154  1.00  0.00    -0.143 C  
BRANCH   3   4
HETATM    4  C   UNL     1      -9.806   4.163  65.724  1.00  0.00    -0.207 C  
BRANCH   4   5
HETATM    5  C   UNL     1     -10.408   4.950  66.888  1.00  0.00    -0.186 C  
BRANCH   5   6
HETATM    6  O   UNL     1      -9.413   5.768  67.496  1.00  0.00    -0.111 OA 
BRANCH   6   7
HETATM    7  C   UNL     1      -9.201   7.049  67.046  1.00  0.00    -0.147 A  
HETATM    8  C   UNL     1      -7.852   7.462  67.022  1.00  0.00    -0.116 A  
HETATM    9  C   UNL     1      -7.545   8.792  66.723  1.00  0.00    -0.090 A  
HETATM   10  C   UNL     1     -10.220   7.970  66.772  1.00  0.00    -0.367 A  
HETATM   11  C   UNL     1      -9.914   9.327  66.553  1.00  0.00    -0.344 A  
HETATM   12  C   UNL     1      -8.572   9.716  66.512  1.00  0.00    -0.135 A  
BRANCH   8  13
HETATM   13  O   UNL     1      -6.919   6.497  67.318  1.00  0.00    -0.070 OA 
HETATM   14  C   UNL     1      -6.139   5.980  66.249  1.00  0.00    -0.032 C  
ENDBRANCH   8  13
BRANCH  11  15
HETATM   15  C   UNL     1     -11.002  10.380  66.583  1.00  0.00    -0.067 C  
HETATM   16  C   UNL     1     -10.907  11.622  67.506  1.00  0.00    -0.287 C  
HETATM   17  C   UNL     1     -12.068  12.626  67.146  1.00  0.00    -0.192 C  
HETATM   18  C   UNL     1     -10.955  11.348  69.041  1.00  0.00    -0.288 C  
HETATM   19  C   UNL     1      -9.695  10.662  69.573  1.00  0.00    -0.085 C  
HETATM   20  C   UNL     1     -12.208  10.598  69.499  1.00  0.00    -0.230 C  
BRANCH  17  21
HETATM   21  C   UNL     1     -12.026  13.212  65.720  1.00  0.00    -0.423 C  
HETATM   22  N   UNL     1     -13.029  12.494  64.924  1.00  0.00    -0.805 NA 
HETATM   23  H1  UNL     1     -13.002  12.881  63.980  1.00  0.00     0.000 HD 
HETATM   24  H2  UNL     1     -13.960  12.519  65.338  1.00  0.00     0.000 HD 
BRANCH  21  25
HETATM   25  C   UNL     1     -10.601  13.167  65.052  1.00  0.00    -0.332 C  
HETATM   26  H   UNL     1      -9.803  12.766  63.280  1.00  0.00     0.000 HD 
HETATM   27  O   UNL     1     -10.663  12.793  63.683  1.00  0.00    -0.407 OA 
BRANCH  25  28
HETATM   28  C   UNL     1      -9.938  14.549  65.218  1.00  0.00    -0.322 C  
HETATM   29  C   UNL     1     -10.116  15.379  66.511  1.00  0.00    -0.282 C  
HETATM   30  C   UNL     1      -9.381  16.702  66.211  1.00  0.00    -0.292 C  
HETATM   31  C   UNL     1      -9.585  14.717  67.816  1.00  0.00    -0.209 C  
HETATM   32  C   UNL     1      -9.882  15.536  69.080  1.00  0.00    -0.235 C  
HETATM   33  O   UNL     1      -8.319  16.759  65.593  1.00  0.00    -0.333 OA 
HETATM   34  N   UNL     1      -9.995  17.835  66.696  1.00  0.00    -0.322 N  
HETATM   35  C   UNL     1      -8.098  14.352  67.751  1.00  0.00    -0.174 C  
HETATM   36  H   UNL     1     -10.826  17.749  67.282  1.00  0.00     0.000 HD 
BRANCH  34  37
HETATM   37  C   UNL     1      -9.468  19.150  66.380  1.00  0.00    -0.354 C  
BRANCH  37  38
HETATM   38  C   UNL     1      -8.979  19.929  67.613  1.00  0.00    -0.416 C  
HETATM   39  C   UNL     1      -9.716  21.283  67.697  1.00  0.00     0.132 C  
HETATM   40  C   UNL     1      -9.237  19.131  68.902  1.00  0.00    -0.365 C  
BRANCH  38  41
HETATM   41  C   UNL     1      -7.476  20.202  67.464  1.00  0.00    -0.297 C  
HETATM   42  N   UNL     1      -6.673  19.142  67.179  1.00  0.00    -0.197 N  
HETATM   43  O   UNL     1      -6.971  21.317  67.580  1.00  0.00    -0.490 OA 
HETATM   44  H2  UNL     1      -7.055  18.202  67.068  1.00  0.00     0.000 HD 
HETATM   45  H1  UNL     1      -5.675  19.323  67.080  1.00  0.00     0.000 HD 
ENDBRANCH  38  41
ENDBRANCH  37  38
ENDBRANCH  34  37
ENDBRANCH  25  28
ENDBRANCH  21  25
ENDBRANCH  17  21
ENDBRANCH  11  15
ENDBRANCH   6   7
ENDBRANCH   5   6
ENDBRANCH   4   5
ENDBRANCH   3   4
ENDBRANCH   2   3
TORSDOF 13
ENDMDL
MODEL       32
REMARK 921   NORMALIZED FREE ENERGY PREDICTED BY IDOCK:   -5.28 KCAL/MOL
REMARK 922        TOTAL FREE ENERGY PREDICTED BY IDOCK:  -11.60 KCAL/MOL
REMARK 923 INTER-LIGAND FREE ENERGY PREDICTED BY IDOCK:   -9.14 KCAL/MOL
REMARK 924 INTRA-LIGAND FREE ENERGY PREDICTED BY IDOCK:   -2.46 KCAL/MOL
REMARK 927      BINDING AFFINITY PREDICTED BY RF-SCORE:    0.00 PKD
ROOT
HETATM    1  C   UNL     1     -13.399  15.531  71.247  1.00  0.00    -0.511 C  
HETATM    2  O   UNL     1     -12.404  15.347  70.250  1.00  0.00    -0.357 OA 
ENDROOT
BRANCH   2   3
HETATM    3  C   UNL     1     -12.221  13.963  69.956  1.00  0.00    -0.344 C  
BRANCH   3   4
HETATM    4  C   UNL     1     -12.036  13.778  68.456  1.00  0.00    -0.402 C  
BRANCH   4   5
HETATM    5  C   UNL     1     -11.708  12.343  68.044  1.00  0.00    -0.356 C  
BRANCH   5   6
HETATM    6  O   UNL     1     -12.093  12.119  66.691  1.00  0.00    -0.622 OA 
BRANCH   6   7
HETATM    7  C   UNL     1     -11.160  11.725  65.763  1.00  0.00    -0.297 A  
HETATM    8  C   UNL     1     -11.156  12.466  64.562  1.00  0.00    -0.316 A  
HETATM    9  C   UNL     1     -10.349  12.051  63.500  1.00  0.00    -0.492 A  
HETATM   10  C   UNL     1     -10.360  10.582  65.881  1.00  0.00    -0.275 A  
HETATM   11  C   UNL     1      -9.612  10.118  64.782  1.00  0.00    -0.378 A  
HETATM   12  C   UNL     1      -9.602  10.875  63.607  1.00  0.00    -0.339 A  
BRANCH   8  13
HETATM   13  O   UNL     1     -11.983  13.564  64.527  1.00  0.00    -0.376 OA 
HETATM   14  C   UNL     1     -11.382  14.848  64.610  1.00  0.00    -0.357 C  
ENDBRANCH   8  13
BRANCH  11  15
HETATM   15  C   UNL     1      -9.011   8.727  64.786  1.00  0.00    -0.016 C  
HETATM   16  C   UNL     1      -7.730   8.396  65.594  1.00  0.00    -0.099 C  
HETATM   17  C   UNL     1      -7.492   6.838  65.575  1.00  0.00    -0.083 C  
HETATM   18  C   UNL     1      -6.417   9.098  65.127  1.00  0.00    -0.069 C  
HETATM   19  C   UNL     1      -6.399  10.601  65.415  1.00  0.00    -0.052 C  
HETATM   20  C   UNL     1      -6.056   8.828  63.665  1.00  0.00    -0.077 C  
BRANCH  17  21
HETATM   21  C   UNL     1      -8.590   5.986  66.242  1.00  0.00    -0.137 C  
HETATM   22  N   UNL     1      -9.435   5.444  65.172  1.00  0.00    -0.362 NA 
HETATM   23  H1  UNL     1     -10.161   4.880  65.613  1.00  0.00     0.000 HD 
HETATM   24  H2  UNL     1      -8.905   4.930  64.467  1.00  0.00     0.000 HD 
BRANCH  21  25
HETATM   25  C   UNL     1      -9.434   6.764  67.322  1.00  0.00    -0.135 C  
HETATM   26  H   UNL     1     -10.639   6.352  68.843  1.00  0.00     0.000 HD 
HETATM   27  O   UNL     1     -10.129   5.883  68.193  1.00  0.00    -0.142 OA 
BRANCH  25  28
HETATM   28  C   UNL     1      -8.487   7.689  68.112  1.00  0.00    -0.124 C  
HETATM   29  C   UNL     1      -9.010   8.951  68.837  1.00  0.00    -0.137 C  
HETATM   30  C   UNL     1      -7.736   9.614  69.400  1.00  0.00    -0.101 C  
HETATM   31  C   UNL     1     -10.062   8.698  69.956  1.00  0.00    -0.195 C  
HETATM   32  C   UNL     1     -10.624   9.988  70.568  1.00  0.00    -0.313 C  
HETATM   33  O   UNL     1      -6.801   8.978  69.884  1.00  0.00    -0.044 OA 
HETATM   34  N   UNL     1      -7.716  10.990  69.334  1.00  0.00    -0.340 N  
HETATM   35  C   UNL     1      -9.563   7.755  71.057  1.00  0.00    -0.170 C  
HETATM   36  H   UNL     1      -8.542  11.494  69.011  1.00  0.00     0.000 HD 
BRANCH  34  37
HETATM   37  C   UNL     1      -6.527  11.727  69.722  1.00  0.00    -0.094 C  
BRANCH  37  38
HETATM   38  C   UNL     1      -6.460  13.143  69.127  1.00  0.00    -0.107 C  
HETATM   39  C   UNL     1      -6.107  14.156  70.237  1.00  0.00    -0.164 C  
HETATM   40  C   UNL     1      -5.400  13.220  68.015  1.00  0.00    -0.109 C  
BRANCH  38  41
HETATM   41  C   UNL     1      -7.838  13.509  68.556  1.00  0.00    -0.125 C  
HETATM   42  N   UNL     1      -8.599  14.380  69.271  1.00  0.00    -0.367 N  
HETATM   43  O   UNL     1      -8.275  13.066  67.496  1.00  0.00    -0.159 OA 
HETATM   44  H2  UNL     1      -8.269  14.774  70.151  1.00  0.00     0.000 HD 
HETATM   45  H1  UNL     1      -9.514  14.622  68.892  1.00  0.00     0.000 HD 
ENDBRANCH  38  41
ENDBRANCH  37  38
ENDBRANCH  34  37
ENDBRANCH  25  28
ENDBRANCH  21  25
ENDBRANCH  17  21
ENDBRANCH  11  15
ENDBRANCH   6   7
ENDBRANCH   5   6
ENDBRANCH   4   5
ENDBRANCH   3   4
ENDBRANCH   2   3
TORSDOF 13
ENDMDL
MODEL       33
REMARK 921   NORMALIZED FREE ENERGY PREDICTED BY IDOCK:   -5.28 KCAL/MOL
REMARK 922        TOTAL FREE ENERGY PREDICTED BY IDOCK:  -11.60 KCAL/MOL
REMARK 923 INTER-LIGAND FREE ENERGY PREDICTED BY IDOCK:   -9.72 KCAL/MOL
REMARK 924 INTRA-LIGAND FREE ENERGY PREDICTED BY IDOCK:   -1.88 KCAL/MOL
REMARK 927      BINDING AFFINITY PREDICTED BY RF-SCORE:    0.00 PKD
ROOT
HETATM    1  C   UNL     1     -12.280  15.535  74.465  1.00  0.00    -0.532 C  
HETATM    2  O   UNL     1     -13.216  15.983  73.496  1.00  0.00    -0.565 OA 
ENDROOT
BRANCH   2   3
HETATM    3  C   UNL     1     -12.650  15.964  72.186  1.00  0.00    -0.451 C  
BRANCH   3   4
HETATM    4  C   UNL     1     -13.562  15.190  71.244  1.00  0.00    -0.559 C  
BRANCH   4   5
HETATM    5  C   UNL     1     -12.845  14.609  70.026  1.00  0.00    -0.051 C  
BRANCH   5   6
HETATM    6  O   UNL     1     -11.435  14.735  70.178  1.00  0.00    -0.253 OA 
BRANCH   6   7
HETATM    7  C   UNL     1     -10.608  14.602  69.089  1.00  0.00    -0.242 A  
HETATM    8  C   UNL     1      -9.996  15.796  68.649  1.00  0.00    -0.208 A  
HETATM    9  C   UNL     1      -9.257  15.794  67.463  1.00  0.00    -0.207 A  
HETATM   10  C   UNL     1     -10.472  13.429  68.336  1.00  0.00    -0.257 A  
HETATM   11  C   UNL     1      -9.797  13.448  67.101  1.00  0.00    -0.237 A  
HETATM   12  C   UNL     1      -9.180  14.633  66.690  1.00  0.00    -0.291 A  
BRANCH   8  13
HETATM   13  O   UNL     1     -10.194  16.903  69.439  1.00  0.00    -0.272 OA 
HETATM   14  C   UNL     1      -9.938  18.178  68.868  1.00  0.00    -0.338 C  
ENDBRANCH   8  13
BRANCH  11  15
HETATM   15  C   UNL     1      -9.922  12.290  66.133  1.00  0.00    -0.260 C  
HETATM   16  C   UNL     1     -10.142  12.517  64.615  1.00  0.00    -0.258 C  
HETATM   17  C   UNL     1     -10.007  11.141  63.859  1.00  0.00    -0.381 C  
HETATM   18  C   UNL     1     -11.497  13.171  64.204  1.00  0.00    -0.449 C  
HETATM   19  C   UNL     1     -11.603  14.646  64.599  1.00  0.00    -0.406 C  
HETATM   20  C   UNL     1     -12.729  12.399  64.680  1.00  0.00    -0.372 C  
BRANCH  17  21
HETATM   21  C   UNL     1      -8.623  10.466  63.942  1.00  0.00    -0.176 C  
HETATM   22  N   UNL     1      -7.833  10.946  62.802  1.00  0.00    -0.381 NA 
HETATM   23  H1  UNL     1      -6.917  10.499  62.857  1.00  0.00     0.000 HD 
HETATM   24  H2  UNL     1      -7.778  11.963  62.755  1.00  0.00     0.000 HD 
BRANCH  21  25
HETATM   25  C   UNL     1      -8.682   8.892  63.998  1.00  0.00    -0.038 C  
HETATM   26  H   UNL     1      -7.918   7.343  63.023  1.00  0.00     0.000 HD 
HETATM   27  O   UNL     1      -7.882   8.291  62.990  1.00  0.00    -0.133 OA 
BRANCH  25  28
HETATM   28  C   UNL     1      -8.237   8.435  65.402  1.00  0.00    -0.144 C  
HETATM   29  C   UNL     1      -9.114   7.493  66.260  1.00  0.00    -0.198 C  
HETATM   30  C   UNL     1      -8.348   7.381  67.594  1.00  0.00    -0.118 C  
HETATM   31  C   UNL     1      -9.398   6.092  65.646  1.00  0.00     0.087 C  
HETATM   32  C   UNL     1     -10.358   5.240  66.488  1.00  0.00    -0.332 C  
HETATM   33  O   UNL     1      -7.123   7.302  67.665  1.00  0.00    -0.079 OA 
HETATM   34  N   UNL     1      -9.139   7.362  68.722  1.00  0.00    -0.132 N  
HETATM   35  C   UNL     1      -8.125   5.302  65.321  1.00  0.00    -0.123 C  
HETATM   36  H   UNL     1     -10.154   7.338  68.629  1.00  0.00     0.000 HD 
BRANCH  34  37
HETATM   37  C   UNL     1      -8.536   7.378  70.042  1.00  0.00    -0.138 C  
BRANCH  37  38
HETATM   38  C   UNL     1      -8.598   8.752  70.731  1.00  0.00    -0.218 C  
HETATM   39  C   UNL     1      -7.789   9.780  69.912  1.00  0.00    -0.168 C  
HETATM   40  C   UNL     1     -10.053   9.236  70.854  1.00  0.00    -0.373 C  
BRANCH  38  41
HETATM   41  C   UNL     1      -7.969   8.638  72.127  1.00  0.00    -0.035 C  
HETATM   42  N   UNL     1      -6.649   8.318  72.192  1.00  0.00    -0.069 N  
HETATM   43  O   UNL     1      -8.589   8.827  73.171  1.00  0.00    -0.366 OA 
HETATM   44  H2  UNL     1      -6.099   8.160  71.348  1.00  0.00     0.000 HD 
HETATM   45  H1  UNL     1      -6.231   8.242  73.119  1.00  0.00     0.000 HD 
ENDBRANCH  38  41
ENDBRANCH  37  38
ENDBRANCH  34  37
ENDBRANCH  25  28
ENDBRANCH  21  25
ENDBRANCH  17  21
ENDBRANCH  11  15
ENDBRANCH   6   7
ENDBRANCH   5   6
ENDBRANCH   4   5
ENDBRANCH   3   4
ENDBRANCH   2   3
TORSDOF 13
ENDMDL
MODEL       34
REMARK 921   NORMALIZED FREE ENERGY PREDICTED BY IDOCK:   -5.25 KCAL/MOL
REMARK 922        TOTAL FREE ENERGY PREDICTED BY IDOCK:  -11.56 KCAL/MOL
REMARK 923 INTER-LIGAND FREE ENERGY PREDICTED BY IDOCK:   -9.24 KCAL/MOL
REMARK 924 INTRA-LIGAND FREE ENERGY PREDICTED BY IDOCK:   -2.32 KCAL/MOL
REMARK 927      BINDING AFFINITY PREDICTED BY RF-SCORE:    0.00 PKD
ROOT
HETATM    1  C   UNL     1     -10.226   4.340  74.180  1.00  0.00    -0.204 C  
HETATM    2  O   UNL     1     -11.445   4.865  73.674  1.00  0.00    -0.251 OA 
ENDROOT
BRANCH   2   3
HETATM    3  C   UNL     1     -11.220   5.657  72.509  1.00  0.00    -0.293 C  
BRANCH   3   4
HETATM    4  C   UNL     1      -9.751   6.053  72.436  1.00  0.00    -0.172 C  
BRANCH   4   5
HETATM    5  C   UNL     1      -9.122   5.849  71.057  1.00  0.00    -0.146 C  
BRANCH   5   6
HETATM    6  O   UNL     1     -10.012   5.125  70.213  1.00  0.00    -0.208 OA 
BRANCH   6   7
HETATM    7  C   UNL     1     -10.094   5.426  68.875  1.00  0.00    -0.195 A  
HETATM    8  C   UNL     1      -9.832   4.350  67.999  1.00  0.00    -0.072 A  
HETATM    9  C   UNL     1      -9.744   4.587  66.625  1.00  0.00    -0.222 A  
HETATM   10  C   UNL     1     -10.261   6.719  68.364  1.00  0.00    -0.193 A  
HETATM   11  C   UNL     1     -10.091   6.969  66.989  1.00  0.00    -0.298 A  
HETATM   12  C   UNL     1      -9.852   5.891  66.132  1.00  0.00    -0.058 A  
BRANCH   8  13
HETATM   13  O   UNL     1      -9.664   3.119  68.587  1.00  0.00    -0.101 OA 
HETATM   14  C   UNL     1      -8.418   2.463  68.405  1.00  0.00    -0.069 C  
ENDBRANCH   8  13
BRANCH  11  15
HETATM   15  C   UNL     1      -9.944   8.386  66.473  1.00  0.00    -0.335 C  
HETATM   16  C   UNL     1      -8.654   8.861  65.755  1.00  0.00    -0.181 C  
HETATM   17  C   UNL     1      -8.896  10.296  65.149  1.00  0.00    -0.205 C  
HETATM   18  C   UNL     1      -7.358   8.907  66.620  1.00  0.00    -0.085 C  
HETATM   19  C   UNL     1      -6.827   7.521  66.991  1.00  0.00    -0.071 C  
HETATM   20  C   UNL     1      -7.474   9.788  67.866  1.00  0.00    -0.086 C  
BRANCH  17  21
HETATM   21  C   UNL     1      -9.989  10.388  64.064  1.00  0.00    -0.235 C  
HETATM   22  N   UNL     1      -9.507   9.643  62.894  1.00  0.00    -0.549 NA 
HETATM   23  H1  UNL     1     -10.229   9.704  62.176  1.00  0.00     0.000 HD 
HETATM   24  H2  UNL     1      -9.243   8.683  63.113  1.00  0.00     0.000 HD 
BRANCH  21  25
HETATM   25  C   UNL     1     -10.401  11.863  63.695  1.00  0.00    -0.441 C  
HETATM   26  H   UNL     1     -12.058  12.933  63.486  1.00  0.00     0.000 HD 
HETATM   27  O   UNL     1     -11.809  12.044  63.709  1.00  0.00    -0.429 OA 
BRANCH  25  28
HETATM   28  C   UNL     1      -9.709  12.826  64.681  1.00  0.00     0.088 C  
HETATM   29  C   UNL     1     -10.520  13.843  65.518  1.00  0.00    -0.333 C  
HETATM   30  C   UNL     1      -9.443  14.648  66.274  1.00  0.00    -0.293 C  
HETATM   31  C   UNL     1     -11.564  13.230  66.497  1.00  0.00    -0.392 C  
HETATM   32  C   UNL     1     -12.411  14.284  67.223  1.00  0.00    -0.140 C  
HETATM   33  O   UNL     1      -8.429  14.139  66.750  1.00  0.00    -0.146 OA 
HETATM   34  N   UNL     1      -9.698  15.996  66.394  1.00  0.00    -0.264 N  
HETATM   35  C   UNL     1     -10.952  12.249  67.503  1.00  0.00    -0.298 C  
HETATM   36  H   UNL     1     -10.587  16.374  66.069  1.00  0.00     0.000 HD 
BRANCH  34  37
HETATM   37  C   UNL     1      -8.708  16.882  66.979  1.00  0.00    -0.209 C  
BRANCH  37  38
HETATM   38  C   UNL     1      -9.318  18.107  67.682  1.00  0.00    -0.260 C  
HETATM   39  C   UNL     1     -10.163  17.645  68.888  1.00  0.00    -0.354 C  
HETATM   40  C   UNL     1      -8.216  19.061  68.171  1.00  0.00    -0.349 C  
BRANCH  38  41
HETATM   41  C   UNL     1     -10.238  18.839  66.695  1.00  0.00    -0.408 C  
HETATM   42  N   UNL     1     -11.145  19.708  67.216  1.00  0.00    -0.308 N  
HETATM   43  O   UNL     1     -10.189  18.688  65.477  1.00  0.00    -0.474 OA 
HETATM   44  H2  UNL     1     -11.212  19.867  68.221  1.00  0.00     0.000 HD 
HETATM   45  H1  UNL     1     -11.757  20.195  66.561  1.00  0.00     0.000 HD 
ENDBRANCH  38  41
ENDBRANCH  37  38
ENDBRANCH  34  37
ENDBRANCH  25  28
ENDBRANCH  21  25
ENDBRANCH  17  21
ENDBRANCH  11  15
ENDBRANCH   6   7
ENDBRANCH   5   6
ENDBRANCH   4   5
ENDBRANCH   3   4
ENDBRANCH   2   3
TORSDOF 13
ENDMDL
MODEL       35
REMARK 921   NORMALIZED FREE ENERGY PREDICTED BY IDOCK:   -5.25 KCAL/MOL
REMARK 922        TOTAL FREE ENERGY PREDICTED BY IDOCK:  -11.55 KCAL/MOL
REMARK 923 INTER-LIGAND FREE ENERGY PREDICTED BY IDOCK:   -9.60 KCAL/MOL
REMARK 924 INTRA-LIGAND FREE ENERGY PREDICTED BY IDOCK:   -1.95 KCAL/MOL
REMARK 927      BINDING AFFINITY PREDICTED BY RF-SCORE:    0.00 PKD
ROOT
HETATM    1  C   UNL     1      -5.370   1.675  70.196  1.00  0.00    -0.008 C  
HETATM    2  O   UNL     1      -5.774   2.273  71.420  1.00  0.00    -0.011 OA 
ENDROOT
BRANCH   2   3
HETATM    3  C   UNL     1      -7.190   2.441  71.467  1.00  0.00    -0.032 C  
BRANCH   3   4
HETATM    4  C   UNL     1      -7.636   3.345  70.326  1.00  0.00    -0.044 C  
BRANCH   4   5
HETATM    5  C   UNL     1      -7.494   4.837  70.626  1.00  0.00    -0.057 C  
BRANCH   5   6
HETATM    6  O   UNL     1      -8.474   5.245  71.575  1.00  0.00    -0.119 OA 
BRANCH   6   7
HETATM    7  C   UNL     1      -9.266   6.340  71.325  1.00  0.00    -0.152 A  
HETATM    8  C   UNL     1     -10.505   6.352  71.999  1.00  0.00    -0.208 A  
HETATM    9  C   UNL     1     -11.443   7.344  71.699  1.00  0.00    -0.294 A  
HETATM   10  C   UNL     1      -8.984   7.316  70.361  1.00  0.00    -0.151 A  
HETATM   11  C   UNL     1      -9.961   8.264  70.000  1.00  0.00    -0.188 A  
HETATM   12  C   UNL     1     -11.175   8.276  70.692  1.00  0.00    -0.270 A  
BRANCH   8  13
HETATM   13  O   UNL     1     -10.705   5.348  72.917  1.00  0.00    -0.217 OA 
HETATM   14  C   UNL     1     -11.999   4.769  72.993  1.00  0.00     0.108 C  
ENDBRANCH   8  13
BRANCH  11  15
HETATM   15  C   UNL     1      -9.798   9.105  68.750  1.00  0.00    -0.175 C  
HETATM   16  C   UNL     1     -10.641   8.840  67.476  1.00  0.00    -0.298 C  
HETATM   17  C   UNL     1     -10.403  10.007  66.444  1.00  0.00    -0.249 C  
HETATM   18  C   UNL     1     -10.389   7.483  66.749  1.00  0.00    -0.332 C  
HETATM   19  C   UNL     1     -10.903   6.272  67.531  1.00  0.00    -0.436 C  
HETATM   20  C   UNL     1      -8.934   7.269  66.324  1.00  0.00    -0.185 C  
BRANCH  17  21
HETATM   21  C   UNL     1     -10.847  11.409  66.906  1.00  0.00    -0.285 C  
HETATM   22  N   UNL     1     -12.053  11.238  67.726  1.00  0.00    -0.528 NA 
HETATM   23  H1  UNL     1     -12.347  12.165  68.032  1.00  0.00     0.000 HD 
HETATM   24  H2  UNL     1     -11.920  10.587  68.500  1.00  0.00     0.000 HD 
BRANCH  21  25
HETATM   25  C   UNL     1     -11.077  12.428  65.727  1.00  0.00    -0.315 C  
HETATM   26  H   UNL     1     -12.582  13.405  64.880  1.00  0.00     0.000 HD 
HETATM   27  O   UNL     1     -12.443  12.791  65.592  1.00  0.00    -0.586 OA 
BRANCH  25  28
HETATM   28  C   UNL     1     -10.197  13.670  65.975  1.00  0.00    -0.312 C  
HETATM   29  C   UNL     1     -10.753  14.922  66.694  1.00  0.00    -0.312 C  
HETATM   30  C   UNL     1      -9.589  15.932  66.639  1.00  0.00    -0.246 C  
HETATM   31  C   UNL     1     -11.243  14.698  68.154  1.00  0.00    -0.304 C  
HETATM   32  C   UNL     1     -11.880  15.946  68.782  1.00  0.00    -0.277 C  
HETATM   33  O   UNL     1      -8.410  15.615  66.793  1.00  0.00    -0.234 OA 
HETATM   34  N   UNL     1      -9.960  17.239  66.411  1.00  0.00    -0.299 N  
HETATM   35  C   UNL     1     -10.162  14.127  69.078  1.00  0.00    -0.130 C  
HETATM   36  H   UNL     1     -10.948  17.486  66.376  1.00  0.00     0.000 HD 
BRANCH  34  37
HETATM   37  C   UNL     1      -8.952  18.267  66.219  1.00  0.00    -0.181 C  
BRANCH  37  38
HETATM   38  C   UNL     1      -8.878  19.278  67.375  1.00  0.00    -0.335 C  
HETATM   39  C   UNL     1      -8.065  18.674  68.541  1.00  0.00    -0.370 C  
HETATM   40  C   UNL     1      -8.210  20.585  66.916  1.00  0.00    -0.267 C  
BRANCH  38  41
HETATM   41  C   UNL     1     -10.300  19.570  67.874  1.00  0.00    -0.444 C  
HETATM   42  N   UNL     1     -10.466  19.757  69.211  1.00  0.00    -0.536 N  
HETATM   43  O   UNL     1     -11.278  19.650  67.135  1.00  0.00    -0.326 OA 
HETATM   44  H2  UNL     1      -9.678  19.706  69.856  1.00  0.00     0.000 HD 
HETATM   45  H1  UNL     1     -11.411  19.950  69.542  1.00  0.00     0.000 HD 
ENDBRANCH  38  41
ENDBRANCH  37  38
ENDBRANCH  34  37
ENDBRANCH  25  28
ENDBRANCH  21  25
ENDBRANCH  17  21
ENDBRANCH  11  15
ENDBRANCH   6   7
ENDBRANCH   5   6
ENDBRANCH   4   5
ENDBRANCH   3   4
ENDBRANCH   2   3
TORSDOF 13
ENDMDL
MODEL       36
REMARK 921   NORMALIZED FREE ENERGY PREDICTED BY IDOCK:   -5.25 KCAL/MOL
REMARK 922        TOTAL FREE ENERGY PREDICTED BY IDOCK:  -11.55 KCAL/MOL
REMARK 923 INTER-LIGAND FREE ENERGY PREDICTED BY IDOCK:   -8.20 KCAL/MOL
REMARK 924 INTRA-LIGAND FREE ENERGY PREDICTED BY IDOCK:   -3.35 KCAL/MOL
REMARK 927      BINDING AFFINITY PREDICTED BY RF-SCORE:    0.00 PKD
ROOT
HETATM    1  C   UNL     1      -9.202   2.046  72.178  1.00  0.00    -0.083 C  
HETATM    2  O   UNL     1      -9.821   3.297  72.447  1.00  0.00    -0.138 OA 
ENDROOT
BRANCH   2   3
HETATM    3  C   UNL     1      -9.820   4.129  71.288  1.00  0.00    -0.179 C  
BRANCH   3   4
HETATM    4  C   UNL     1      -8.720   5.175  71.410  1.00  0.00    -0.137 C  
BRANCH   4   5
HETATM    5  C   UNL     1      -7.786   5.236  70.201  1.00  0.00    -0.072 C  
BRANCH   5   6
HETATM    6  O   UNL     1      -8.306   4.446  69.136  1.00  0.00    -0.077 OA 
BRANCH   6   7
HETATM    7  C   UNL     1      -8.514   5.005  67.899  1.00  0.00    -0.104 A  
HETATM    8  C   UNL     1      -8.156   4.190  66.803  1.00  0.00    -0.101 A  
HETATM    9  C   UNL     1      -8.189   4.721  65.511  1.00  0.00    -0.117 A  
HETATM   10  C   UNL     1      -8.897   6.335  67.685  1.00  0.00    -0.111 A  
HETATM   11  C   UNL     1      -8.850   6.892  66.393  1.00  0.00    -0.155 A  
HETATM   12  C   UNL     1      -8.513   6.066  65.316  1.00  0.00    -0.131 A  
BRANCH   8  13
HETATM   13  O   UNL     1      -7.778   2.904  67.105  1.00  0.00    -0.072 OA 
HETATM   14  C   UNL     1      -8.668   1.853  66.756  1.00  0.00    -0.116 C  
ENDBRANCH   8  13
BRANCH  11  15
HETATM   15  C   UNL     1      -8.940   8.391  66.192  1.00  0.00    -0.218 C  
HETATM   16  C   UNL     1      -7.787   9.195  65.538  1.00  0.00    -0.095 C  
HETATM   17  C   UNL     1      -8.270  10.671  65.270  1.00  0.00    -0.105 C  
HETATM   18  C   UNL     1      -6.447   9.254  66.334  1.00  0.00    -0.066 C  
HETATM   19  C   UNL     1      -5.703   7.917  66.369  1.00  0.00    -0.040 C  
HETATM   20  C   UNL     1      -6.589   9.827  67.746  1.00  0.00    -0.068 C  
BRANCH  17  21
HETATM   21  C   UNL     1      -9.444  10.821  64.282  1.00  0.00    -0.264 C  
HETATM   22  N   UNL     1      -8.873  11.153  62.971  1.00  0.00    -0.441 NA 
HETATM   23  H1  UNL     1      -9.649  11.252  62.317  1.00  0.00     0.000 HD 
HETATM   24  H2  UNL     1      -8.172  10.480  62.659  1.00  0.00     0.000 HD 
BRANCH  21  25
HETATM   25  C   UNL     1     -10.530  11.870  64.733  1.00  0.00    -0.289 C  
HETATM   26  H   UNL     1     -12.247  12.608  64.069  1.00  0.00     0.000 HD 
HETATM   27  O   UNL     1     -11.593  11.976  63.797  1.00  0.00    -0.407 OA 
BRANCH  25  28
HETATM   28  C   UNL     1     -11.056  11.461  66.124  1.00  0.00    -0.259 C  
HETATM   29  C   UNL     1     -10.438  12.034  67.421  1.00  0.00    -0.239 C  
HETATM   30  C   UNL     1     -11.187  11.296  68.550  1.00  0.00    -0.252 C  
HETATM   31  C   UNL     1     -10.533  13.578  67.589  1.00  0.00    -0.239 C  
HETATM   32  C   UNL     1      -9.812  14.101  68.839  1.00  0.00    -0.110 C  
HETATM   33  O   UNL     1     -12.391  11.045  68.510  1.00  0.00    -0.536 OA 
HETATM   34  N   UNL     1     -10.412  10.940  69.631  1.00  0.00    -0.433 N  
HETATM   35  C   UNL     1     -11.970  14.108  67.538  1.00  0.00    -0.419 C  
HETATM   36  H   UNL     1      -9.438  11.240  69.677  1.00  0.00     0.000 HD 
BRANCH  34  37
HETATM   37  C   UNL     1     -10.971  10.139  70.705  1.00  0.00    -0.285 C  
BRANCH  37  38
HETATM   38  C   UNL     1     -10.263   8.787  70.896  1.00  0.00    -0.284 C  
HETATM   39  C   UNL     1     -10.960   7.710  70.037  1.00  0.00    -0.237 C  
HETATM   40  C   UNL     1      -8.784   8.882  70.488  1.00  0.00    -0.213 C  
BRANCH  38  41
HETATM   41  C   UNL     1     -10.369   8.375  72.371  1.00  0.00    -0.329 C  
HETATM   42  N   UNL     1     -11.580   7.944  72.814  1.00  0.00    -0.549 N  
HETATM   43  O   UNL     1      -9.424   8.407  73.157  1.00  0.00    -0.230 OA 
HETATM   44  H2  UNL     1     -12.387   7.897  72.192  1.00  0.00     0.000 HD 
HETATM   45  H1  UNL     1     -11.651   7.671  73.794  1.00  0.00     0.000 HD 
ENDBRANCH  38  41
ENDBRANCH  37  38
ENDBRANCH  34  37
ENDBRANCH  25  28
ENDBRANCH  21  25
ENDBRANCH  17  21
ENDBRANCH  11  15
ENDBRANCH   6   7
ENDBRANCH   5   6
ENDBRANCH   4   5
ENDBRANCH   3   4
ENDBRANCH   2   3
TORSDOF 13
ENDMDL
MODEL       37
REMARK 921   NORMALIZED FREE ENERGY PREDICTED BY IDOCK:   -5.24 KCAL/MOL
REMARK 922        TOTAL FREE ENERGY PREDICTED BY IDOCK:  -11.53 KCAL/MOL
REMARK 923 INTER-LIGAND FREE ENERGY PREDICTED BY IDOCK:   -9.00 KCAL/MOL
REMARK 924 INTRA-LIGAND FREE ENERGY PREDICTED BY IDOCK:   -2.53 KCAL/MOL
REMARK 927      BINDING AFFINITY PREDICTED BY RF-SCORE:    0.00 PKD
ROOT
HETATM    1  C   UNL     1     -10.351  19.739  66.163  1.00  0.00    -0.524 C  
HETATM    2  O   UNL     1     -10.115  18.362  65.907  1.00  0.00    -0.540 OA 
ENDROOT
BRANCH   2   3
HETATM    3  C   UNL     1     -10.378  17.571  67.064  1.00  0.00    -0.324 C  
BRANCH   3   4
HETATM    4  C   UNL     1      -9.298  16.508  67.215  1.00  0.00    -0.227 C  
BRANCH   4   5
HETATM    5  C   UNL     1      -9.276  15.482  66.082  1.00  0.00    -0.344 C  
BRANCH   5   6
HETATM    6  O   UNL     1     -10.245  14.465  66.320  1.00  0.00    -0.281 OA 
BRANCH   6   7
HETATM    7  C   UNL     1      -9.962  13.156  66.015  1.00  0.00    -0.280 A  
HETATM    8  C   UNL     1     -10.672  12.628  64.915  1.00  0.00    -0.299 A  
HETATM    9  C   UNL     1     -10.567  11.267  64.617  1.00  0.00    -0.392 A  
HETATM   10  C   UNL     1      -9.162  12.316  66.798  1.00  0.00    -0.210 A  
HETATM   11  C   UNL     1      -9.122  10.931  66.547  1.00  0.00    -0.183 A  
HETATM   12  C   UNL     1      -9.814  10.427  65.443  1.00  0.00    -0.347 A  
BRANCH   8  13
HETATM   13  O   UNL     1     -11.446  13.519  64.211  1.00  0.00    -0.376 OA 
HETATM   14  C   UNL     1     -12.315  12.999  63.215  1.00  0.00    -0.306 C  
ENDBRANCH   8  13
BRANCH  11  15
HETATM   15  C   UNL     1      -8.535   9.976  67.567  1.00  0.00    -0.118 C  
HETATM   16  C   UNL     1      -7.029  10.004  67.935  1.00  0.00    -0.084 C  
HETATM   17  C   UNL     1      -6.779   9.056  69.170  1.00  0.00    -0.050 C  
HETATM   18  C   UNL     1      -6.033   9.606  66.802  1.00  0.00    -0.059 C  
HETATM   19  C   UNL     1      -5.939  10.647  65.685  1.00  0.00    -0.128 C  
HETATM   20  C   UNL     1      -6.282   8.213  66.218  1.00  0.00    -0.046 C  
BRANCH  17  21
HETATM   21  C   UNL     1      -7.495   9.458  70.475  1.00  0.00    -0.145 C  
HETATM   22  N   UNL     1      -6.477  10.003  71.382  1.00  0.00    -0.311 NA 
HETATM   23  H1  UNL     1      -6.950  10.268  72.246  1.00  0.00     0.000 HD 
HETATM   24  H2  UNL     1      -5.943  10.768  70.969  1.00  0.00     0.000 HD 
BRANCH  21  25
HETATM   25  C   UNL     1      -8.311   8.287  71.143  1.00  0.00    -0.129 C  
HETATM   26  H   UNL     1      -9.571   8.028  72.653  1.00  0.00     0.000 HD 
HETATM   27  O   UNL     1      -9.079   8.734  72.251  1.00  0.00    -0.355 OA 
BRANCH  25  28
HETATM   28  C   UNL     1      -9.212   7.644  70.069  1.00  0.00    -0.151 C  
HETATM   29  C   UNL     1      -9.244   6.113  69.854  1.00  0.00    -0.156 C  
HETATM   30  C   UNL     1     -10.183   5.925  68.645  1.00  0.00    -0.192 C  
HETATM   31  C   UNL     1      -9.714   5.270  71.076  1.00  0.00    -0.242 C  
HETATM   32  C   UNL     1      -9.626   3.756  70.842  1.00  0.00    -0.256 C  
HETATM   33  O   UNL     1     -11.208   6.584  68.476  1.00  0.00    -0.285 OA 
HETATM   34  N   UNL     1      -9.801   4.946  67.755  1.00  0.00    -0.156 N  
HETATM   35  C   UNL     1     -11.110   5.655  71.579  1.00  0.00    -0.235 C  
HETATM   36  H   UNL     1      -8.997   4.355  67.966  1.00  0.00     0.000 HD 
BRANCH  34  37
HETATM   37  C   UNL     1     -10.533   4.750  66.517  1.00  0.00    -0.204 C  
BRANCH  37  38
HETATM   38  C   UNL     1      -9.711   4.056  65.419  1.00  0.00    -0.196 C  
HETATM   39  C   UNL     1      -9.229   2.679  65.925  1.00  0.00    -0.065 C  
HETATM   40  C   UNL     1     -10.553   3.861  64.146  1.00  0.00    -0.245 C  
BRANCH  38  41
HETATM   41  C   UNL     1      -8.480   4.915  65.099  1.00  0.00    -0.139 C  
HETATM   42  N   UNL     1      -8.600   5.831  64.102  1.00  0.00    -0.343 N  
HETATM   43  O   UNL     1      -7.411   4.822  65.698  1.00  0.00    -0.079 OA 
HETATM   44  H2  UNL     1      -9.473   5.943  63.586  1.00  0.00     0.000 HD 
HETATM   45  H1  UNL     1      -7.782   6.402  63.889  1.00  0.00     0.000 HD 
ENDBRANCH  38  41
ENDBRANCH  37  38
ENDBRANCH  34  37
ENDBRANCH  25  28
ENDBRANCH  21  25
ENDBRANCH  17  21
ENDBRANCH  11  15
ENDBRANCH   6   7
ENDBRANCH   5   6
ENDBRANCH   4   5
ENDBRANCH   3   4
ENDBRANCH   2   3
TORSDOF 13
ENDMDL
MODEL       38
REMARK 921   NORMALIZED FREE ENERGY PREDICTED BY IDOCK:   -5.23 KCAL/MOL
REMARK 922        TOTAL FREE ENERGY PREDICTED BY IDOCK:  -11.52 KCAL/MOL
REMARK 923 INTER-LIGAND FREE ENERGY PREDICTED BY IDOCK:   -9.59 KCAL/MOL
REMARK 924 INTRA-LIGAND FREE ENERGY PREDICTED BY IDOCK:   -1.92 KCAL/MOL
REMARK 927      BINDING AFFINITY PREDICTED BY RF-SCORE:    0.00 PKD
ROOT
HETATM    1  C   UNL     1     -10.633  18.905  66.025  1.00  0.00    -0.403 C  
HETATM    2  O   UNL     1     -10.693  17.705  65.267  1.00  0.00    -0.649 OA 
ENDROOT
BRANCH   2   3
HETATM    3  C   UNL     1     -10.085  16.623  65.971  1.00  0.00    -0.340 C  
BRANCH   3   4
HETATM    4  C   UNL     1     -10.450  15.305  65.300  1.00  0.00    -0.436 C  
BRANCH   4   5
HETATM    5  C   UNL     1     -10.599  14.135  66.271  1.00  0.00    -0.284 C  
BRANCH   5   6
HETATM    6  O   UNL     1     -11.670  14.380  67.178  1.00  0.00    -0.368 OA 
BRANCH   6   7
HETATM    7  C   UNL     1     -11.914  13.508  68.210  1.00  0.00    -0.342 A  
HETATM    8  C   UNL     1     -12.147  14.113  69.465  1.00  0.00    -0.340 A  
HETATM    9  C   UNL     1     -12.258  13.312  70.605  1.00  0.00    -0.417 A  
HETATM   10  C   UNL     1     -11.794  12.116  68.117  1.00  0.00    -0.362 A  
HETATM   11  C   UNL     1     -11.824  11.318  69.276  1.00  0.00    -0.423 A  
HETATM   12  C   UNL     1     -12.076  11.929  70.508  1.00  0.00    -0.422 A  
BRANCH   8  13
HETATM   13  O   UNL     1     -12.235  15.484  69.468  1.00  0.00    -0.327 OA 
HETATM   14  C   UNL     1     -11.585  16.186  70.518  1.00  0.00    -0.301 C  
ENDBRANCH   8  13
BRANCH  11  15
HETATM   15  C   UNL     1     -11.373   9.872  69.232  1.00  0.00    -0.116 C  
HETATM   16  C   UNL     1      -9.912   9.465  69.551  1.00  0.00    -0.200 C  
HETATM   17  C   UNL     1      -9.818   7.894  69.638  1.00  0.00    -0.179 C  
HETATM   18  C   UNL     1      -8.821   9.967  68.555  1.00  0.00    -0.120 C  
HETATM   19  C   UNL     1      -8.582  11.477  68.630  1.00  0.00    -0.109 C  
HETATM   20  C   UNL     1      -9.056   9.532  67.107  1.00  0.00    -0.152 C  
BRANCH  17  21
HETATM   21  C   UNL     1     -10.647   7.236  70.759  1.00  0.00    -0.223 C  
HETATM   22  N   UNL     1     -10.667   8.168  71.893  1.00  0.00    -0.247 NA 
HETATM   23  H1  UNL     1     -11.215   7.733  72.635  1.00  0.00     0.000 HD 
HETATM   24  H2  UNL     1     -11.005   9.097  71.640  1.00  0.00     0.000 HD 
BRANCH  21  25
HETATM   25  C   UNL     1     -10.132   5.808  71.180  1.00  0.00    -0.203 C  
HETATM   26  H   UNL     1     -10.703   4.308  72.346  1.00  0.00     0.000 HD 
HETATM   27  O   UNL     1     -11.014   5.169  72.092  1.00  0.00    -0.193 OA 
BRANCH  25  28
HETATM   28  C   UNL     1      -9.944   4.960  69.906  1.00  0.00    -0.317 C  
HETATM   29  C   UNL     1      -8.539   4.524  69.427  1.00  0.00    -0.105 C  
HETATM   30  C   UNL     1      -8.808   3.795  68.095  1.00  0.00    -0.113 C  
HETATM   31  C   UNL     1      -7.738   3.627  70.415  1.00  0.00    -0.047 C  
HETATM   32  C   UNL     1      -6.314   3.313  69.936  1.00  0.00    -0.028 C  
HETATM   33  O   UNL     1      -9.770   3.050  67.915  1.00  0.00    -0.136 OA 
HETATM   34  N   UNL     1      -7.879   4.027  67.104  1.00  0.00    -0.091 N  
HETATM   35  C   UNL     1      -8.472   2.337  70.797  1.00  0.00    -0.086 C  
HETATM   36  H   UNL     1      -7.045   4.576  67.310  1.00  0.00     0.000 HD 
BRANCH  34  37
HETATM   37  C   UNL     1      -8.081   3.494  65.769  1.00  0.00    -0.093 C  
BRANCH  37  38
HETATM   38  C   UNL     1      -8.534   4.551  64.747  1.00  0.00    -0.132 C  
HETATM   39  C   UNL     1      -8.514   5.949  65.403  1.00  0.00    -0.153 C  
HETATM   40  C   UNL     1      -7.609   4.556  63.519  1.00  0.00    -0.059 C  
BRANCH  38  41
HETATM   41  C   UNL     1      -9.972   4.238  64.312  1.00  0.00    -0.062 C  
HETATM   42  N   UNL     1     -10.960   4.447  65.224  1.00  0.00    -0.846 N  
HETATM   43  O   UNL     1     -10.271   3.823  63.195  1.00  0.00    -0.168 OA 
HETATM   44  H2  UNL     1     -10.753   4.797  66.160  1.00  0.00     0.000 HD 
HETATM   45  H1  UNL     1     -11.915   4.239  64.936  1.00  0.00     0.000 HD 
ENDBRANCH  38  41
ENDBRANCH  37  38
ENDBRANCH  34  37
ENDBRANCH  25  28
ENDBRANCH  21  25
ENDBRANCH  17  21
ENDBRANCH  11  15
ENDBRANCH   6   7
ENDBRANCH   5   6
ENDBRANCH   4   5
ENDBRANCH   3   4
ENDBRANCH   2   3
TORSDOF 13
ENDMDL
MODEL       39
REMARK 921   NORMALIZED FREE ENERGY PREDICTED BY IDOCK:   -5.18 KCAL/MOL
REMARK 922        TOTAL FREE ENERGY PREDICTED BY IDOCK:  -11.42 KCAL/MOL
REMARK 923 INTER-LIGAND FREE ENERGY PREDICTED BY IDOCK:  -10.20 KCAL/MOL
REMARK 924 INTRA-LIGAND FREE ENERGY PREDICTED BY IDOCK:   -1.22 KCAL/MOL
REMARK 927      BINDING AFFINITY PREDICTED BY RF-SCORE:    0.00 PKD
ROOT
HETATM    1  C   UNL     1     -14.381   7.860  71.642  1.00  0.00    -0.479 C  
HETATM    2  O   UNL     1     -13.999   9.211  71.421  1.00  0.00    -0.340 OA 
ENDROOT
BRANCH   2   3
HETATM    3  C   UNL     1     -12.971   9.609  72.327  1.00  0.00    -0.356 C  
BRANCH   3   4
HETATM    4  C   UNL     1     -11.619   9.142  71.804  1.00  0.00    -0.457 C  
BRANCH   4   5
HETATM    5  C   UNL     1     -10.931   8.112  72.699  1.00  0.00    -0.370 C  
BRANCH   5   6
HETATM    6  O   UNL     1     -10.050   7.300  71.928  1.00  0.00    -0.178 OA 
BRANCH   6   7
HETATM    7  C   UNL     1      -9.092   7.882  71.134  1.00  0.00    -0.143 A  
HETATM    8  C   UNL     1      -7.821   8.025  71.731  1.00  0.00    -0.110 A  
HETATM    9  C   UNL     1      -6.822   8.737  71.062  1.00  0.00    -0.074 A  
HETATM   10  C   UNL     1      -9.343   8.453  69.880  1.00  0.00    -0.155 A  
HETATM   11  C   UNL     1      -8.363   9.239  69.245  1.00  0.00    -0.124 A  
HETATM   12  C   UNL     1      -7.103   9.354  69.840  1.00  0.00    -0.075 A  
BRANCH   8  13
HETATM   13  O   UNL     1      -7.667   7.447  72.969  1.00  0.00    -0.084 OA 
HETATM   14  C   UNL     1      -7.342   8.297  74.060  1.00  0.00    -0.163 C  
ENDBRANCH   8  13
BRANCH  11  15
HETATM   15  C   UNL     1      -8.722  10.122  68.067  1.00  0.00    -0.122 C  
HETATM   16  C   UNL     1      -9.583   9.596  66.889  1.00  0.00    -0.217 C  
HETATM   17  C   UNL     1      -9.964  10.801  65.947  1.00  0.00    -0.304 C  
HETATM   18  C   UNL     1      -8.946   8.473  66.015  1.00  0.00    -0.228 C  
HETATM   19  C   UNL     1      -8.837   7.130  66.739  1.00  0.00    -0.137 C  
HETATM   20  C   UNL     1      -7.601   8.857  65.394  1.00  0.00    -0.087 C  
BRANCH  17  21
HETATM   21  C   UNL     1     -10.833  11.902  66.588  1.00  0.00    -0.276 C  
HETATM   22  N   UNL     1     -11.813  11.236  67.455  1.00  0.00    -0.604 NA 
HETATM   23  H1  UNL     1     -12.388  11.964  67.880  1.00  0.00     0.000 HD 
HETATM   24  H2  UNL     1     -11.382  10.618  68.143  1.00  0.00     0.000 HD 
BRANCH  21  25
HETATM   25  C   UNL     1     -11.524  12.860  65.546  1.00  0.00    -0.326 C  
HETATM   26  H   UNL     1     -13.326  13.602  65.178  1.00  0.00     0.000 HD 
HETATM   27  O   UNL     1     -12.910  13.025  65.807  1.00  0.00    -0.411 OA 
BRANCH  25  28
HETATM   28  C   UNL     1     -10.792  14.217  65.567  1.00  0.00    -0.312 C  
HETATM   29  C   UNL     1     -10.948  15.200  66.751  1.00  0.00    -0.321 C  
HETATM   30  C   UNL     1     -10.139  16.439  66.317  1.00  0.00    -0.331 C  
HETATM   31  C   UNL     1     -10.477  14.668  68.135  1.00  0.00    -0.237 C  
HETATM   32  C   UNL     1     -10.753  15.643  69.289  1.00  0.00    -0.239 C  
HETATM   33  O   UNL     1      -9.064  16.370  65.722  1.00  0.00    -0.465 OA 
HETATM   34  N   UNL     1     -10.701  17.651  66.654  1.00  0.00    -0.194 N  
HETATM   35  C   UNL     1      -9.011  14.223  68.149  1.00  0.00    -0.189 C  
HETATM   36  H   UNL     1     -11.545  17.677  67.225  1.00  0.00     0.000 HD 
BRANCH  34  37
HETATM   37  C   UNL     1     -10.098  18.892  66.200  1.00  0.00    -0.393 C  
BRANCH  37  38
HETATM   38  C   UNL     1      -9.374  19.666  67.314  1.00  0.00    -0.429 C  
HETATM   39  C   UNL     1      -9.779  21.155  67.258  1.00  0.00    -0.009 C  
HETATM   40  C   UNL     1      -9.730  19.097  68.697  1.00  0.00    -0.478 C  
BRANCH  38  41
HETATM   41  C   UNL     1      -7.859  19.565  67.086  1.00  0.00    -0.258 C  
HETATM   42  N   UNL     1      -7.092  19.193  68.145  1.00  0.00    -0.251 N  
HETATM   43  O   UNL     1      -7.316  19.792  66.007  1.00  0.00    -0.276 OA 
HETATM   44  H2  UNL     1      -7.505  18.990  69.055  1.00  0.00     0.000 HD 
HETATM   45  H1  UNL     1      -6.086  19.126  67.994  1.00  0.00     0.000 HD 
ENDBRANCH  38  41
ENDBRANCH  37  38
ENDBRANCH  34  37
ENDBRANCH  25  28
ENDBRANCH  21  25
ENDBRANCH  17  21
ENDBRANCH  11  15
ENDBRANCH   6   7
ENDBRANCH   5   6
ENDBRANCH   4   5
ENDBRANCH   3   4
ENDBRANCH   2   3
TORSDOF 13
ENDMDL
MODEL       40
REMARK 921   NORMALIZED FREE ENERGY PREDICTED BY IDOCK:   -5.14 KCAL/MOL
REMARK 922        TOTAL FREE ENERGY PREDICTED BY IDOCK:  -11.35 KCAL/MOL
REMARK 923 INTER-LIGAND FREE ENERGY PREDICTED BY IDOCK:   -8.45 KCAL/MOL
REMARK 924 INTRA-LIGAND FREE ENERGY PREDICTED BY IDOCK:   -2.90 KCAL/MOL
REMARK 927      BINDING AFFINITY PREDICTED BY RF-SCORE:    0.00 PKD
ROOT
HETATM    1  C   UNL     1     -10.188  17.802  66.846  1.00  0.00    -0.346 C  
HETATM    2  O   UNL     1      -9.742  16.534  66.386  1.00  0.00    -0.253 OA 
ENDROOT
BRANCH   2   3
HETATM    3  C   UNL     1      -9.539  15.635  67.474  1.00  0.00    -0.224 C  
BRANCH   3   4
HETATM    4  C   UNL     1      -8.779  14.407  66.990  1.00  0.00    -0.244 C  
BRANCH   4   5
HETATM    5  C   UNL     1      -7.595  14.021  67.876  1.00  0.00    -0.155 C  
BRANCH   5   6
HETATM    6  O   UNL     1      -7.047  12.777  67.451  1.00  0.00    -0.148 OA 
BRANCH   6   7
HETATM    7  C   UNL     1      -7.703  11.602  67.726  1.00  0.00    -0.126 A  
HETATM    8  C   UNL     1      -7.701  10.654  66.681  1.00  0.00    -0.132 A  
HETATM    9  C   UNL     1      -8.466   9.491  66.805  1.00  0.00    -0.129 A  
HETATM   10  C   UNL     1      -8.469  11.374  68.876  1.00  0.00    -0.028 A  
HETATM   11  C   UNL     1      -9.303  10.243  68.964  1.00  0.00    -0.195 A  
HETATM   12  C   UNL     1      -9.274   9.303  67.930  1.00  0.00    -0.140 A  
BRANCH   8  13
HETATM   13  O   UNL     1      -6.935  10.965  65.583  1.00  0.00    -0.069 OA 
HETATM   14  C   UNL     1      -6.386   9.891  64.833  1.00  0.00    -0.110 C  
ENDBRANCH   8  13
BRANCH  11  15
HETATM   15  C   UNL     1     -10.369  10.149  70.036  1.00  0.00    -0.301 C  
HETATM   16  C   UNL     1     -11.868  10.388  69.717  1.00  0.00    -0.278 C  
HETATM   17  C   UNL     1     -12.735  10.002  70.975  1.00  0.00    -0.455 C  
HETATM   18  C   UNL     1     -12.259  11.832  69.275  1.00  0.00    -0.202 C  
HETATM   19  C   UNL     1     -11.742  12.200  67.883  1.00  0.00    -0.403 C  
HETATM   20  C   UNL     1     -11.885  12.914  70.290  1.00  0.00    -0.291 C  
BRANCH  17  21
HETATM   21  C   UNL     1     -12.671   8.522  71.403  1.00  0.00    -0.271 C  
HETATM   22  N   UNL     1     -13.799   8.280  72.311  1.00  0.00    -0.562 NA 
HETATM   23  H1  UNL     1     -13.756   7.301  72.594  1.00  0.00     0.000 HD 
HETATM   24  H2  UNL     1     -14.699   8.540  71.907  1.00  0.00     0.000 HD 
BRANCH  21  25
HETATM   25  C   UNL     1     -11.296   8.102  72.047  1.00  0.00    -0.316 C  
HETATM   26  H   UNL     1     -10.566   7.670  73.840  1.00  0.00     0.000 HD 
HETATM   27  O   UNL     1     -11.396   7.923  73.452  1.00  0.00    -0.250 OA 
BRANCH  25  28
HETATM   28  C   UNL     1     -10.807   6.812  71.358  1.00  0.00    -0.269 C  
HETATM   29  C   UNL     1      -9.533   6.798  70.481  1.00  0.00    -0.171 C  
HETATM   30  C   UNL     1      -9.477   5.360  69.926  1.00  0.00    -0.159 C  
HETATM   31  C   UNL     1      -8.211   7.181  71.206  1.00  0.00    -0.108 C  
HETATM   32  C   UNL     1      -6.999   7.254  70.266  1.00  0.00    -0.060 C  
HETATM   33  O   UNL     1      -9.766   4.367  70.592  1.00  0.00    -0.182 OA 
HETATM   34  N   UNL     1      -9.063   5.254  68.617  1.00  0.00    -0.107 N  
HETATM   35  C   UNL     1      -7.899   6.290  72.413  1.00  0.00    -0.103 C  
HETATM   36  H   UNL     1      -8.743   6.084  68.118  1.00  0.00     0.000 HD 
BRANCH  34  37
HETATM   37  C   UNL     1      -9.079   3.969  67.942  1.00  0.00    -0.141 C  
BRANCH  37  38
HETATM   38  C   UNL     1      -9.071   4.080  66.408  1.00  0.00    -0.140 C  
HETATM   39  C   UNL     1      -7.679   4.547  65.929  1.00  0.00    -0.094 C  
HETATM   40  C   UNL     1      -9.400   2.724  65.760  1.00  0.00    -0.037 C  
BRANCH  38  41
HETATM   41  C   UNL     1     -10.110   5.125  65.979  1.00  0.00    -0.168 C  
HETATM   42  N   UNL     1     -11.180   4.685  65.264  1.00  0.00    -0.987 N  
HETATM   43  O   UNL     1     -10.027   6.320  66.253  1.00  0.00    -0.098 OA 
HETATM   44  H2  UNL     1     -11.289   3.700  65.023  1.00  0.00     0.000 HD 
HETATM   45  H1  UNL     1     -11.870   5.379  64.979  1.00  0.00     0.000 HD 
ENDBRANCH  38  41
ENDBRANCH  37  38
ENDBRANCH  34  37
ENDBRANCH  25  28
ENDBRANCH  21  25
ENDBRANCH  17  21
ENDBRANCH  11  15
ENDBRANCH   6   7
ENDBRANCH   5   6
ENDBRANCH   4   5
ENDBRANCH   3   4
ENDBRANCH   2   3
TORSDOF 13
ENDMDL
MODEL       41
REMARK 921   NORMALIZED FREE ENERGY PREDICTED BY IDOCK:   -5.12 KCAL/MOL
REMARK 922        TOTAL FREE ENERGY PREDICTED BY IDOCK:  -11.32 KCAL/MOL
REMARK 923 INTER-LIGAND FREE ENERGY PREDICTED BY IDOCK:   -9.29 KCAL/MOL
REMARK 924 INTRA-LIGAND FREE ENERGY PREDICTED BY IDOCK:   -2.04 KCAL/MOL
REMARK 927      BINDING AFFINITY PREDICTED BY RF-SCORE:    0.00 PKD
ROOT
HETATM    1  C   UNL     1     -12.025  14.324  66.605  1.00  0.00    -0.430 C  
HETATM    2  O   UNL     1     -12.928  14.026  65.550  1.00  0.00    -0.681 OA 
ENDROOT
BRANCH   2   3
HETATM    3  C   UNL     1     -12.305  14.194  64.277  1.00  0.00    -0.365 C  
BRANCH   3   4
HETATM    4  C   UNL     1     -12.105  12.834  63.621  1.00  0.00    -0.624 C  
BRANCH   4   5
HETATM    5  C   UNL     1     -10.640  12.422  63.483  1.00  0.00    -0.413 C  
BRANCH   5   6
HETATM    6  O   UNL     1      -9.922  12.750  64.668  1.00  0.00    -0.232 OA 
BRANCH   6   7
HETATM    7  C   UNL     1      -9.693  11.791  65.625  1.00  0.00    -0.233 A  
HETATM    8  C   UNL     1      -8.815  12.175  66.662  1.00  0.00    -0.182 A  
HETATM    9  C   UNL     1      -8.402  11.225  67.600  1.00  0.00    -0.123 A  
HETATM   10  C   UNL     1     -10.140  10.467  65.542  1.00  0.00    -0.349 A  
HETATM   11  C   UNL     1      -9.658   9.494  66.438  1.00  0.00    -0.273 A  
HETATM   12  C   UNL     1      -8.806   9.894  67.471  1.00  0.00    -0.131 A  
BRANCH   8  13
HETATM   13  O   UNL     1      -8.413  13.489  66.659  1.00  0.00    -0.038 OA 
HETATM   14  C   UNL     1      -8.410  14.183  67.898  1.00  0.00    -0.162 C  
ENDBRANCH   8  13
BRANCH  11  15
HETATM   15  C   UNL     1      -9.869   8.019  66.165  1.00  0.00    -0.057 C  
HETATM   16  C   UNL     1      -8.693   7.009  66.194  1.00  0.00    -0.155 C  
HETATM   17  C   UNL     1      -9.264   5.543  66.095  1.00  0.00    -0.166 C  
HETATM   18  C   UNL     1      -7.603   7.186  65.092  1.00  0.00    -0.102 C  
HETATM   19  C   UNL     1      -6.741   8.435  65.288  1.00  0.00    -0.056 C  
HETATM   20  C   UNL     1      -8.150   7.130  63.664  1.00  0.00     0.002 C  
BRANCH  17  21
HETATM   21  C   UNL     1     -10.171   5.100  67.260  1.00  0.00    -0.190 C  
HETATM   22  N   UNL     1     -11.252   6.086  67.374  1.00  0.00    -0.450 NA 
HETATM   23  H1  UNL     1     -11.852   5.793  68.145  1.00  0.00     0.000 HD 
HETATM   24  H2  UNL     1     -11.762   6.222  66.501  1.00  0.00     0.000 HD 
BRANCH  21  25
HETATM   25  C   UNL     1      -9.409   4.902  68.625  1.00  0.00    -0.135 C  
HETATM   26  H   UNL     1      -7.592   4.412  69.253  1.00  0.00     0.000 HD 
HETATM   27  O   UNL     1      -8.051   4.532  68.430  1.00  0.00    -0.082 OA 
BRANCH  25  28
HETATM   28  C   UNL     1      -9.514   6.207  69.439  1.00  0.00    -0.153 C  
HETATM   29  C   UNL     1     -10.422   6.309  70.687  1.00  0.00    -0.276 C  
HETATM   30  C   UNL     1     -10.300   7.785  71.119  1.00  0.00    -0.200 C  
HETATM   31  C   UNL     1     -10.071   5.343  71.856  1.00  0.00    -0.246 C  
HETATM   32  C   UNL     1     -11.065   5.412  73.023  1.00  0.00    -0.368 C  
HETATM   33  O   UNL     1      -9.244   8.414  71.082  1.00  0.00    -0.150 OA 
HETATM   34  N   UNL     1     -11.468   8.361  71.567  1.00  0.00    -0.264 N  
HETATM   35  C   UNL     1      -8.634   5.502  72.365  1.00  0.00    -0.118 C  
HETATM   36  H   UNL     1     -12.307   7.790  71.672  1.00  0.00     0.000 HD 
BRANCH  34  37
HETATM   37  C   UNL     1     -11.513   9.775  71.891  1.00  0.00     0.124 C  
BRANCH  37  38
HETATM   38  C   UNL     1     -12.564  10.557  71.085  1.00  0.00    -0.520 C  
HETATM   39  C   UNL     1     -13.732   9.621  70.709  1.00  0.00     0.119 C  
HETATM   40  C   UNL     1     -13.107  11.742  71.901  1.00  0.00    -0.482 C  
BRANCH  38  41
HETATM   41  C   UNL     1     -11.917  11.071  69.791  1.00  0.00    -0.356 C  
HETATM   42  N   UNL     1     -11.061  12.123  69.896  1.00  0.00    -0.447 N  
HETATM   43  O   UNL     1     -12.125  10.580  68.684  1.00  0.00    -0.324 OA 
HETATM   44  H2  UNL     1     -10.857  12.553  70.798  1.00  0.00     0.000 HD 
HETATM   45  H1  UNL     1     -10.631  12.465  69.037  1.00  0.00     0.000 HD 
ENDBRANCH  38  41
ENDBRANCH  37  38
ENDBRANCH  34  37
ENDBRANCH  25  28
ENDBRANCH  21  25
ENDBRANCH  17  21
ENDBRANCH  11  15
ENDBRANCH   6   7
ENDBRANCH   5   6
ENDBRANCH   4   5
ENDBRANCH   3   4
ENDBRANCH   2   3
TORSDOF 13
ENDMDL
MODEL       42
REMARK 921   NORMALIZED FREE ENERGY PREDICTED BY IDOCK:   -5.10 KCAL/MOL
REMARK 922        TOTAL FREE ENERGY PREDICTED BY IDOCK:  -11.29 KCAL/MOL
REMARK 923 INTER-LIGAND FREE ENERGY PREDICTED BY IDOCK:   -9.54 KCAL/MOL
REMARK 924 INTRA-LIGAND FREE ENERGY PREDICTED BY IDOCK:   -1.75 KCAL/MOL
REMARK 927      BINDING AFFINITY PREDICTED BY RF-SCORE:    0.00 PKD
ROOT
HETATM    1  C   UNL     1      -9.544   3.443  72.164  1.00  0.00    -0.138 C  
HETATM    2  O   UNL     1     -10.815   3.761  72.714  1.00  0.00    -0.120 OA 
ENDROOT
BRANCH   2   3
HETATM    3  C   UNL     1     -10.689   4.248  74.050  1.00  0.00    -0.254 C  
BRANCH   3   4
HETATM    4  C   UNL     1      -9.603   5.314  74.106  1.00  0.00    -0.147 C  
BRANCH   4   5
HETATM    5  C   UNL     1     -10.141   6.743  74.187  1.00  0.00    -0.350 C  
BRANCH   5   6
HETATM    6  O   UNL     1     -11.087   6.973  73.147  1.00  0.00    -0.279 OA 
BRANCH   6   7
HETATM    7  C   UNL     1     -10.839   7.920  72.184  1.00  0.00    -0.269 A  
HETATM    8  C   UNL     1     -11.857   8.881  72.009  1.00  0.00    -0.368 A  
HETATM    9  C   UNL     1     -11.768   9.795  70.956  1.00  0.00    -0.453 A  
HETATM   10  C   UNL     1      -9.750   7.887  71.303  1.00  0.00    -0.187 A  
HETATM   11  C   UNL     1      -9.703   8.754  70.195  1.00  0.00    -0.188 A  
HETATM   12  C   UNL     1     -10.708   9.713  70.048  1.00  0.00    -0.298 A  
BRANCH   8  13
HETATM   13  O   UNL     1     -12.896   8.832  72.908  1.00  0.00    -0.313 OA 
HETATM   14  C   UNL     1     -14.218   8.937  72.398  1.00  0.00    -0.374 C  
ENDBRANCH   8  13
BRANCH  11  15
HETATM   15  C   UNL     1      -8.720   8.515  69.067  1.00  0.00    -0.134 C  
HETATM   16  C   UNL     1      -9.174   7.947  67.698  1.00  0.00    -0.147 C  
HETATM   17  C   UNL     1      -7.974   8.026  66.679  1.00  0.00    -0.102 C  
HETATM   18  C   UNL     1      -9.718   6.485  67.702  1.00  0.00    -0.137 C  
HETATM   19  C   UNL     1     -11.079   6.347  68.387  1.00  0.00    -0.374 C  
HETATM   20  C   UNL     1      -8.730   5.457  68.259  1.00  0.00    -0.101 C  
BRANCH  17  21
HETATM   21  C   UNL     1      -7.469   9.445  66.350  1.00  0.00    -0.093 C  
HETATM   22  N   UNL     1      -6.960  10.028  67.597  1.00  0.00    -0.084 NA 
HETATM   23  H1  UNL     1      -6.626  10.967  67.380  1.00  0.00     0.000 HD 
HETATM   24  H2  UNL     1      -6.253   9.449  68.050  1.00  0.00     0.000 HD 
BRANCH  21  25
HETATM   25  C   UNL     1      -8.550  10.366  65.667  1.00  0.00    -0.167 C  
HETATM   26  H   UNL     1     -10.364  10.196  64.883  1.00  0.00     0.000 HD 
HETATM   27  O   UNL     1      -9.713   9.641  65.295  1.00  0.00    -0.300 OA 
BRANCH  25  28
HETATM   28  C   UNL     1      -8.900  11.512  66.638  1.00  0.00    -0.187 C  
HETATM   29  C   UNL     1      -9.360  12.895  66.121  1.00  0.00    -0.102 C  
HETATM   30  C   UNL     1      -9.504  13.744  67.401  1.00  0.00    -0.224 C  
HETATM   31  C   UNL     1     -10.672  12.901  65.283  1.00  0.00    -0.318 C  
HETATM   32  C   UNL     1     -11.023  14.280  64.708  1.00  0.00    -0.408 C  
HETATM   33  O   UNL     1      -9.964  13.305  68.454  1.00  0.00    -0.235 OA 
HETATM   34  N   UNL     1      -9.088  15.052  67.285  1.00  0.00    -0.193 N  
HETATM   35  C   UNL     1     -11.872  12.310  66.031  1.00  0.00    -0.409 C  
HETATM   36  H   UNL     1      -8.796  15.412  66.377  1.00  0.00     0.000 HD 
BRANCH  34  37
HETATM   37  C   UNL     1      -9.062  15.921  68.447  1.00  0.00    -0.189 C  
BRANCH  37  38
HETATM   38  C   UNL     1     -10.265  16.875  68.530  1.00  0.00    -0.310 C  
HETATM   39  C   UNL     1      -9.804  18.246  69.070  1.00  0.00    -0.270 C  
HETATM   40  C   UNL     1     -10.907  17.066  67.145  1.00  0.00    -0.082 C  
BRANCH  38  41
HETATM   41  C   UNL     1     -11.298  16.290  69.503  1.00  0.00    -0.276 C  
HETATM   42  N   UNL     1     -12.301  15.540  68.973  1.00  0.00    -0.611 N  
HETATM   43  O   UNL     1     -11.257  16.457  70.720  1.00  0.00    -0.350 OA 
HETATM   44  H2  UNL     1     -12.365  15.373  67.969  1.00  0.00     0.000 HD 
HETATM   45  H1  UNL     1     -12.987  15.152  69.620  1.00  0.00     0.000 HD 
ENDBRANCH  38  41
ENDBRANCH  37  38
ENDBRANCH  34  37
ENDBRANCH  25  28
ENDBRANCH  21  25
ENDBRANCH  17  21
ENDBRANCH  11  15
ENDBRANCH   6   7
ENDBRANCH   5   6
ENDBRANCH   4   5
ENDBRANCH   3   4
ENDBRANCH   2   3
TORSDOF 13
ENDMDL
MODEL       43
REMARK 921   NORMALIZED FREE ENERGY PREDICTED BY IDOCK:   -5.10 KCAL/MOL
REMARK 922        TOTAL FREE ENERGY PREDICTED BY IDOCK:  -11.29 KCAL/MOL
REMARK 923 INTER-LIGAND FREE ENERGY PREDICTED BY IDOCK:   -9.34 KCAL/MOL
REMARK 924 INTRA-LIGAND FREE ENERGY PREDICTED BY IDOCK:   -1.94 KCAL/MOL
REMARK 927      BINDING AFFINITY PREDICTED BY RF-SCORE:    0.00 PKD
ROOT
HETATM    1  C   UNL     1      -8.772   2.260  65.224  1.00  0.00    -0.118 C  
HETATM    2  O   UNL     1      -8.002   2.583  66.374  1.00  0.00    -0.079 OA 
ENDROOT
BRANCH   2   3
HETATM    3  C   UNL     1      -8.777   2.454  67.565  1.00  0.00    -0.117 C  
BRANCH   3   4
HETATM    4  C   UNL     1      -8.869   3.803  68.265  1.00  0.00    -0.147 C  
BRANCH   4   5
HETATM    5  C   UNL     1     -10.078   4.638  67.844  1.00  0.00    -0.021 C  
BRANCH   5   6
HETATM    6  O   UNL     1     -10.541   5.421  68.939  1.00  0.00    -0.202 OA 
BRANCH   6   7
HETATM    7  C   UNL     1     -10.203   6.750  69.032  1.00  0.00    -0.178 A  
HETATM    8  C   UNL     1     -10.565   7.379  70.242  1.00  0.00    -0.231 A  
HETATM    9  C   UNL     1     -10.400   8.761  70.375  1.00  0.00    -0.230 A  
HETATM   10  C   UNL     1      -9.685   7.510  67.976  1.00  0.00    -0.165 A  
HETATM   11  C   UNL     1      -9.596   8.911  68.082  1.00  0.00    -0.161 A  
HETATM   12  C   UNL     1      -9.939   9.517  69.294  1.00  0.00    -0.191 A  
BRANCH   8  13
HETATM   13  O   UNL     1     -11.081   6.561  71.219  1.00  0.00    -0.250 OA 
HETATM   14  C   UNL     1     -11.129   7.065  72.546  1.00  0.00    -0.274 C  
ENDBRANCH   8  13
BRANCH  11  15
HETATM   15  C   UNL     1      -9.353   9.766  66.856  1.00  0.00    -0.184 C  
HETATM   16  C   UNL     1      -8.263   9.405  65.815  1.00  0.00    -0.116 C  
HETATM   17  C   UNL     1      -8.409  10.349  64.561  1.00  0.00    -0.146 C  
HETATM   18  C   UNL     1      -6.785   9.472  66.309  1.00  0.00    -0.075 C  
HETATM   19  C   UNL     1      -6.427   8.363  67.301  1.00  0.00    -0.058 C  
HETATM   20  C   UNL     1      -6.378  10.839  66.863  1.00  0.00    -0.084 C  
BRANCH  17  21
HETATM   21  C   UNL     1      -9.733  10.223  63.780  1.00  0.00    -0.235 C  
HETATM   22  N   UNL     1      -9.433   9.537  62.518  1.00  0.00    -0.575 NA 
HETATM   23  H1  UNL     1     -10.308   9.454  62.001  1.00  0.00     0.000 HD 
HETATM   24  H2  UNL     1      -8.963   8.641  62.652  1.00  0.00     0.000 HD 
BRANCH  21  25
HETATM   25  C   UNL     1     -10.468  11.596  63.544  1.00  0.00    -0.443 C  
HETATM   26  H   UNL     1     -12.313  12.259  63.238  1.00  0.00     0.000 HD 
HETATM   27  O   UNL     1     -11.869  11.431  63.381  1.00  0.00    -0.247 OA 
BRANCH  25  28
HETATM   28  C   UNL     1     -10.156  12.530  64.730  1.00  0.00    -0.251 C  
HETATM   29  C   UNL     1     -10.447  14.047  64.661  1.00  0.00    -0.398 C  
HETATM   30  C   UNL     1      -9.900  14.594  65.997  1.00  0.00    -0.322 C  
HETATM   31  C   UNL     1     -11.939  14.439  64.454  1.00  0.00    -0.471 C  
HETATM   32  C   UNL     1     -12.155  15.949  64.288  1.00  0.00     0.098 C  
HETATM   33  O   UNL     1     -10.016  14.000  67.068  1.00  0.00    -0.248 OA 
HETATM   34  N   UNL     1      -9.271  15.816  65.914  1.00  0.00    -0.333 N  
HETATM   35  C   UNL     1     -12.870  13.880  65.536  1.00  0.00    -0.471 C  
HETATM   36  H   UNL     1      -9.269  16.326  65.031  1.00  0.00     0.000 HD 
BRANCH  34  37
HETATM   37  C   UNL     1      -8.611  16.384  67.075  1.00  0.00    -0.196 C  
BRANCH  37  38
HETATM   38  C   UNL     1      -8.542  17.920  67.055  1.00  0.00    -0.248 C  
HETATM   39  C   UNL     1      -8.117  18.439  68.445  1.00  0.00    -0.327 C  
HETATM   40  C   UNL     1      -7.533  18.408  66.002  1.00  0.00    -0.256 C  
BRANCH  38  41
HETATM   41  C   UNL     1      -9.936  18.476  66.733  1.00  0.00    -0.360 C  
HETATM   42  N   UNL     1     -10.656  18.991  67.766  1.00  0.00    -0.421 N  
HETATM   43  O   UNL     1     -10.422  18.486  65.605  1.00  0.00    -0.615 OA 
HETATM   44  H2  UNL     1     -10.285  19.008  68.716  1.00  0.00     0.000 HD 
HETATM   45  H1  UNL     1     -11.582  19.361  67.553  1.00  0.00     0.000 HD 
ENDBRANCH  38  41
ENDBRANCH  37  38
ENDBRANCH  34  37
ENDBRANCH  25  28
ENDBRANCH  21  25
ENDBRANCH  17  21
ENDBRANCH  11  15
ENDBRANCH   6   7
ENDBRANCH   5   6
ENDBRANCH   4   5
ENDBRANCH   3   4
ENDBRANCH   2   3
TORSDOF 13
ENDMDL
MODEL       44
REMARK 921   NORMALIZED FREE ENERGY PREDICTED BY IDOCK:   -5.10 KCAL/MOL
REMARK 922        TOTAL FREE ENERGY PREDICTED BY IDOCK:  -11.28 KCAL/MOL
REMARK 923 INTER-LIGAND FREE ENERGY PREDICTED BY IDOCK:   -9.49 KCAL/MOL
REMARK 924 INTRA-LIGAND FREE ENERGY PREDICTED BY IDOCK:   -1.79 KCAL/MOL
REMARK 927      BINDING AFFINITY PREDICTED BY RF-SCORE:    0.00 PKD
ROOT
HETATM    1  C   UNL     1      -6.870  10.211  64.554  1.00  0.00    -0.113 C  
HETATM    2  O   UNL     1      -7.823  10.513  63.545  1.00  0.00    -0.118 OA 
ENDROOT
BRANCH   2   3
HETATM    3  C   UNL     1      -8.355   9.321  62.968  1.00  0.00    -0.195 C  
BRANCH   3   4
HETATM    4  C   UNL     1      -7.319   8.208  63.046  1.00  0.00    -0.102 C  
BRANCH   4   5
HETATM    5  C   UNL     1      -7.869   6.886  63.580  1.00  0.00    -0.107 C  
BRANCH   5   6
HETATM    6  O   UNL     1      -7.609   6.772  64.976  1.00  0.00    -0.086 OA 
BRANCH   6   7
HETATM    7  C   UNL     1      -8.643   6.826  65.878  1.00  0.00    -0.147 A  
HETATM    8  C   UNL     1      -9.407   5.645  65.989  1.00  0.00    -0.134 A  
HETATM    9  C   UNL     1     -10.568   5.646  66.767  1.00  0.00    -0.372 A  
HETATM   10  C   UNL     1      -9.053   7.988  66.544  1.00  0.00    -0.213 A  
HETATM   11  C   UNL     1     -10.266   8.011  67.259  1.00  0.00    -0.345 A  
HETATM   12  C   UNL     1     -11.000   6.827  67.377  1.00  0.00    -0.407 A  
BRANCH   8  13
HETATM   13  O   UNL     1      -8.942   4.556  65.290  1.00  0.00    -0.133 OA 
HETATM   14  C   UNL     1      -9.892   3.764  64.591  1.00  0.00    -0.190 C  
ENDBRANCH   8  13
BRANCH  11  15
HETATM   15  C   UNL     1     -10.879   9.324  67.701  1.00  0.00    -0.188 C  
HETATM   16  C   UNL     1     -10.164  10.256  68.713  1.00  0.00    -0.205 C  
HETATM   17  C   UNL     1     -10.939  11.626  68.794  1.00  0.00    -0.274 C  
HETATM   18  C   UNL     1      -9.993   9.703  70.162  1.00  0.00    -0.309 C  
HETATM   19  C   UNL     1      -8.979   8.561  70.258  1.00  0.00    -0.153 C  
HETATM   20  C   UNL     1     -11.310   9.309  70.835  1.00  0.00    -0.373 C  
BRANCH  17  21
HETATM   21  C   UNL     1     -10.984  12.447  67.490  1.00  0.00    -0.252 C  
HETATM   22  N   UNL     1     -12.016  11.851  66.633  1.00  0.00    -0.564 NA 
HETATM   23  H1  UNL     1     -12.045  12.394  65.770  1.00  0.00     0.000 HD 
HETATM   24  H2  UNL     1     -12.924  11.782  67.091  1.00  0.00     0.000 HD 
BRANCH  21  25
HETATM   25  C   UNL     1      -9.595  12.552  66.753  1.00  0.00    -0.231 C  
HETATM   26  H   UNL     1      -8.895  12.556  64.897  1.00  0.00     0.000 HD 
HETATM   27  O   UNL     1      -9.733  12.493  65.341  1.00  0.00    -0.202 OA 
BRANCH  25  28
HETATM   28  C   UNL     1      -8.908  13.863  67.188  1.00  0.00    -0.236 C  
HETATM   29  C   UNL     1      -9.145  15.189  66.427  1.00  0.00    -0.331 C  
HETATM   30  C   UNL     1      -8.208  16.194  67.127  1.00  0.00    -0.196 C  
HETATM   31  C   UNL     1     -10.615  15.701  66.406  1.00  0.00    -0.308 C  
HETATM   32  C   UNL     1     -10.810  16.960  65.551  1.00  0.00    -0.101 C  
HETATM   33  O   UNL     1      -8.027  16.215  68.343  1.00  0.00    -0.150 OA 
HETATM   34  N   UNL     1      -7.582  17.090  66.289  1.00  0.00    -0.307 N  
HETATM   35  C   UNL     1     -11.207  15.906  67.805  1.00  0.00    -0.258 C  
HETATM   36  H   UNL     1      -7.820  17.108  65.297  1.00  0.00     0.000 HD 
BRANCH  34  37
HETATM   37  C   UNL     1      -6.586  18.011  66.808  1.00  0.00    -0.188 C  
BRANCH  37  38
HETATM   38  C   UNL     1      -6.944  19.490  66.592  1.00  0.00    -0.216 C  
HETATM   39  C   UNL     1      -6.052  20.376  67.489  1.00  0.00    -0.257 C  
HETATM   40  C   UNL     1      -6.741  19.893  65.121  1.00  0.00    -0.308 C  
BRANCH  38  41
HETATM   41  C   UNL     1      -8.409  19.712  66.992  1.00  0.00    -0.294 C  
HETATM   42  N   UNL     1      -9.235  20.260  66.061  1.00  0.00    -0.616 N  
HETATM   43  O   UNL     1      -8.867  19.414  68.094  1.00  0.00    -0.312 OA 
HETATM   44  H2  UNL     1      -8.895  20.514  65.134  1.00  0.00     0.000 HD 
HETATM   45  H1  UNL     1     -10.208  20.408  66.328  1.00  0.00     0.000 HD 
ENDBRANCH  38  41
ENDBRANCH  37  38
ENDBRANCH  34  37
ENDBRANCH  25  28
ENDBRANCH  21  25
ENDBRANCH  17  21
ENDBRANCH  11  15
ENDBRANCH   6   7
ENDBRANCH   5   6
ENDBRANCH   4   5
ENDBRANCH   3   4
ENDBRANCH   2   3
TORSDOF 13
ENDMDL
MODEL       45
REMARK 921   NORMALIZED FREE ENERGY PREDICTED BY IDOCK:   -5.08 KCAL/MOL
REMARK 922        TOTAL FREE ENERGY PREDICTED BY IDOCK:  -11.26 KCAL/MOL
REMARK 923 INTER-LIGAND FREE ENERGY PREDICTED BY IDOCK:   -9.09 KCAL/MOL
REMARK 924 INTRA-LIGAND FREE ENERGY PREDICTED BY IDOCK:   -2.17 KCAL/MOL
REMARK 927      BINDING AFFINITY PREDICTED BY RF-SCORE:    0.00 PKD
ROOT
HETATM    1  C   UNL     1     -10.619   3.048  63.459  1.00  0.00    -0.237 C  
HETATM    2  O   UNL     1      -9.652   3.975  63.931  1.00  0.00    -0.151 OA 
ENDROOT
BRANCH   2   3
HETATM    3  C   UNL     1      -9.708   4.097  65.351  1.00  0.00    -0.201 C  
BRANCH   3   4
HETATM    4  C   UNL     1     -10.923   4.925  65.747  1.00  0.00    -0.006 C  
BRANCH   4   5
HETATM    5  C   UNL     1     -10.738   5.719  67.039  1.00  0.00    -0.289 C  
BRANCH   5   6
HETATM    6  O   UNL     1      -9.568   6.527  66.958  1.00  0.00    -0.134 OA 
BRANCH   6   7
HETATM    7  C   UNL     1      -9.628   7.775  66.386  1.00  0.00    -0.165 A  
HETATM    8  C   UNL     1      -8.657   8.028  65.394  1.00  0.00    -0.114 A  
HETATM    9  C   UNL     1      -8.539   9.314  64.859  1.00  0.00    -0.204 A  
HETATM   10  C   UNL     1     -10.462   8.809  66.828  1.00  0.00    -0.283 A  
HETATM   11  C   UNL     1     -10.287  10.121  66.349  1.00  0.00    -0.258 A  
HETATM   12  C   UNL     1      -9.335  10.352  65.352  1.00  0.00    -0.252 A  
BRANCH   8  13
HETATM   13  O   UNL     1      -7.870   6.961  65.030  1.00  0.00    -0.108 OA 
HETATM   14  C   UNL     1      -7.563   6.804  63.652  1.00  0.00    -0.097 C  
ENDBRANCH   8  13
BRANCH  11  15
HETATM   15  C   UNL     1     -10.946  11.294  67.045  1.00  0.00    -0.352 C  
HETATM   16  C   UNL     1     -10.308  11.965  68.289  1.00  0.00    -0.211 C  
HETATM   17  C   UNL     1     -11.109  13.277  68.638  1.00  0.00    -0.301 C  
HETATM   18  C   UNL     1     -10.216  11.090  69.577  1.00  0.00    -0.032 C  
HETATM   19  C   UNL     1      -9.192   9.958  69.468  1.00  0.00    -0.238 C  
HETATM   20  C   UNL     1     -11.565  10.548  70.056  1.00  0.00    -0.392 C  
BRANCH  17  21
HETATM   21  C   UNL     1     -11.087  14.380  67.561  1.00  0.00    -0.302 C  
HETATM   22  N   UNL     1     -12.469  14.572  67.104  1.00  0.00    -0.482 NA 
HETATM   23  H1  UNL     1     -12.455  15.301  66.391  1.00  0.00     0.000 HD 
HETATM   24  H2  UNL     1     -13.117  14.771  67.865  1.00  0.00     0.000 HD 
BRANCH  21  25
HETATM   25  C   UNL     1     -10.106  14.085  66.364  1.00  0.00    -0.294 C  
HETATM   26  H   UNL     1     -10.164  14.002  64.383  1.00  0.00     0.000 HD 
HETATM   27  O   UNL     1     -10.755  14.180  65.105  1.00  0.00    -0.340 OA 
BRANCH  25  28
HETATM   28  C   UNL     1      -8.920  15.067  66.450  1.00  0.00    -0.286 C  
HETATM   29  C   UNL     1      -8.171  15.312  67.781  1.00  0.00    -0.157 C  
HETATM   30  C   UNL     1      -7.147  16.414  67.436  1.00  0.00    -0.159 C  
HETATM   31  C   UNL     1      -7.477  14.066  68.404  1.00  0.00    -0.119 C  
HETATM   32  C   UNL     1      -6.840  14.343  69.773  1.00  0.00    -0.095 C  
HETATM   33  O   UNL     1      -6.528  16.452  66.374  1.00  0.00    -0.177 OA 
HETATM   34  N   UNL     1      -6.959  17.364  68.415  1.00  0.00    -0.193 N  
HETATM   35  C   UNL     1      -6.463  13.402  67.466  1.00  0.00    -0.129 C  
HETATM   36  H   UNL     1      -7.417  17.256  69.320  1.00  0.00     0.000 HD 
BRANCH  34  37
HETATM   37  C   UNL     1      -6.112  18.517  68.168  1.00  0.00    -0.193 C  
BRANCH  37  38
HETATM   38  C   UNL     1      -6.780  19.857  68.519  1.00  0.00    -0.338 C  
HETATM   39  C   UNL     1      -6.705  20.091  70.043  1.00  0.00    -0.217 C  
HETATM   40  C   UNL     1      -6.084  21.021  67.793  1.00  0.00    -0.410 C  
BRANCH  38  41
HETATM   41  C   UNL     1      -8.258  19.799  68.108  1.00  0.00    -0.289 C  
HETATM   42  N   UNL     1      -8.623  20.484  66.991  1.00  0.00    -0.526 N  
HETATM   43  O   UNL     1      -9.112  19.166  68.725  1.00  0.00    -0.363 OA 
HETATM   44  H2  UNL     1      -7.942  21.015  66.448  1.00  0.00     0.000 HD 
HETATM   45  H1  UNL     1      -9.604  20.446  66.718  1.00  0.00     0.000 HD 
ENDBRANCH  38  41
ENDBRANCH  37  38
ENDBRANCH  34  37
ENDBRANCH  25  28
ENDBRANCH  21  25
ENDBRANCH  17  21
ENDBRANCH  11  15
ENDBRANCH   6   7
ENDBRANCH   5   6
ENDBRANCH   4   5
ENDBRANCH   3   4
ENDBRANCH   2   3
TORSDOF 13
ENDMDL
MODEL       46
REMARK 921   NORMALIZED FREE ENERGY PREDICTED BY IDOCK:   -5.05 KCAL/MOL
REMARK 922        TOTAL FREE ENERGY PREDICTED BY IDOCK:  -11.20 KCAL/MOL
REMARK 923 INTER-LIGAND FREE ENERGY PREDICTED BY IDOCK:   -8.95 KCAL/MOL
REMARK 924 INTRA-LIGAND FREE ENERGY PREDICTED BY IDOCK:   -2.25 KCAL/MOL
REMARK 927      BINDING AFFINITY PREDICTED BY RF-SCORE:    0.00 PKD
ROOT
HETATM    1  C   UNL     1     -10.519  19.791  65.929  1.00  0.00    -0.486 C  
HETATM    2  O   UNL     1      -9.688  18.639  65.934  1.00  0.00    -0.498 OA 
ENDROOT
BRANCH   2   3
HETATM    3  C   UNL     1     -10.264  17.593  66.716  1.00  0.00    -0.335 C  
BRANCH   3   4
HETATM    4  C   UNL     1     -10.459  16.355  65.851  1.00  0.00    -0.350 C  
BRANCH   4   5
HETATM    5  C   UNL     1     -10.358  15.039  66.622  1.00  0.00    -0.278 C  
BRANCH   5   6
HETATM    6  O   UNL     1     -11.641  14.650  67.103  1.00  0.00    -0.363 OA 
BRANCH   6   7
HETATM    7  C   UNL     1     -11.781  13.509  67.854  1.00  0.00    -0.357 A  
HETATM    8  C   UNL     1     -12.035  13.719  69.226  1.00  0.00    -0.352 A  
HETATM    9  C   UNL     1     -12.045  12.629  70.100  1.00  0.00    -0.368 A  
HETATM   10  C   UNL     1     -11.541  12.214  67.378  1.00  0.00    -0.410 A  
HETATM   11  C   UNL     1     -11.470  11.128  68.271  1.00  0.00    -0.373 A  
HETATM   12  C   UNL     1     -11.744  11.349  69.624  1.00  0.00    -0.415 A  
BRANCH   8  13
HETATM   13  O   UNL     1     -12.244  15.023  69.609  1.00  0.00    -0.300 OA 
HETATM   14  C   UNL     1     -12.699  15.258  70.934  1.00  0.00    -0.435 C  
ENDBRANCH   8  13
BRANCH  11  15
HETATM   15  C   UNL     1     -10.895   9.798  67.828  1.00  0.00    -0.306 C  
HETATM   16  C   UNL     1      -9.525   9.291  68.347  1.00  0.00    -0.145 C  
HETATM   17  C   UNL     1      -9.314   7.799  67.884  1.00  0.00    -0.148 C  
HETATM   18  C   UNL     1      -8.273  10.118  67.920  1.00  0.00    -0.109 C  
HETATM   19  C   UNL     1      -8.196  11.490  68.592  1.00  0.00    -0.124 C  
HETATM   20  C   UNL     1      -8.107  10.253  66.404  1.00  0.00    -0.123 C  
BRANCH  17  21
HETATM   21  C   UNL     1     -10.329   6.778  68.437  1.00  0.00    -0.191 C  
HETATM   22  N   UNL     1     -11.406   6.652  67.447  1.00  0.00    -0.763 NA 
HETATM   23  H1  UNL     1     -12.078   5.977  67.812  1.00  0.00     0.000 HD 
HETATM   24  H2  UNL     1     -11.066   6.412  66.515  1.00  0.00     0.000 HD 
BRANCH  21  25
HETATM   25  C   UNL     1     -10.883   7.137  69.867  1.00  0.00    -0.254 C  
HETATM   26  H   UNL     1     -12.605   7.077  70.850  1.00  0.00     0.000 HD 
HETATM   27  O   UNL     1     -12.271   6.860  69.988  1.00  0.00    -0.118 OA 
BRANCH  25  28
HETATM   28  C   UNL     1     -10.070   6.355  70.918  1.00  0.00    -0.218 C  
HETATM   29  C   UNL     1      -8.603   6.724  71.241  1.00  0.00    -0.125 C  
HETATM   30  C   UNL     1      -8.160   5.646  72.252  1.00  0.00    -0.108 C  
HETATM   31  C   UNL     1      -8.376   8.158  71.803  1.00  0.00    -0.181 C  
HETATM   32  C   UNL     1      -6.895   8.507  72.005  1.00  0.00    -0.096 C  
HETATM   33  O   UNL     1      -8.890   5.216  73.144  1.00  0.00    -0.116 OA 
HETATM   34  N   UNL     1      -6.868   5.194  72.095  1.00  0.00    -0.062 N  
HETATM   35  C   UNL     1      -9.174   8.443  73.080  1.00  0.00    -0.256 C  
HETATM   36  H   UNL     1      -6.258   5.633  71.406  1.00  0.00     0.000 HD 
BRANCH  34  37
HETATM   37  C   UNL     1      -6.370   4.098  72.906  1.00  0.00    -0.021 C  
BRANCH  37  38
HETATM   38  C   UNL     1      -6.263   2.768  72.143  1.00  0.00    -0.014 C  
HETATM   39  C   UNL     1      -5.945   3.046  70.658  1.00  0.00    -0.018 C  
HETATM   40  C   UNL     1      -5.156   1.882  72.740  1.00  0.00     0.000 C  
BRANCH  38  41
HETATM   41  C   UNL     1      -7.611   2.038  72.223  1.00  0.00    -0.044 C  
HETATM   42  N   UNL     1      -8.344   1.954  71.081  1.00  0.00    -0.049 N  
HETATM   43  O   UNL     1      -8.049   1.527  73.251  1.00  0.00    -0.043 OA 
HETATM   44  H2  UNL     1      -8.012   2.359  70.206  1.00  0.00     0.000 HD 
HETATM   45  H1  UNL     1      -9.240   1.470  71.134  1.00  0.00     0.000 HD 
ENDBRANCH  38  41
ENDBRANCH  37  38
ENDBRANCH  34  37
ENDBRANCH  25  28
ENDBRANCH  21  25
ENDBRANCH  17  21
ENDBRANCH  11  15
ENDBRANCH   6   7
ENDBRANCH   5   6
ENDBRANCH   4   5
ENDBRANCH   3   4
ENDBRANCH   2   3
TORSDOF 13
ENDMDL
MODEL       47
REMARK 921   NORMALIZED FREE ENERGY PREDICTED BY IDOCK:   -5.04 KCAL/MOL
REMARK 922        TOTAL FREE ENERGY PREDICTED BY IDOCK:  -11.19 KCAL/MOL
REMARK 923 INTER-LIGAND FREE ENERGY PREDICTED BY IDOCK:   -9.57 KCAL/MOL
REMARK 924 INTRA-LIGAND FREE ENERGY PREDICTED BY IDOCK:   -1.62 KCAL/MOL
REMARK 927      BINDING AFFINITY PREDICTED BY RF-SCORE:    0.00 PKD
ROOT
HETATM    1  C   UNL     1      -6.283  19.000  65.106  1.00  0.00    -0.285 C  
HETATM    2  O   UNL     1      -5.384  18.593  66.128  1.00  0.00    -0.138 OA 
ENDROOT
BRANCH   2   3
HETATM    3  C   UNL     1      -5.969  17.589  66.957  1.00  0.00    -0.146 C  
BRANCH   3   4
HETATM    4  C   UNL     1      -6.951  18.233  67.926  1.00  0.00    -0.211 C  
BRANCH   4   5
HETATM    5  C   UNL     1      -7.824  17.232  68.681  1.00  0.00    -0.272 C  
BRANCH   5   6
HETATM    6  O   UNL     1      -9.176  17.327  68.241  1.00  0.00    -0.249 OA 
BRANCH   6   7
HETATM    7  C   UNL     1      -9.707  16.357  67.425  1.00  0.00    -0.238 A  
HETATM    8  C   UNL     1     -10.043  16.786  66.123  1.00  0.00    -0.345 A  
HETATM    9  C   UNL     1     -10.725  15.916  65.267  1.00  0.00    -0.442 A  
HETATM   10  C   UNL     1     -10.059  15.071  67.851  1.00  0.00    -0.226 A  
HETATM   11  C   UNL     1     -10.818  14.227  67.017  1.00  0.00    -0.297 A  
HETATM   12  C   UNL     1     -11.125  14.657  65.724  1.00  0.00    -0.331 A  
BRANCH   8  13
HETATM   13  O   UNL     1      -9.674  18.068  65.794  1.00  0.00    -0.521 OA 
HETATM   14  C   UNL     1     -10.705  19.028  65.612  1.00  0.00    -0.182 C  
ENDBRANCH   8  13
BRANCH  11  15
HETATM   15  C   UNL     1     -11.480  12.983  67.573  1.00  0.00    -0.375 C  
HETATM   16  C   UNL     1     -10.665  11.884  68.302  1.00  0.00    -0.253 C  
HETATM   17  C   UNL     1     -11.657  10.844  68.949  1.00  0.00    -0.378 C  
HETATM   18  C   UNL     1      -9.630  11.101  67.437  1.00  0.00    -0.183 C  
HETATM   19  C   UNL     1      -8.422  11.944  67.026  1.00  0.00    -0.177 C  
HETATM   20  C   UNL     1     -10.241  10.408  66.216  1.00  0.00    -0.286 C  
BRANCH  17  21
HETATM   21  C   UNL     1     -12.595  11.404  70.038  1.00  0.00    -0.059 C  
HETATM   22  N   UNL     1     -12.010  12.663  70.515  1.00  0.00    -0.533 NA 
HETATM   23  H1  UNL     1     -12.630  13.033  71.235  1.00  0.00     0.000 HD 
HETATM   24  H2  UNL     1     -11.829  13.329  69.764  1.00  0.00     0.000 HD 
BRANCH  21  25
HETATM   25  C   UNL     1     -12.876  10.400  71.219  1.00  0.00    -0.433 C  
HETATM   26  H   UNL     1     -13.957   8.772  71.558  1.00  0.00     0.000 HD 
HETATM   27  O   UNL     1     -13.787   9.377  70.846  1.00  0.00    -0.146 OA 
BRANCH  25  28
HETATM   28  C   UNL     1     -11.532   9.802  71.682  1.00  0.00    -0.294 C  
HETATM   29  C   UNL     1     -11.368   8.284  71.930  1.00  0.00    -0.372 C  
HETATM   30  C   UNL     1      -9.926   8.146  72.463  1.00  0.00    -0.302 C  
HETATM   31  C   UNL     1     -11.607   7.369  70.694  1.00  0.00    -0.295 C  
HETATM   32  C   UNL     1     -11.535   5.871  71.022  1.00  0.00    -0.139 C  
HETATM   33  O   UNL     1      -8.979   8.797  72.024  1.00  0.00    -0.304 OA 
HETATM   34  N   UNL     1      -9.762   7.224  73.472  1.00  0.00    -0.241 N  
HETATM   35  C   UNL     1     -10.699   7.702  69.506  1.00  0.00    -0.211 C  
HETATM   36  H   UNL     1     -10.546   6.635  73.753  1.00  0.00     0.000 HD 
BRANCH  34  37
HETATM   37  C   UNL     1      -8.480   7.084  74.139  1.00  0.00    -0.157 C  
BRANCH  37  38
HETATM   38  C   UNL     1      -7.814   5.717  73.910  1.00  0.00    -0.099 C  
HETATM   39  C   UNL     1      -6.392   5.726  74.513  1.00  0.00    -0.070 C  
HETATM   40  C   UNL     1      -8.634   4.592  74.564  1.00  0.00    -0.105 C  
BRANCH  38  41
HETATM   41  C   UNL     1      -7.700   5.466  72.400  1.00  0.00    -0.102 C  
HETATM   42  N   UNL     1      -7.005   6.376  71.666  1.00  0.00    -0.071 N  
HETATM   43  O   UNL     1      -8.191   4.493  71.832  1.00  0.00    -0.099 OA 
HETATM   44  H2  UNL     1      -6.576   7.193  72.102  1.00  0.00     0.000 HD 
HETATM   45  H1  UNL     1      -6.929   6.209  70.663  1.00  0.00     0.000 HD 
ENDBRANCH  38  41
ENDBRANCH  37  38
ENDBRANCH  34  37
ENDBRANCH  25  28
ENDBRANCH  21  25
ENDBRANCH  17  21
ENDBRANCH  11  15
ENDBRANCH   6   7
ENDBRANCH   5   6
ENDBRANCH   4   5
ENDBRANCH   3   4
ENDBRANCH   2   3
TORSDOF 13
ENDMDL
MODEL       48
REMARK 921   NORMALIZED FREE ENERGY PREDICTED BY IDOCK:   -5.01 KCAL/MOL
REMARK 922        TOTAL FREE ENERGY PREDICTED BY IDOCK:  -11.13 KCAL/MOL
REMARK 923 INTER-LIGAND FREE ENERGY PREDICTED BY IDOCK:   -9.05 KCAL/MOL
REMARK 924 INTRA-LIGAND FREE ENERGY PREDICTED BY IDOCK:   -2.09 KCAL/MOL
REMARK 927      BINDING AFFINITY PREDICTED BY RF-SCORE:    0.00 PKD
ROOT
HETATM    1  C   UNL     1     -12.729  14.443  65.378  1.00  0.00    -0.285 C  
HETATM    2  O   UNL     1     -12.959  13.325  64.532  1.00  0.00    -0.670 OA 
ENDROOT
BRANCH   2   3
HETATM    3  C   UNL     1     -11.939  13.212  63.541  1.00  0.00    -0.513 C  
BRANCH   3   4
HETATM    4  C   UNL     1     -11.484  11.763  63.436  1.00  0.00    -0.424 C  
BRANCH   4   5
HETATM    5  C   UNL     1      -9.965  11.588  63.445  1.00  0.00    -0.417 C  
BRANCH   5   6
HETATM    6  O   UNL     1      -9.477  11.591  64.784  1.00  0.00    -0.199 OA 
BRANCH   6   7
HETATM    7  C   UNL     1      -9.822  10.580  65.647  1.00  0.00    -0.252 A  
HETATM    8  C   UNL     1     -10.392  11.001  66.868  1.00  0.00    -0.235 A  
HETATM    9  C   UNL     1     -10.640  10.061  67.872  1.00  0.00    -0.298 A  
HETATM   10  C   UNL     1      -9.508   9.230  65.452  1.00  0.00    -0.281 A  
HETATM   11  C   UNL     1      -9.681   8.299  66.494  1.00  0.00    -0.323 A  
HETATM   12  C   UNL     1     -10.265   8.727  67.689  1.00  0.00    -0.298 A  
BRANCH   8  13
HETATM   13  O   UNL     1     -10.654  12.345  66.982  1.00  0.00    -0.222 OA 
HETATM   14  C   UNL     1     -10.542  12.935  68.269  1.00  0.00    -0.246 C  
ENDBRANCH   8  13
BRANCH  11  15
HETATM   15  C   UNL     1      -9.050   6.923  66.415  1.00  0.00    -0.185 C  
HETATM   16  C   UNL     1      -7.870   6.516  67.334  1.00  0.00    -0.112 C  
HETATM   17  C   UNL     1      -7.591   4.973  67.168  1.00  0.00    -0.088 C  
HETATM   18  C   UNL     1      -6.528   7.282  67.117  1.00  0.00    -0.059 C  
HETATM   19  C   UNL     1      -6.584   8.741  67.574  1.00  0.00    -0.062 C  
HETATM   20  C   UNL     1      -5.982   7.186  65.691  1.00  0.00    -0.037 C  
BRANCH  17  21
HETATM   21  C   UNL     1      -8.741   4.037  67.593  1.00  0.00    -0.105 C  
HETATM   22  N   UNL     1      -9.995   4.783  67.428  1.00  0.00    -0.175 NA 
HETATM   23  H1  UNL     1     -10.755   4.164  67.709  1.00  0.00     0.000 HD 
HETATM   24  H2  UNL     1     -10.114   5.160  66.489  1.00  0.00     0.000 HD 
BRANCH  21  25
HETATM   25  C   UNL     1      -8.588   3.456  69.049  1.00  0.00    -0.079 C  
HETATM   26  H   UNL     1      -7.191   2.597  70.166  1.00  0.00     0.000 HD 
HETATM   27  O   UNL     1      -7.283   2.948  69.288  1.00  0.00    -0.044 OA 
BRANCH  25  28
HETATM   28  C   UNL     1      -8.943   4.566  70.059  1.00  0.00    -0.145 C  
HETATM   29  C   UNL     1      -9.997   4.340  71.168  1.00  0.00    -0.226 C  
HETATM   30  C   UNL     1     -10.103   5.710  71.868  1.00  0.00    -0.189 C  
HETATM   31  C   UNL     1      -9.675   3.205  72.184  1.00  0.00    -0.230 C  
HETATM   32  C   UNL     1     -10.801   2.955  73.197  1.00  0.00    -0.236 C  
HETATM   33  O   UNL     1      -9.132   6.432  72.090  1.00  0.00    -0.141 OA 
HETATM   34  N   UNL     1     -11.376   6.077  72.246  1.00  0.00    -0.290 N  
HETATM   35  C   UNL     1      -8.337   3.399  72.907  1.00  0.00    -0.081 C  
HETATM   36  H   UNL     1     -12.147   5.420  72.131  1.00  0.00     0.000 HD 
BRANCH  34  37
HETATM   37  C   UNL     1     -11.626   7.392  72.806  1.00  0.00    -0.209 C  
BRANCH  37  38
HETATM   38  C   UNL     1     -12.414   8.321  71.868  1.00  0.00    -0.376 C  
HETATM   39  C   UNL     1     -12.813   7.551  70.590  1.00  0.00     0.174 C  
HETATM   40  C   UNL     1     -13.684   8.847  72.558  1.00  0.00    -0.474 C  
BRANCH  38  41
HETATM   41  C   UNL     1     -11.517   9.500  71.465  1.00  0.00    -0.395 C  
HETATM   42  N   UNL     1     -10.204   9.233  71.231  1.00  0.00    -0.319 N  
HETATM   43  O   UNL     1     -11.923  10.653  71.338  1.00  0.00    -0.299 OA 
HETATM   44  H2  UNL     1      -9.830   8.288  71.319  1.00  0.00     0.000 HD 
HETATM   45  H1  UNL     1      -9.608  10.016  70.963  1.00  0.00     0.000 HD 
ENDBRANCH  38  41
ENDBRANCH  37  38
ENDBRANCH  34  37
ENDBRANCH  25  28
ENDBRANCH  21  25
ENDBRANCH  17  21
ENDBRANCH  11  15
ENDBRANCH   6   7
ENDBRANCH   5   6
ENDBRANCH   4   5
ENDBRANCH   3   4
ENDBRANCH   2   3
TORSDOF 13
ENDMDL
MODEL       49
REMARK 921   NORMALIZED FREE ENERGY PREDICTED BY IDOCK:   -5.00 KCAL/MOL
REMARK 922        TOTAL FREE ENERGY PREDICTED BY IDOCK:  -11.11 KCAL/MOL
REMARK 923 INTER-LIGAND FREE ENERGY PREDICTED BY IDOCK:  -10.00 KCAL/MOL
REMARK 924 INTRA-LIGAND FREE ENERGY PREDICTED BY IDOCK:   -1.11 KCAL/MOL
REMARK 927      BINDING AFFINITY PREDICTED BY RF-SCORE:    0.00 PKD
ROOT
HETATM    1  C   UNL     1      -6.597  10.018  64.123  1.00  0.00    -0.130 C  
HETATM    2  O   UNL     1      -7.900  10.116  63.565  1.00  0.00    -0.156 OA 
ENDROOT
BRANCH   2   3
HETATM    3  C   UNL     1      -8.862   9.457  64.388  1.00  0.00    -0.188 C  
BRANCH   3   4
HETATM    4  C   UNL     1      -8.149   8.567  65.397  1.00  0.00    -0.127 C  
BRANCH   4   5
HETATM    5  C   UNL     1      -8.881   7.259  65.695  1.00  0.00    -0.014 C  
BRANCH   5   6
HETATM    6  O   UNL     1      -7.995   6.329  66.312  1.00  0.00    -0.105 OA 
BRANCH   6   7
HETATM    7  C   UNL     1      -8.459   5.471  67.280  1.00  0.00    -0.110 A  
HETATM    8  C   UNL     1      -8.455   4.105  66.924  1.00  0.00    -0.100 A  
HETATM    9  C   UNL     1      -9.044   3.169  67.779  1.00  0.00    -0.219 A  
HETATM   10  C   UNL     1      -9.051   5.879  68.481  1.00  0.00    -0.111 A  
HETATM   11  C   UNL     1      -9.716   4.947  69.301  1.00  0.00    -0.258 A  
HETATM   12  C   UNL     1      -9.686   3.595  68.945  1.00  0.00    -0.058 A  
BRANCH   8  13
HETATM   13  O   UNL     1      -7.868   3.795  65.720  1.00  0.00    -0.088 OA 
HETATM   14  C   UNL     1      -8.694   3.251  64.701  1.00  0.00    -0.103 C  
ENDBRANCH   8  13
BRANCH  11  15
HETATM   15  C   UNL     1     -10.630   5.411  70.416  1.00  0.00    -0.322 C  
HETATM   16  C   UNL     1     -10.069   5.989  71.741  1.00  0.00    -0.222 C  
HETATM   17  C   UNL     1     -11.256   6.581  72.593  1.00  0.00    -0.284 C  
HETATM   18  C   UNL     1      -9.265   5.001  72.641  1.00  0.00    -0.144 C  
HETATM   19  C   UNL     1      -7.906   4.615  72.052  1.00  0.00    -0.099 C  
HETATM   20  C   UNL     1     -10.049   3.751  73.045  1.00  0.00    -0.217 C  
BRANCH  17  21
HETATM   21  C   UNL     1     -12.012   7.763  71.955  1.00  0.00    -0.301 C  
HETATM   22  N   UNL     1     -12.687   7.254  70.755  1.00  0.00    -0.604 NA 
HETATM   23  H1  UNL     1     -13.187   8.037  70.332  1.00  0.00     0.000 HD 
HETATM   24  H2  UNL     1     -13.288   6.453  70.945  1.00  0.00     0.000 HD 
BRANCH  21  25
HETATM   25  C   UNL     1     -11.100   9.007  71.635  1.00  0.00    -0.363 C  
HETATM   26  H   UNL     1      -9.225   9.588  71.924  1.00  0.00     0.000 HD 
HETATM   27  O   UNL     1      -9.775   8.838  72.117  1.00  0.00    -0.307 OA 
BRANCH  25  28
HETATM   28  C   UNL     1     -11.108   9.241  70.111  1.00  0.00    -0.260 C  
HETATM   29  C   UNL     1     -10.191  10.298  69.451  1.00  0.00    -0.255 C  
HETATM   30  C   UNL     1     -10.589  10.262  67.962  1.00  0.00    -0.231 C  
HETATM   31  C   UNL     1      -8.662  10.074  69.637  1.00  0.00    -0.210 C  
HETATM   32  C   UNL     1      -7.804  11.206  69.054  1.00  0.00    -0.103 C  
HETATM   33  O   UNL     1     -10.852   9.223  67.357  1.00  0.00    -0.255 OA 
HETATM   34  N   UNL     1     -10.623  11.489  67.336  1.00  0.00    -0.205 N  
HETATM   35  C   UNL     1      -8.179   8.715  69.118  1.00  0.00    -0.117 C  
HETATM   36  H   UNL     1     -10.314  12.321  67.837  1.00  0.00     0.000 HD 
BRANCH  34  37
HETATM   37  C   UNL     1     -11.097  11.604  65.969  1.00  0.00    -0.270 C  
BRANCH  37  38
HETATM   38  C   UNL     1     -11.517  13.032  65.582  1.00  0.00    -0.365 C  
HETATM   39  C   UNL     1     -12.235  13.702  66.774  1.00  0.00    -0.416 C  
HETATM   40  C   UNL     1     -10.293  13.875  65.189  1.00  0.00    -0.403 C  
BRANCH  38  41
HETATM   41  C   UNL     1     -12.497  12.959  64.402  1.00  0.00    -0.375 C  
HETATM   42  N   UNL     1     -12.349  13.878  63.410  1.00  0.00    -1.139 N  
HETATM   43  O   UNL     1     -13.390  12.119  64.309  1.00  0.00    -0.761 OA 
HETATM   44  H2  UNL     1     -11.616  14.586  63.448  1.00  0.00     0.000 HD 
HETATM   45  H1  UNL     1     -13.000  13.830  62.627  1.00  0.00     0.000 HD 
ENDBRANCH  38  41
ENDBRANCH  37  38
ENDBRANCH  34  37
ENDBRANCH  25  28
ENDBRANCH  21  25
ENDBRANCH  17  21
ENDBRANCH  11  15
ENDBRANCH   6   7
ENDBRANCH   5   6
ENDBRANCH   4   5
ENDBRANCH   3   4
ENDBRANCH   2   3
TORSDOF 13
ENDMDL
MODEL       50
REMARK 921   NORMALIZED FREE ENERGY PREDICTED BY IDOCK:   -4.97 KCAL/MOL
REMARK 922        TOTAL FREE ENERGY PREDICTED BY IDOCK:  -11.06 KCAL/MOL
REMARK 923 INTER-LIGAND FREE ENERGY PREDICTED BY IDOCK:   -8.78 KCAL/MOL
REMARK 924 INTRA-LIGAND FREE ENERGY PREDICTED BY IDOCK:   -2.28 KCAL/MOL
REMARK 927      BINDING AFFINITY PREDICTED BY RF-SCORE:    0.00 PKD
ROOT
HETATM    1  C   UNL     1     -10.869   5.365  72.341  1.00  0.00    -0.241 C  
HETATM    2  O   UNL     1     -12.028   6.178  72.230  1.00  0.00    -0.318 OA 
ENDROOT
BRANCH   2   3
HETATM    3  C   UNL     1     -12.078   6.831  70.963  1.00  0.00    -0.372 C  
BRANCH   3   4
HETATM    4  C   UNL     1     -11.130   6.140  69.992  1.00  0.00    -0.462 C  
BRANCH   4   5
HETATM    5  C   UNL     1     -11.241   6.642  68.553  1.00  0.00    -0.141 C  
BRANCH   5   6
HETATM    6  O   UNL     1     -10.701   5.681  67.652  1.00  0.00    -0.235 OA 
BRANCH   6   7
HETATM    7  C   UNL     1      -9.628   6.004  66.858  1.00  0.00    -0.140 A  
HETATM    8  C   UNL     1      -9.035   4.919  66.176  1.00  0.00    -0.125 A  
HETATM    9  C   UNL     1      -7.851   5.118  65.463  1.00  0.00    -0.092 A  
HETATM   10  C   UNL     1      -9.025   7.268  66.817  1.00  0.00    -0.154 A  
HETATM   11  C   UNL     1      -7.789   7.448  66.167  1.00  0.00    -0.107 A  
HETATM   12  C   UNL     1      -7.227   6.369  65.479  1.00  0.00    -0.070 A  
BRANCH   8  13
HETATM   13  O   UNL     1      -9.683   3.712  66.283  1.00  0.00    -0.170 OA 
HETATM   14  C   UNL     1      -8.890   2.549  66.473  1.00  0.00    -0.128 C  
ENDBRANCH   8  13
BRANCH  11  15
HETATM   15  C   UNL     1      -6.975   8.706  66.388  1.00  0.00    -0.078 C  
HETATM   16  C   UNL     1      -7.327  10.039  65.679  1.00  0.00    -0.127 C  
HETATM   17  C   UNL     1      -6.443  11.197  66.281  1.00  0.00    -0.082 C  
HETATM   18  C   UNL     1      -7.169  10.059  64.127  1.00  0.00    -0.132 C  
HETATM   19  C   UNL     1      -8.219   9.214  63.401  1.00  0.00    -0.178 C  
HETATM   20  C   UNL     1      -5.763   9.701  63.641  1.00  0.00    -0.094 C  
BRANCH  17  21
HETATM   21  C   UNL     1      -6.663  11.496  67.778  1.00  0.00    -0.072 C  
HETATM   22  N   UNL     1      -5.597  10.814  68.522  1.00  0.00    -0.040 NA 
HETATM   23  H1  UNL     1      -5.743  11.011  69.512  1.00  0.00     0.000 HD 
HETATM   24  H2  UNL     1      -4.663  11.063  68.198  1.00  0.00     0.000 HD 
BRANCH  21  25
HETATM   25  C   UNL     1      -8.095  11.101  68.305  1.00  0.00    -0.131 C  
HETATM   26  H   UNL     1      -8.907  10.256  69.906  1.00  0.00     0.000 HD 
HETATM   27  O   UNL     1      -8.044  10.494  69.588  1.00  0.00    -0.139 OA 
BRANCH  25  28
HETATM   28  C   UNL     1      -8.975  12.367  68.327  1.00  0.00    -0.178 C  
HETATM   29  C   UNL     1      -9.326  13.128  67.027  1.00  0.00    -0.238 C  
HETATM   30  C   UNL     1     -10.123  14.355  67.515  1.00  0.00    -0.232 C  
HETATM   31  C   UNL     1     -10.125  12.316  65.966  1.00  0.00    -0.269 C  
HETATM   32  C   UNL     1     -10.354  13.084  64.656  1.00  0.00    -0.374 C  
HETATM   33  O   UNL     1     -10.942  14.307  68.432  1.00  0.00    -0.239 OA 
HETATM   34  N   UNL     1      -9.863  15.527  66.840  1.00  0.00    -0.233 N  
HETATM   35  C   UNL     1     -11.449  11.758  66.498  1.00  0.00    -0.325 C  
HETATM   36  H   UNL     1      -9.248  15.517  66.027  1.00  0.00     0.000 HD 
BRANCH  34  37
HETATM   37  C   UNL     1     -10.458  16.776  67.279  1.00  0.00    -0.310 C  
BRANCH  37  38
HETATM   38  C   UNL     1      -9.511  17.982  67.168  1.00  0.00    -0.264 C  
HETATM   39  C   UNL     1      -9.421  18.698  68.533  1.00  0.00    -0.386 C  
HETATM   40  C   UNL     1      -8.104  17.534  66.738  1.00  0.00    -0.275 C  
BRANCH  38  41
HETATM   41  C   UNL     1     -10.079  18.968  66.138  1.00  0.00    -0.406 C  
HETATM   42  N   UNL     1      -9.701  20.270  66.246  1.00  0.00    -0.630 N  
HETATM   43  O   UNL     1     -10.840  18.642  65.230  1.00  0.00    -0.591 OA 
HETATM   44  H2  UNL     1      -9.065  20.579  66.981  1.00  0.00     0.000 HD 
HETATM   45  H1  UNL     1     -10.078  20.925  65.562  1.00  0.00     0.000 HD 
ENDBRANCH  38  41
ENDBRANCH  37  38
ENDBRANCH  34  37
ENDBRANCH  25  28
ENDBRANCH  21  25
ENDBRANCH  17  21
ENDBRANCH  11  15
ENDBRANCH   6   7
ENDBRANCH   5   6
ENDBRANCH   4   5
ENDBRANCH   3   4
ENDBRANCH   2   3
TORSDOF 13
ENDMDL
MODEL       51
REMARK 921   NORMALIZED FREE ENERGY PREDICTED BY IDOCK:   -4.96 KCAL/MOL
REMARK 922        TOTAL FREE ENERGY PREDICTED BY IDOCK:  -11.05 KCAL/MOL
REMARK 923 INTER-LIGAND FREE ENERGY PREDICTED BY IDOCK:   -8.91 KCAL/MOL
REMARK 924 INTRA-LIGAND FREE ENERGY PREDICTED BY IDOCK:   -2.14 KCAL/MOL
REMARK 927      BINDING AFFINITY PREDICTED BY RF-SCORE:    0.00 PKD
ROOT
HETATM    1  C   UNL     1     -13.973   8.119  71.582  1.00  0.00    -0.395 C  
HETATM    2  O   UNL     1     -13.047   7.208  72.159  1.00  0.00    -0.161 OA 
ENDROOT
BRANCH   2   3
HETATM    3  C   UNL     1     -11.858   7.878  72.574  1.00  0.00    -0.335 C  
BRANCH   3   4
HETATM    4  C   UNL     1     -10.757   6.857  72.828  1.00  0.00    -0.286 C  
BRANCH   4   5
HETATM    5  C   UNL     1     -10.856   5.608  71.953  1.00  0.00    -0.242 C  
BRANCH   5   6
HETATM    6  O   UNL     1      -9.792   5.584  71.006  1.00  0.00    -0.168 OA 
BRANCH   6   7
HETATM    7  C   UNL     1     -10.049   5.785  69.672  1.00  0.00    -0.212 A  
HETATM    8  C   UNL     1     -10.011   4.623  68.871  1.00  0.00    -0.098 A  
HETATM    9  C   UNL     1     -10.111   4.741  67.482  1.00  0.00    -0.161 A  
HETATM   10  C   UNL     1     -10.185   7.043  69.072  1.00  0.00    -0.191 A  
HETATM   11  C   UNL     1     -10.202   7.166  67.670  1.00  0.00    -0.253 A  
HETATM   12  C   UNL     1     -10.184   6.006  66.892  1.00  0.00    -0.261 A  
BRANCH   8  13
HETATM   13  O   UNL     1      -9.859   3.432  69.540  1.00  0.00    -0.057 OA 
HETATM   14  C   UNL     1      -8.800   2.576  69.136  1.00  0.00    -0.097 C  
ENDBRANCH   8  13
BRANCH  11  15
HETATM   15  C   UNL     1     -10.019   8.517  67.010  1.00  0.00    -0.318 C  
HETATM   16  C   UNL     1      -8.666   8.938  66.380  1.00  0.00    -0.148 C  
HETATM   17  C   UNL     1      -8.859  10.287  65.587  1.00  0.00    -0.186 C  
HETATM   18  C   UNL     1      -7.469   9.116  67.365  1.00  0.00    -0.084 C  
HETATM   19  C   UNL     1      -6.965   7.795  67.949  1.00  0.00    -0.077 C  
HETATM   20  C   UNL     1      -7.729  10.131  68.480  1.00  0.00    -0.090 C  
BRANCH  17  21
HETATM   21  C   UNL     1      -9.830  10.226  64.391  1.00  0.00    -0.305 C  
HETATM   22  N   UNL     1      -9.103   9.624  63.267  1.00  0.00    -0.370 NA 
HETATM   23  H1  UNL     1      -9.745   9.584  62.476  1.00  0.00     0.000 HD 
HETATM   24  H2  UNL     1      -8.694   8.718  63.496  1.00  0.00     0.000 HD 
BRANCH  21  25
HETATM   25  C   UNL     1     -10.460  11.618  64.008  1.00  0.00    -0.367 C  
HETATM   26  H   UNL     1     -12.185  12.334  63.338  1.00  0.00     0.000 HD 
HETATM   27  O   UNL     1     -11.805  11.494  63.570  1.00  0.00    -0.364 OA 
BRANCH  25  28
HETATM   28  C   UNL     1     -10.361  12.554  65.229  1.00  0.00    -0.310 C  
HETATM   29  C   UNL     1     -10.454  14.091  65.078  1.00  0.00    -0.440 C  
HETATM   30  C   UNL     1     -10.211  14.622  66.506  1.00  0.00    -0.278 C  
HETATM   31  C   UNL     1     -11.790  14.630  64.490  1.00  0.00    -0.442 C  
HETATM   32  C   UNL     1     -11.788  16.148  64.264  1.00  0.00     0.108 C  
HETATM   33  O   UNL     1     -10.664  14.081  67.514  1.00  0.00    -0.264 OA 
HETATM   34  N   UNL     1      -9.451  15.768  66.581  1.00  0.00    -0.240 N  
HETATM   35  C   UNL     1     -13.024  14.210  65.297  1.00  0.00    -0.268 C  
HETATM   36  H   UNL     1      -9.166  16.244  65.726  1.00  0.00     0.000 HD 
BRANCH  34  37
HETATM   37  C   UNL     1      -9.052  16.302  67.871  1.00  0.00    -0.196 C  
BRANCH  37  38
HETATM   38  C   UNL     1      -7.569  16.704  67.938  1.00  0.00    -0.169 C  
HETATM   39  C   UNL     1      -7.326  17.579  69.187  1.00  0.00    -0.128 C  
HETATM   40  C   UNL     1      -6.668  15.461  68.008  1.00  0.00    -0.156 C  
BRANCH  38  41
HETATM   41  C   UNL     1      -7.221  17.529  66.692  1.00  0.00    -0.234 C  
HETATM   42  N   UNL     1      -5.908  17.613  66.346  1.00  0.00    -0.190 N  
HETATM   43  O   UNL     1      -8.058  18.101  65.997  1.00  0.00    -0.477 OA 
HETATM   44  H2  UNL     1      -5.184  17.147  66.892  1.00  0.00     0.000 HD 
HETATM   45  H1  UNL     1      -5.676  18.161  65.518  1.00  0.00     0.000 HD 
ENDBRANCH  38  41
ENDBRANCH  37  38
ENDBRANCH  34  37
ENDBRANCH  25  28
ENDBRANCH  21  25
ENDBRANCH  17  21
ENDBRANCH  11  15
ENDBRANCH   6   7
ENDBRANCH   5   6
ENDBRANCH   4   5
ENDBRANCH   3   4
ENDBRANCH   2   3
TORSDOF 13
ENDMDL
MODEL       52
REMARK 921   NORMALIZED FREE ENERGY PREDICTED BY IDOCK:   -4.95 KCAL/MOL
REMARK 922        TOTAL FREE ENERGY PREDICTED BY IDOCK:  -11.02 KCAL/MOL
REMARK 923 INTER-LIGAND FREE ENERGY PREDICTED BY IDOCK:   -7.33 KCAL/MOL
REMARK 924 INTRA-LIGAND FREE ENERGY PREDICTED BY IDOCK:   -3.69 KCAL/MOL
REMARK 927      BINDING AFFINITY PREDICTED BY RF-SCORE:    0.00 PKD
ROOT
HETATM    1  C   UNL     1      -6.625   8.934  68.236  1.00  0.00    -0.060 C  
HETATM    2  O   UNL     1      -7.634   9.036  67.241  1.00  0.00    -0.087 OA 
ENDROOT
BRANCH   2   3
HETATM    3  C   UNL     1      -7.127   9.650  66.057  1.00  0.00    -0.097 C  
BRANCH   3   4
HETATM    4  C   UNL     1      -6.872   8.586  64.997  1.00  0.00    -0.071 C  
BRANCH   4   5
HETATM    5  C   UNL     1      -8.040   7.621  64.794  1.00  0.00    -0.121 C  
BRANCH   5   6
HETATM    6  O   UNL     1      -7.589   6.274  64.897  1.00  0.00    -0.079 OA 
BRANCH   6   7
HETATM    7  C   UNL     1      -8.034   5.473  65.920  1.00  0.00    -0.106 A  
HETATM    8  C   UNL     1      -9.026   4.534  65.561  1.00  0.00    -0.138 A  
HETATM    9  C   UNL     1      -9.649   3.776  66.556  1.00  0.00    -0.189 A  
HETATM   10  C   UNL     1      -7.684   5.639  67.266  1.00  0.00    -0.101 A  
HETATM   11  C   UNL     1      -8.370   4.935  68.273  1.00  0.00    -0.091 A  
HETATM   12  C   UNL     1      -9.334   3.995  67.900  1.00  0.00    -0.220 A  
BRANCH   8  13
HETATM   13  O   UNL     1      -9.319   4.448  64.221  1.00  0.00    -0.154 OA 
HETATM   14  C   UNL     1     -10.362   3.567  63.827  1.00  0.00    -0.241 C  
ENDBRANCH   8  13
BRANCH  11  15
HETATM   15  C   UNL     1      -8.235   5.338  69.728  1.00  0.00    -0.098 C  
HETATM   16  C   UNL     1      -6.857   5.377  70.437  1.00  0.00    -0.052 C  
HETATM   17  C   UNL     1      -7.023   6.042  71.857  1.00  0.00    -0.077 C  
HETATM   18  C   UNL     1      -6.135   4.007  70.619  1.00  0.00    -0.018 C  
HETATM   19  C   UNL     1      -5.617   3.416  69.306  1.00  0.00    -0.017 C  
HETATM   20  C   UNL     1      -6.956   2.969  71.387  1.00  0.00    -0.032 C  
BRANCH  17  21
HETATM   21  C   UNL     1      -7.489   7.512  71.856  1.00  0.00    -0.080 C  
HETATM   22  N   UNL     1      -6.313   8.343  72.140  1.00  0.00    -0.063 NA 
HETATM   23  H1  UNL     1      -6.621   9.316  72.140  1.00  0.00     0.000 HD 
HETATM   24  H2  UNL     1      -5.538   8.171  71.501  1.00  0.00     0.000 HD 
BRANCH  21  25
HETATM   25  C   UNL     1      -8.674   7.807  72.851  1.00  0.00    -0.166 C  
HETATM   26  H   UNL     1      -8.939   8.591  74.654  1.00  0.00     0.000 HD 
HETATM   27  O   UNL     1      -8.224   8.413  74.054  1.00  0.00    -0.305 OA 
BRANCH  25  28
HETATM   28  C   UNL     1      -9.704   8.702  72.133  1.00  0.00    -0.383 C  
HETATM   29  C   UNL     1     -10.312   8.298  70.769  1.00  0.00    -0.221 C  
HETATM   30  C   UNL     1     -11.197   9.502  70.383  1.00  0.00    -0.270 C  
HETATM   31  C   UNL     1     -11.122   6.970  70.758  1.00  0.00    -0.307 C  
HETATM   32  C   UNL     1     -11.612   6.565  69.361  1.00  0.00    -0.249 C  
HETATM   33  O   UNL     1     -11.882  10.124  71.194  1.00  0.00    -0.345 OA 
HETATM   34  N   UNL     1     -11.180   9.835  69.047  1.00  0.00    -0.436 N  
HETATM   35  C   UNL     1     -12.284   6.958  71.757  1.00  0.00    -0.396 C  
HETATM   36  H   UNL     1     -10.675   9.247  68.384  1.00  0.00     0.000 HD 
BRANCH  34  37
HETATM   37  C   UNL     1     -11.877  11.018  68.575  1.00  0.00    -0.216 C  
BRANCH  37  38
HETATM   38  C   UNL     1     -11.051  11.868  67.595  1.00  0.00    -0.314 C  
HETATM   39  C   UNL     1     -10.505  10.970  66.463  1.00  0.00    -0.309 C  
HETATM   40  C   UNL     1     -11.911  12.986  66.983  1.00  0.00    -0.437 C  
BRANCH  38  41
HETATM   41  C   UNL     1      -9.861  12.481  68.347  1.00  0.00    -0.202 C  
HETATM   42  N   UNL     1     -10.041  13.709  68.904  1.00  0.00    -0.416 N  
HETATM   43  O   UNL     1      -8.775  11.921  68.475  1.00  0.00    -0.165 OA 
HETATM   44  H2  UNL     1     -10.929  14.202  68.825  1.00  0.00     0.000 HD 
HETATM   45  H1  UNL     1      -9.250  14.116  69.403  1.00  0.00     0.000 HD 
ENDBRANCH  38  41
ENDBRANCH  37  38
ENDBRANCH  34  37
ENDBRANCH  25  28
ENDBRANCH  21  25
ENDBRANCH  17  21
ENDBRANCH  11  15
ENDBRANCH   6   7
ENDBRANCH   5   6
ENDBRANCH   4   5
ENDBRANCH   3   4
ENDBRANCH   2   3
TORSDOF 13
ENDMDL
MODEL       53
REMARK 921   NORMALIZED FREE ENERGY PREDICTED BY IDOCK:   -4.94 KCAL/MOL
REMARK 922        TOTAL FREE ENERGY PREDICTED BY IDOCK:  -11.00 KCAL/MOL
REMARK 923 INTER-LIGAND FREE ENERGY PREDICTED BY IDOCK:   -9.28 KCAL/MOL
REMARK 924 INTRA-LIGAND FREE ENERGY PREDICTED BY IDOCK:   -1.71 KCAL/MOL
REMARK 927      BINDING AFFINITY PREDICTED BY RF-SCORE:    0.00 PKD
ROOT
HETATM    1  C   UNL     1     -13.888  14.555  71.523  1.00  0.00    -0.402 C  
HETATM    2  O   UNL     1     -12.882  13.671  71.997  1.00  0.00    -0.317 OA 
ENDROOT
BRANCH   2   3
HETATM    3  C   UNL     1     -13.399  12.353  72.176  1.00  0.00    -0.403 C  
BRANCH   3   4
HETATM    4  C   UNL     1     -12.587  11.368  71.346  1.00  0.00    -0.439 C  
BRANCH   4   5
HETATM    5  C   UNL     1     -12.954   9.904  71.589  1.00  0.00    -0.434 C  
BRANCH   5   6
HETATM    6  O   UNL     1     -11.832   9.195  72.106  1.00  0.00    -0.345 OA 
BRANCH   6   7
HETATM    7  C   UNL     1     -11.008   8.494  71.260  1.00  0.00    -0.256 A  
HETATM    8  C   UNL     1     -11.019   7.093  71.433  1.00  0.00    -0.234 A  
HETATM    9  C   UNL     1     -10.108   6.304  70.725  1.00  0.00    -0.229 A  
HETATM   10  C   UNL     1     -10.086   9.082  70.385  1.00  0.00    -0.248 A  
HETATM   11  C   UNL     1      -9.115   8.294  69.736  1.00  0.00    -0.147 A  
HETATM   12  C   UNL     1      -9.153   6.907  69.902  1.00  0.00    -0.144 A  
BRANCH   8  13
HETATM   13  O   UNL     1     -11.945   6.601  72.322  1.00  0.00    -0.284 OA 
HETATM   14  C   UNL     1     -11.539   5.548  73.185  1.00  0.00    -0.081 C  
ENDBRANCH   8  13
BRANCH  11  15
HETATM   15  C   UNL     1      -7.924   8.939  69.058  1.00  0.00    -0.106 C  
HETATM   16  C   UNL     1      -8.096   9.913  67.864  1.00  0.00    -0.109 C  
HETATM   17  C   UNL     1      -6.706  10.577  67.531  1.00  0.00    -0.070 C  
HETATM   18  C   UNL     1      -8.674   9.302  66.550  1.00  0.00    -0.145 C  
HETATM   19  C   UNL     1     -10.153   8.925  66.658  1.00  0.00    -0.357 C  
HETATM   20  C   UNL     1      -7.860   8.129  66.000  1.00  0.00    -0.093 C  
BRANCH  17  21
HETATM   21  C   UNL     1      -6.098  11.450  68.648  1.00  0.00    -0.043 C  
HETATM   22  N   UNL     1      -7.182  11.786  69.580  1.00  0.00    -0.342 NA 
HETATM   23  H1  UNL     1      -6.780  12.363  70.318  1.00  0.00     0.000 HD 
HETATM   24  H2  UNL     1      -7.669  10.964  69.937  1.00  0.00     0.000 HD 
BRANCH  21  25
HETATM   25  C   UNL     1      -5.356  12.736  68.121  1.00  0.00    -0.081 C  
HETATM   26  H   UNL     1      -4.778  13.513  66.389  1.00  0.00     0.000 HD 
HETATM   27  O   UNL     1      -5.226  12.737  66.707  1.00  0.00    -0.263 OA 
BRANCH  25  28
HETATM   28  C   UNL     1      -6.127  13.980  68.606  1.00  0.00    -0.088 C  
HETATM   29  C   UNL     1      -7.003  14.814  67.642  1.00  0.00    -0.204 C  
HETATM   30  C   UNL     1      -7.495  15.992  68.508  1.00  0.00    -0.156 C  
HETATM   31  C   UNL     1      -8.192  14.055  66.984  1.00  0.00    -0.078 C  
HETATM   32  C   UNL     1      -8.962  14.899  65.959  1.00  0.00     0.025 C  
HETATM   33  O   UNL     1      -7.833  15.871  69.685  1.00  0.00    -0.172 OA 
HETATM   34  N   UNL     1      -7.545  17.209  67.865  1.00  0.00    -0.172 N  
HETATM   35  C   UNL     1      -9.157  13.438  68.003  1.00  0.00    -0.205 C  
HETATM   36  H   UNL     1      -7.346  17.263  66.866  1.00  0.00     0.000 HD 
BRANCH  34  37
HETATM   37  C   UNL     1      -7.878  18.416  68.600  1.00  0.00    -0.299 C  
BRANCH  37  38
HETATM   38  C   UNL     1      -9.053  19.201  67.994  1.00  0.00    -0.358 C  
HETATM   39  C   UNL     1      -9.962  19.729  69.124  1.00  0.00    -0.391 C  
HETATM   40  C   UNL     1      -8.544  20.387  67.158  1.00  0.00    -0.402 C  
BRANCH  38  41
HETATM   41  C   UNL     1      -9.877  18.257  67.107  1.00  0.00    -0.324 C  
HETATM   42  N   UNL     1     -10.785  17.455  67.724  1.00  0.00    -0.365 N  
HETATM   43  O   UNL     1      -9.764  18.199  65.885  1.00  0.00    -0.521 OA 
HETATM   44  H2  UNL     1     -10.914  17.479  68.736  1.00  0.00     0.000 HD 
HETATM   45  H1  UNL     1     -11.332  16.828  67.136  1.00  0.00     0.000 HD 
ENDBRANCH  38  41
ENDBRANCH  37  38
ENDBRANCH  34  37
ENDBRANCH  25  28
ENDBRANCH  21  25
ENDBRANCH  17  21
ENDBRANCH  11  15
ENDBRANCH   6   7
ENDBRANCH   5   6
ENDBRANCH   4   5
ENDBRANCH   3   4
ENDBRANCH   2   3
TORSDOF 13
ENDMDL
MODEL       54
REMARK 921   NORMALIZED FREE ENERGY PREDICTED BY IDOCK:   -4.92 KCAL/MOL
REMARK 922        TOTAL FREE ENERGY PREDICTED BY IDOCK:  -10.97 KCAL/MOL
REMARK 923 INTER-LIGAND FREE ENERGY PREDICTED BY IDOCK:   -9.39 KCAL/MOL
REMARK 924 INTRA-LIGAND FREE ENERGY PREDICTED BY IDOCK:   -1.58 KCAL/MOL
REMARK 927      BINDING AFFINITY PREDICTED BY RF-SCORE:    0.00 PKD
ROOT
HETATM    1  C   UNL     1     -10.681   5.516  66.573  1.00  0.00    -0.240 C  
HETATM    2  O   UNL     1     -10.021   4.691  65.623  1.00  0.00    -0.193 OA 
ENDROOT
BRANCH   2   3
HETATM    3  C   UNL     1      -8.896   4.035  66.207  1.00  0.00    -0.121 C  
BRANCH   3   4
HETATM    4  C   UNL     1      -9.300   3.411  67.536  1.00  0.00    -0.248 C  
BRANCH   4   5
HETATM    5  C   UNL     1      -8.245   3.552  68.632  1.00  0.00    -0.068 C  
BRANCH   5   6
HETATM    6  O   UNL     1      -8.837   4.058  69.824  1.00  0.00    -0.078 OA 
BRANCH   6   7
HETATM    7  C   UNL     1      -8.680   5.379  70.167  1.00  0.00    -0.126 A  
HETATM    8  C   UNL     1      -7.635   5.643  71.079  1.00  0.00    -0.095 A  
HETATM    9  C   UNL     1      -7.489   6.930  71.604  1.00  0.00    -0.085 A  
HETATM   10  C   UNL     1      -9.560   6.403  69.797  1.00  0.00    -0.163 A  
HETATM   11  C   UNL     1      -9.462   7.677  70.389  1.00  0.00    -0.164 A  
HETATM   12  C   UNL     1      -8.410   7.928  71.274  1.00  0.00    -0.120 A  
BRANCH   8  13
HETATM   13  O   UNL     1      -6.829   4.577  71.399  1.00  0.00    -0.032 OA 
HETATM   14  C   UNL     1      -5.423   4.774  71.353  1.00  0.00    -0.004 C  
ENDBRANCH   8  13
BRANCH  11  15
HETATM   15  C   UNL     1     -10.586   8.683  70.252  1.00  0.00    -0.240 C  
HETATM   16  C   UNL     1     -11.343   9.231  71.490  1.00  0.00    -0.455 C  
HETATM   17  C   UNL     1     -12.288  10.410  71.040  1.00  0.00    -0.490 C  
HETATM   18  C   UNL     1     -12.194   8.200  72.293  1.00  0.00    -0.397 C  
HETATM   19  C   UNL     1     -11.346   7.187  73.065  1.00  0.00    -0.208 C  
HETATM   20  C   UNL     1     -13.255   7.484  71.455  1.00  0.00    -0.404 C  
BRANCH  17  21
HETATM   21  C   UNL     1     -11.580  11.647  70.451  1.00  0.00    -0.063 C  
HETATM   22  N   UNL     1     -12.355  12.827  70.853  1.00  0.00    -0.399 NA 
HETATM   23  H1  UNL     1     -11.887  13.645  70.463  1.00  0.00     0.000 HD 
HETATM   24  H2  UNL     1     -12.492  12.889  71.862  1.00  0.00     0.000 HD 
BRANCH  21  25
HETATM   25  C   UNL     1     -11.373  11.582  68.890  1.00  0.00    -0.268 C  
HETATM   26  H   UNL     1     -12.265  10.789  67.305  1.00  0.00     0.000 HD 
HETATM   27  O   UNL     1     -12.391  10.829  68.246  1.00  0.00    -0.296 OA 
BRANCH  25  28
HETATM   28  C   UNL     1     -11.322  13.023  68.343  1.00  0.00    -0.326 C  
HETATM   29  C   UNL     1     -10.074  13.915  68.538  1.00  0.00    -0.234 C  
HETATM   30  C   UNL     1     -10.487  15.273  67.933  1.00  0.00    -0.253 C  
HETATM   31  C   UNL     1      -8.758  13.385  67.898  1.00  0.00    -0.187 C  
HETATM   32  C   UNL     1      -7.533  14.254  68.211  1.00  0.00    -0.125 C  
HETATM   33  O   UNL     1     -11.157  15.380  66.907  1.00  0.00    -0.316 OA 
HETATM   34  N   UNL     1     -10.042  16.379  68.622  1.00  0.00    -0.232 N  
HETATM   35  C   UNL     1      -8.871  13.142  66.388  1.00  0.00     0.093 C  
HETATM   36  H   UNL     1      -9.414  16.263  69.416  1.00  0.00     0.000 HD 
BRANCH  34  37
HETATM   37  C   UNL     1     -10.461  17.711  68.223  1.00  0.00    -0.375 C  
BRANCH  37  38
HETATM   38  C   UNL     1      -9.351  18.526  67.539  1.00  0.00    -0.290 C  
HETATM   39  C   UNL     1      -8.522  19.273  68.606  1.00  0.00    -0.403 C  
HETATM   40  C   UNL     1      -8.421  17.609  66.726  1.00  0.00    -0.274 C  
BRANCH  38  41
HETATM   41  C   UNL     1      -9.996  19.564  66.610  1.00  0.00    -0.407 C  
HETATM   42  N   UNL     1      -9.659  20.868  66.800  1.00  0.00    -0.630 N  
HETATM   43  O   UNL     1     -10.784  19.278  65.711  1.00  0.00    -0.467 OA 
HETATM   44  H2  UNL     1      -9.003  21.145  67.531  1.00  0.00     0.000 HD 
HETATM   45  H1  UNL     1     -10.087  21.557  66.184  1.00  0.00     0.000 HD 
ENDBRANCH  38  41
ENDBRANCH  37  38
ENDBRANCH  34  37
ENDBRANCH  25  28
ENDBRANCH  21  25
ENDBRANCH  17  21
ENDBRANCH  11  15
ENDBRANCH   6   7
ENDBRANCH   5   6
ENDBRANCH   4   5
ENDBRANCH   3   4
ENDBRANCH   2   3
TORSDOF 13
ENDMDL
MODEL       55
REMARK 921   NORMALIZED FREE ENERGY PREDICTED BY IDOCK:   -4.92 KCAL/MOL
REMARK 922        TOTAL FREE ENERGY PREDICTED BY IDOCK:  -10.97 KCAL/MOL
REMARK 923 INTER-LIGAND FREE ENERGY PREDICTED BY IDOCK:   -9.03 KCAL/MOL
REMARK 924 INTRA-LIGAND FREE ENERGY PREDICTED BY IDOCK:   -1.94 KCAL/MOL
REMARK 927      BINDING AFFINITY PREDICTED BY RF-SCORE:    0.00 PKD
ROOT
HETATM    1  C   UNL     1     -12.007   6.326  72.341  1.00  0.00    -0.188 C  
HETATM    2  O   UNL     1     -12.468   6.857  71.106  1.00  0.00    -0.378 OA 
ENDROOT
BRANCH   2   3
HETATM    3  C   UNL     1     -11.377   7.161  70.238  1.00  0.00    -0.269 C  
BRANCH   3   4
HETATM    4  C   UNL     1     -11.160   6.009  69.267  1.00  0.00    -0.424 C  
BRANCH   4   5
HETATM    5  C   UNL     1     -10.078   5.022  69.707  1.00  0.00    -0.267 C  
BRANCH   5   6
HETATM    6  O   UNL     1      -8.863   5.281  69.011  1.00  0.00    -0.099 OA 
BRANCH   6   7
HETATM    7  C   UNL     1      -8.282   6.525  69.073  1.00  0.00    -0.116 A  
HETATM    8  C   UNL     1      -7.519   6.774  70.235  1.00  0.00    -0.090 A  
HETATM    9  C   UNL     1      -7.012   8.056  70.463  1.00  0.00    -0.041 A  
HETATM   10  C   UNL     1      -8.526   7.559  68.162  1.00  0.00    -0.124 A  
HETATM   11  C   UNL     1      -8.085   8.869  68.435  1.00  0.00    -0.109 A  
HETATM   12  C   UNL     1      -7.314   9.095  69.578  1.00  0.00    -0.068 A  
BRANCH   8  13
HETATM   13  O   UNL     1      -7.342   5.707  71.082  1.00  0.00    -0.080 OA 
HETATM   14  C   UNL     1      -7.696   5.880  72.447  1.00  0.00    -0.102 C  
ENDBRANCH   8  13
BRANCH  11  15
HETATM   15  C   UNL     1      -8.614  10.044  67.639  1.00  0.00    -0.118 C  
HETATM   16  C   UNL     1      -8.069  10.383  66.228  1.00  0.00    -0.136 C  
HETATM   17  C   UNL     1      -8.966  11.507  65.581  1.00  0.00    -0.081 C  
HETATM   18  C   UNL     1      -6.580  10.841  66.153  1.00  0.00    -0.127 C  
HETATM   19  C   UNL     1      -5.585   9.713  66.437  1.00  0.00    -0.052 C  
HETATM   20  C   UNL     1      -6.263  12.065  67.013  1.00  0.00    -0.130 C  
BRANCH  17  21
HETATM   21  C   UNL     1     -10.440  11.128  65.336  1.00  0.00    -0.259 C  
HETATM   22  N   UNL     1     -10.599  10.897  63.895  1.00  0.00    -0.510 NA 
HETATM   23  H1  UNL     1     -11.574  10.646  63.733  1.00  0.00     0.000 HD 
HETATM   24  H2  UNL     1      -9.943  10.207  63.527  1.00  0.00     0.000 HD 
BRANCH  21  25
HETATM   25  C   UNL     1     -11.472  12.187  65.880  1.00  0.00    -0.363 C  
HETATM   26  H   UNL     1     -12.527  12.523  67.526  1.00  0.00     0.000 HD 
HETATM   27  O   UNL     1     -11.904  11.884  67.198  1.00  0.00    -0.588 OA 
BRANCH  25  28
HETATM   28  C   UNL     1     -10.819  13.583  65.818  1.00  0.00    -0.280 C  
HETATM   29  C   UNL     1     -11.044  14.628  66.936  1.00  0.00    -0.333 C  
HETATM   30  C   UNL     1     -10.302  15.882  66.428  1.00  0.00    -0.306 C  
HETATM   31  C   UNL     1     -10.557  14.214  68.355  1.00  0.00    -0.263 C  
HETATM   32  C   UNL     1     -10.899  15.243  69.441  1.00  0.00    -0.263 C  
HETATM   33  O   UNL     1      -9.220  15.838  65.846  1.00  0.00    -0.340 OA 
HETATM   34  N   UNL     1     -10.936  17.079  66.683  1.00  0.00     0.060 N  
HETATM   35  C   UNL     1      -9.067  13.857  68.406  1.00  0.00    -0.184 C  
HETATM   36  H   UNL     1     -11.786  17.092  67.246  1.00  0.00     0.000 HD 
BRANCH  34  37
HETATM   37  C   UNL     1     -10.402  18.321  66.155  1.00  0.00    -0.398 C  
BRANCH  37  38
HETATM   38  C   UNL     1      -9.522  19.087  67.157  1.00  0.00    -0.350 C  
HETATM   39  C   UNL     1      -9.957  20.568  67.201  1.00  0.00    -0.512 C  
HETATM   40  C   UNL     1      -9.643  18.482  68.565  1.00  0.00    -0.388 C  
BRANCH  38  41
HETATM   41  C   UNL     1      -8.062  19.023  66.688  1.00  0.00    -0.274 C  
HETATM   42  N   UNL     1      -7.341  17.925  67.043  1.00  0.00    -0.189 N  
HETATM   43  O   UNL     1      -7.524  19.897  66.012  1.00  0.00    -0.299 OA 
HETATM   44  H2  UNL     1      -7.753  17.175  67.597  1.00  0.00     0.000 HD 
HETATM   45  H1  UNL     1      -6.370  17.882  66.732  1.00  0.00     0.000 HD 
ENDBRANCH  38  41
ENDBRANCH  37  38
ENDBRANCH  34  37
ENDBRANCH  25  28
ENDBRANCH  21  25
ENDBRANCH  17  21
ENDBRANCH  11  15
ENDBRANCH   6   7
ENDBRANCH   5   6
ENDBRANCH   4   5
ENDBRANCH   3   4
ENDBRANCH   2   3
TORSDOF 13
ENDMDL
MODEL       56
REMARK 921   NORMALIZED FREE ENERGY PREDICTED BY IDOCK:   -4.92 KCAL/MOL
REMARK 922        TOTAL FREE ENERGY PREDICTED BY IDOCK:  -10.97 KCAL/MOL
REMARK 923 INTER-LIGAND FREE ENERGY PREDICTED BY IDOCK:   -8.66 KCAL/MOL
REMARK 924 INTRA-LIGAND FREE ENERGY PREDICTED BY IDOCK:   -2.30 KCAL/MOL
REMARK 927      BINDING AFFINITY PREDICTED BY RF-SCORE:    0.00 PKD
ROOT
HETATM    1  C   UNL     1     -13.429   7.616  71.562  1.00  0.00    -0.336 C  
HETATM    2  O   UNL     1     -12.090   7.522  71.097  1.00  0.00    -0.306 OA 
ENDROOT
BRANCH   2   3
HETATM    3  C   UNL     1     -11.288   6.753  71.992  1.00  0.00    -0.272 C  
BRANCH   3   4
HETATM    4  C   UNL     1     -10.372   7.678  72.783  1.00  0.00    -0.351 C  
BRANCH   4   5
HETATM    5  C   UNL     1      -9.761   8.805  71.951  1.00  0.00    -0.316 C  
BRANCH   5   6
HETATM    6  O   UNL     1      -8.339   8.722  71.979  1.00  0.00    -0.324 OA 
BRANCH   6   7
HETATM    7  C   UNL     1      -7.645   8.376  70.846  1.00  0.00    -0.079 A  
HETATM    8  C   UNL     1      -6.578   9.237  70.507  1.00  0.00    -0.072 A  
HETATM    9  C   UNL     1      -5.906   9.057  69.296  1.00  0.00    -0.035 A  
HETATM   10  C   UNL     1      -8.022   7.353  69.967  1.00  0.00    -0.119 A  
HETATM   11  C   UNL     1      -7.399   7.225  68.711  1.00  0.00    -0.096 A  
HETATM   12  C   UNL     1      -6.331   8.071  68.400  1.00  0.00    -0.050 A  
BRANCH   8  13
HETATM   13  O   UNL     1      -6.285  10.223  71.419  1.00  0.00    -0.320 OA 
HETATM   14  C   UNL     1      -5.252  11.141  71.092  1.00  0.00    -0.098 C  
ENDBRANCH   8  13
BRANCH  11  15
HETATM   15  C   UNL     1      -8.004   6.350  67.632  1.00  0.00    -0.114 C  
HETATM   16  C   UNL     1      -8.990   6.921  66.580  1.00  0.00    -0.157 C  
HETATM   17  C   UNL     1      -9.261   5.828  65.477  1.00  0.00     0.015 C  
HETATM   18  C   UNL     1     -10.364   7.423  67.121  1.00  0.00    -0.377 C  
HETATM   19  C   UNL     1     -10.257   8.707  67.947  1.00  0.00    -0.273 C  
HETATM   20  C   UNL     1     -11.157   6.359  67.884  1.00  0.00    -0.370 C  
BRANCH  17  21
HETATM   21  C   UNL     1      -8.034   5.395  64.649  1.00  0.00    -0.112 C  
HETATM   22  N   UNL     1      -7.519   4.157  65.247  1.00  0.00    -0.076 NA 
HETATM   23  H1  UNL     1      -6.707   3.871  64.699  1.00  0.00     0.000 HD 
HETATM   24  H2  UNL     1      -8.226   3.426  65.323  1.00  0.00     0.000 HD 
BRANCH  21  25
HETATM   25  C   UNL     1      -6.919   6.502  64.532  1.00  0.00    -0.051 C  
HETATM   26  H   UNL     1      -5.170   6.757  63.633  1.00  0.00     0.000 HD 
HETATM   27  O   UNL     1      -5.843   6.090  63.703  1.00  0.00    -0.021 OA 
BRANCH  25  28
HETATM   28  C   UNL     1      -7.567   7.795  63.998  1.00  0.00    -0.113 C  
HETATM   29  C   UNL     1      -7.496   9.121  64.792  1.00  0.00    -0.106 C  
HETATM   30  C   UNL     1      -8.339  10.104  63.953  1.00  0.00    -0.172 C  
HETATM   31  C   UNL     1      -6.065   9.676  65.051  1.00  0.00    -0.085 C  
HETATM   32  C   UNL     1      -6.049  10.933  65.931  1.00  0.00    -0.103 C  
HETATM   33  O   UNL     1      -8.323  10.130  62.724  1.00  0.00    -0.143 OA 
HETATM   34  N   UNL     1      -9.119  10.974  64.683  1.00  0.00    -0.321 N  
HETATM   35  C   UNL     1      -5.262   9.910  63.767  1.00  0.00    -0.082 C  
HETATM   36  H   UNL     1      -9.044  10.990  65.700  1.00  0.00     0.000 HD 
BRANCH  34  37
HETATM   37  C   UNL     1     -10.046  11.868  64.014  1.00  0.00    -0.334 C  
BRANCH  37  38
HETATM   38  C   UNL     1     -10.801  12.802  64.974  1.00  0.00    -0.319 C  
HETATM   39  C   UNL     1     -10.923  12.133  66.360  1.00  0.00    -0.327 C  
HETATM   40  C   UNL     1     -10.064  14.144  65.124  1.00  0.00    -0.348 C  
BRANCH  38  41
HETATM   41  C   UNL     1     -12.214  13.045  64.424  1.00  0.00    -0.406 C  
HETATM   42  N   UNL     1     -12.476  12.607  63.163  1.00  0.00    -0.755 N  
HETATM   43  O   UNL     1     -13.107  13.598  65.061  1.00  0.00    -0.742 OA 
HETATM   44  H2  UNL     1     -11.764  12.137  62.605  1.00  0.00     0.000 HD 
HETATM   45  H1  UNL     1     -13.414  12.768  62.798  1.00  0.00     0.000 HD 
ENDBRANCH  38  41
ENDBRANCH  37  38
ENDBRANCH  34  37
ENDBRANCH  25  28
ENDBRANCH  21  25
ENDBRANCH  17  21
ENDBRANCH  11  15
ENDBRANCH   6   7
ENDBRANCH   5   6
ENDBRANCH   4   5
ENDBRANCH   3   4
ENDBRANCH   2   3
TORSDOF 13
ENDMDL
MODEL       57
REMARK 921   NORMALIZED FREE ENERGY PREDICTED BY IDOCK:   -4.91 KCAL/MOL
REMARK 922        TOTAL FREE ENERGY PREDICTED BY IDOCK:  -10.96 KCAL/MOL
REMARK 923 INTER-LIGAND FREE ENERGY PREDICTED BY IDOCK:   -9.35 KCAL/MOL
REMARK 924 INTRA-LIGAND FREE ENERGY PREDICTED BY IDOCK:   -1.60 KCAL/MOL
REMARK 927      BINDING AFFINITY PREDICTED BY RF-SCORE:    0.00 PKD
ROOT
HETATM    1  C   UNL     1     -13.310  15.350  71.837  1.00  0.00    -0.461 C  
HETATM    2  O   UNL     1     -12.903  15.354  70.476  1.00  0.00    -0.417 OA 
ENDROOT
BRANCH   2   3
HETATM    3  C   UNL     1     -12.177  14.169  70.153  1.00  0.00    -0.351 C  
BRANCH   3   4
HETATM    4  C   UNL     1     -11.841  14.164  68.668  1.00  0.00    -0.383 C  
BRANCH   4   5
HETATM    5  C   UNL     1     -11.064  12.928  68.213  1.00  0.00    -0.264 C  
BRANCH   5   6
HETATM    6  O   UNL     1     -10.076  13.293  67.254  1.00  0.00    -0.230 OA 
BRANCH   6   7
HETATM    7  C   UNL     1      -9.943  12.574  66.091  1.00  0.00    -0.255 A  
HETATM    8  C   UNL     1     -10.497  13.181  64.943  1.00  0.00    -0.351 A  
HETATM    9  C   UNL     1     -10.546  12.467  63.743  1.00  0.00    -0.471 A  
HETATM   10  C   UNL     1      -9.451  11.266  66.020  1.00  0.00    -0.240 A  
HETATM   11  C   UNL     1      -9.576  10.519  64.833  1.00  0.00    -0.334 A  
HETATM   12  C   UNL     1     -10.108  11.141  63.700  1.00  0.00    -0.432 A  
BRANCH   8  13
HETATM   13  O   UNL     1     -10.972  14.461  65.106  1.00  0.00    -0.331 OA 
HETATM   14  C   UNL     1     -12.282  14.745  64.636  1.00  0.00    -0.393 C  
ENDBRANCH   8  13
BRANCH  11  15
HETATM   15  C   UNL     1      -9.354   9.021  64.834  1.00  0.00     0.047 C  
HETATM   16  C   UNL     1      -7.990   8.401  65.233  1.00  0.00    -0.125 C  
HETATM   17  C   UNL     1      -8.144   6.836  65.349  1.00  0.00    -0.129 C  
HETATM   18  C   UNL     1      -6.788   8.705  64.286  1.00  0.00    -0.074 C  
HETATM   19  C   UNL     1      -6.322  10.161  64.349  1.00  0.00    -0.127 C  
HETATM   20  C   UNL     1      -7.018   8.278  62.835  1.00  0.00    -0.090 C  
BRANCH  17  21
HETATM   21  C   UNL     1      -9.118   6.340  66.437  1.00  0.00    -0.153 C  
HETATM   22  N   UNL     1     -10.136   7.381  66.621  1.00  0.00    -0.411 NA 
HETATM   23  H1  UNL     1     -10.779   7.053  67.341  1.00  0.00     0.000 HD 
HETATM   24  H2  UNL     1     -10.605   7.639  65.753  1.00  0.00     0.000 HD 
BRANCH  21  25
HETATM   25  C   UNL     1      -8.417   5.954  67.794  1.00  0.00    -0.107 C  
HETATM   26  H   UNL     1      -6.582   5.842  68.538  1.00  0.00     0.000 HD 
HETATM   27  O   UNL     1      -7.004   6.076  67.720  1.00  0.00    -0.065 OA 
BRANCH  25  28
HETATM   28  C   UNL     1      -8.991   6.846  68.913  1.00  0.00    -0.131 C  
HETATM   29  C   UNL     1      -9.304   6.279  70.317  1.00  0.00    -0.170 C  
HETATM   30  C   UNL     1      -9.938   7.468  71.068  1.00  0.00    -0.186 C  
HETATM   31  C   UNL     1      -8.088   5.697  71.095  1.00  0.00    -0.116 C  
HETATM   32  C   UNL     1      -8.473   5.053  72.435  1.00  0.00    -0.121 C  
HETATM   33  O   UNL     1      -9.542   8.627  70.955  1.00  0.00    -0.176 OA 
HETATM   34  N   UNL     1     -10.988   7.142  71.897  1.00  0.00    -0.228 N  
HETATM   35  C   UNL     1      -6.953   6.707  71.292  1.00  0.00    -0.074 C  
HETATM   36  H   UNL     1     -11.236   6.163  72.040  1.00  0.00     0.000 HD 
BRANCH  34  37
HETATM   37  C   UNL     1     -11.745   8.183  72.569  1.00  0.00    -0.394 C  
BRANCH  37  38
HETATM   38  C   UNL     1     -13.031   8.585  71.826  1.00  0.00    -0.380 C  
HETATM   39  C   UNL     1     -13.353   7.535  70.742  1.00  0.00     0.173 C  
HETATM   40  C   UNL     1     -14.216   8.687  72.801  1.00  0.00    -0.121 C  
BRANCH  38  41
HETATM   41  C   UNL     1     -12.805   9.940  71.140  1.00  0.00    -0.368 C  
HETATM   42  N   UNL     1     -12.271   9.924  69.889  1.00  0.00    -0.469 N  
HETATM   43  O   UNL     1     -13.088  11.019  71.654  1.00  0.00    -0.446 OA 
HETATM   44  H2  UNL     1     -12.029   9.048  69.426  1.00  0.00     0.000 HD 
HETATM   45  H1  UNL     1     -12.121  10.824  69.433  1.00  0.00     0.000 HD 
ENDBRANCH  38  41
ENDBRANCH  37  38
ENDBRANCH  34  37
ENDBRANCH  25  28
ENDBRANCH  21  25
ENDBRANCH  17  21
ENDBRANCH  11  15
ENDBRANCH   6   7
ENDBRANCH   5   6
ENDBRANCH   4   5
ENDBRANCH   3   4
ENDBRANCH   2   3
TORSDOF 13
ENDMDL
MODEL       58
REMARK 921   NORMALIZED FREE ENERGY PREDICTED BY IDOCK:   -4.86 KCAL/MOL
REMARK 922        TOTAL FREE ENERGY PREDICTED BY IDOCK:  -10.86 KCAL/MOL
REMARK 923 INTER-LIGAND FREE ENERGY PREDICTED BY IDOCK:   -9.18 KCAL/MOL
REMARK 924 INTRA-LIGAND FREE ENERGY PREDICTED BY IDOCK:   -1.68 KCAL/MOL
REMARK 927      BINDING AFFINITY PREDICTED BY RF-SCORE:    0.00 PKD
ROOT
HETATM    1  C   UNL     1     -11.636  13.474  63.853  1.00  0.00    -0.306 C  
HETATM    2  O   UNL     1     -10.632  13.847  64.786  1.00  0.00    -0.391 OA 
ENDROOT
BRANCH   2   3
HETATM    3  C   UNL     1     -11.209  14.286  66.014  1.00  0.00    -0.324 C  
BRANCH   3   4
HETATM    4  C   UNL     1     -12.213  13.252  66.507  1.00  0.00    -0.389 C  
BRANCH   4   5
HETATM    5  C   UNL     1     -11.892  12.688  67.891  1.00  0.00    -0.332 C  
BRANCH   5   6
HETATM    6  O   UNL     1     -11.960  11.266  67.871  1.00  0.00    -0.630 OA 
BRANCH   6   7
HETATM    7  C   UNL     1     -10.968  10.518  68.457  1.00  0.00    -0.252 A  
HETATM    8  C   UNL     1     -10.037   9.946  67.563  1.00  0.00    -0.197 A  
HETATM    9  C   UNL     1      -9.080   9.050  68.046  1.00  0.00    -0.140 A  
HETATM   10  C   UNL     1     -10.928  10.183  69.816  1.00  0.00    -0.325 A  
HETATM   11  C   UNL     1     -10.017   9.218  70.287  1.00  0.00    -0.262 A  
HETATM   12  C   UNL     1      -9.089   8.676  69.393  1.00  0.00    -0.149 A  
BRANCH   8  13
HETATM   13  O   UNL     1     -10.159  10.317  66.245  1.00  0.00    -0.222 OA 
HETATM   14  C   UNL     1      -9.415   9.586  65.281  1.00  0.00    -0.258 C  
ENDBRANCH   8  13
BRANCH  11  15
HETATM   15  C   UNL     1     -10.177   8.611  71.665  1.00  0.00    -0.366 C  
HETATM   16  C   UNL     1     -10.300   7.079  71.871  1.00  0.00    -0.213 C  
HETATM   17  C   UNL     1     -10.227   6.754  73.411  1.00  0.00    -0.293 C  
HETATM   18  C   UNL     1     -11.579   6.403  71.287  1.00  0.00    -0.370 C  
HETATM   19  C   UNL     1     -11.595   6.357  69.758  1.00  0.00    -0.397 C  
HETATM   20  C   UNL     1     -12.888   6.989  71.820  1.00  0.00    -0.365 C  
BRANCH  17  21
HETATM   21  C   UNL     1      -8.904   7.124  74.111  1.00  0.00    -0.210 C  
HETATM   22  N   UNL     1      -8.781   8.586  74.071  1.00  0.00    -0.299 NA 
HETATM   23  H1  UNL     1      -7.906   8.831  74.533  1.00  0.00     0.000 HD 
HETATM   24  H2  UNL     1      -9.590   9.065  74.468  1.00  0.00     0.000 HD 
BRANCH  21  25
HETATM   25  C   UNL     1      -7.638   6.410  73.502  1.00  0.00    -0.093 C  
HETATM   26  H   UNL     1      -6.115   5.301  74.125  1.00  0.00     0.000 HD 
HETATM   27  O   UNL     1      -6.879   5.731  74.492  1.00  0.00    -0.079 OA 
BRANCH  25  28
HETATM   28  C   UNL     1      -8.106   5.438  72.401  1.00  0.00    -0.107 C  
HETATM   29  C   UNL     1      -7.457   5.436  70.997  1.00  0.00    -0.088 C  
HETATM   30  C   UNL     1      -8.281   4.399  70.206  1.00  0.00    -0.066 C  
HETATM   31  C   UNL     1      -5.937   5.107  70.956  1.00  0.00    -0.021 C  
HETATM   32  C   UNL     1      -5.325   5.223  69.553  1.00  0.00    -0.004 C  
HETATM   33  O   UNL     1      -8.681   3.342  70.691  1.00  0.00    -0.068 OA 
HETATM   34  N   UNL     1      -8.534   4.731  68.894  1.00  0.00    -0.081 N  
HETATM   35  C   UNL     1      -5.592   3.750  71.581  1.00  0.00    -0.008 C  
HETATM   36  H   UNL     1      -8.114   5.570  68.493  1.00  0.00     0.000 HD 
BRANCH  34  37
HETATM   37  C   UNL     1      -9.397   3.897  68.077  1.00  0.00    -0.174 C  
BRANCH  37  38
HETATM   38  C   UNL     1      -9.215   4.118  66.566  1.00  0.00    -0.163 C  
HETATM   39  C   UNL     1      -7.864   4.818  66.303  1.00  0.00    -0.099 C  
HETATM   40  C   UNL     1      -9.247   2.779  65.810  1.00  0.00    -0.094 C  
BRANCH  38  41
HETATM   41  C   UNL     1     -10.342   5.028  66.057  1.00  0.00    -0.237 C  
HETATM   42  N   UNL     1     -11.275   4.469  65.241  1.00  0.00    -0.973 N  
HETATM   43  O   UNL     1     -10.444   6.216  66.354  1.00  0.00    -0.140 OA 
HETATM   44  H2  UNL     1     -11.229   3.484  64.977  1.00  0.00     0.000 HD 
HETATM   45  H1  UNL     1     -12.024   5.073  64.902  1.00  0.00     0.000 HD 
ENDBRANCH  38  41
ENDBRANCH  37  38
ENDBRANCH  34  37
ENDBRANCH  25  28
ENDBRANCH  21  25
ENDBRANCH  17  21
ENDBRANCH  11  15
ENDBRANCH   6   7
ENDBRANCH   5   6
ENDBRANCH   4   5
ENDBRANCH   3   4
ENDBRANCH   2   3
TORSDOF 13
ENDMDL
MODEL       59
REMARK 921   NORMALIZED FREE ENERGY PREDICTED BY IDOCK:   -4.85 KCAL/MOL
REMARK 922        TOTAL FREE ENERGY PREDICTED BY IDOCK:  -10.85 KCAL/MOL
REMARK 923 INTER-LIGAND FREE ENERGY PREDICTED BY IDOCK:   -8.90 KCAL/MOL
REMARK 924 INTRA-LIGAND FREE ENERGY PREDICTED BY IDOCK:   -1.94 KCAL/MOL
REMARK 927      BINDING AFFINITY PREDICTED BY RF-SCORE:    0.00 PKD
ROOT
HETATM    1  C   UNL     1      -8.366   4.911  72.440  1.00  0.00    -0.120 C  
HETATM    2  O   UNL     1      -9.563   4.758  73.189  1.00  0.00    -0.133 OA 
ENDROOT
BRANCH   2   3
HETATM    3  C   UNL     1     -10.710   5.033  72.386  1.00  0.00    -0.200 C  
BRANCH   3   4
HETATM    4  C   UNL     1     -10.517   6.354  71.653  1.00  0.00    -0.251 C  
BRANCH   4   5
HETATM    5  C   UNL     1     -11.604   6.655  70.621  1.00  0.00    -0.382 C  
BRANCH   5   6
HETATM    6  O   UNL     1     -11.329   5.972  69.402  1.00  0.00    -0.398 OA 
BRANCH   6   7
HETATM    7  C   UNL     1     -10.162   6.219  68.720  1.00  0.00    -0.178 A  
HETATM    8  C   UNL     1      -9.348   5.089  68.491  1.00  0.00    -0.127 A  
HETATM    9  C   UNL     1      -8.075   5.257  67.939  1.00  0.00    -0.099 A  
HETATM   10  C   UNL     1      -9.690   7.497  68.396  1.00  0.00    -0.161 A  
HETATM   11  C   UNL     1      -8.377   7.672  67.918  1.00  0.00    -0.123 A  
HETATM   12  C   UNL     1      -7.592   6.542  67.677  1.00  0.00    -0.105 A  
BRANCH   8  13
HETATM   13  O   UNL     1      -9.884   3.876  68.853  1.00  0.00    -0.110 OA 
HETATM   14  C   UNL     1      -9.021   2.929  69.468  1.00  0.00    -0.108 C  
ENDBRANCH   8  13
BRANCH  11  15
HETATM   15  C   UNL     1      -7.746   9.049  67.876  1.00  0.00    -0.097 C  
HETATM   16  C   UNL     1      -7.919   9.987  66.653  1.00  0.00    -0.115 C  
HETATM   17  C   UNL     1      -7.341  11.410  67.005  1.00  0.00    -0.144 C  
HETATM   18  C   UNL     1      -7.269   9.510  65.318  1.00  0.00    -0.104 C  
HETATM   19  C   UNL     1      -7.980   8.307  64.694  1.00  0.00    -0.145 C  
HETATM   20  C   UNL     1      -5.764   9.250  65.419  1.00  0.00    -0.057 C  
BRANCH  17  21
HETATM   21  C   UNL     1      -8.050  12.154  68.154  1.00  0.00    -0.161 C  
HETATM   22  N   UNL     1      -7.472  11.667  69.413  1.00  0.00    -0.344 NA 
HETATM   23  H1  UNL     1      -7.941  12.159  70.173  1.00  0.00     0.000 HD 
HETATM   24  H2  UNL     1      -6.456  11.756  69.446  1.00  0.00     0.000 HD 
BRANCH  21  25
HETATM   25  C   UNL     1      -9.619  12.015  68.135  1.00  0.00    -0.200 C  
HETATM   26  H   UNL     1     -11.044  11.120  69.185  1.00  0.00     0.000 HD 
HETATM   27  O   UNL     1     -10.098  11.204  69.197  1.00  0.00    -0.195 OA 
BRANCH  25  28
HETATM   28  C   UNL     1     -10.237  13.427  68.196  1.00  0.00    -0.246 C  
HETATM   29  C   UNL     1     -10.326  14.324  66.938  1.00  0.00    -0.268 C  
HETATM   30  C   UNL     1     -10.907  15.651  67.467  1.00  0.00    -0.316 C  
HETATM   31  C   UNL     1     -11.176  13.757  65.765  1.00  0.00    -0.300 C  
HETATM   32  C   UNL     1     -11.143  14.637  64.507  1.00  0.00    -0.269 C  
HETATM   33  O   UNL     1     -11.793  15.709  68.319  1.00  0.00    -0.318 OA 
HETATM   34  N   UNL     1     -10.370  16.789  66.906  1.00  0.00    -0.299 N  
HETATM   35  C   UNL     1     -12.622  13.440  66.159  1.00  0.00    -0.294 C  
HETATM   36  H   UNL     1      -9.704  16.709  66.138  1.00  0.00     0.000 HD 
BRANCH  34  37
HETATM   37  C   UNL     1     -10.747  18.101  67.400  1.00  0.00    -0.335 C  
BRANCH  37  38
HETATM   38  C   UNL     1      -9.550  19.038  67.631  1.00  0.00    -0.362 C  
HETATM   39  C   UNL     1      -9.721  20.316  66.781  1.00  0.00    -0.571 C  
HETATM   40  C   UNL     1      -9.439  19.428  69.114  1.00  0.00    -0.321 C  
BRANCH  38  41
HETATM   41  C   UNL     1      -8.267  18.325  67.184  1.00  0.00    -0.234 C  
HETATM   42  N   UNL     1      -7.371  17.989  68.150  1.00  0.00    -0.241 N  
HETATM   43  O   UNL     1      -8.017  18.041  66.015  1.00  0.00    -0.475 OA 
HETATM   44  H2  UNL     1      -7.545  18.202  69.133  1.00  0.00     0.000 HD 
HETATM   45  H1  UNL     1      -6.518  17.516  67.854  1.00  0.00     0.000 HD 
ENDBRANCH  38  41
ENDBRANCH  37  38
ENDBRANCH  34  37
ENDBRANCH  25  28
ENDBRANCH  21  25
ENDBRANCH  17  21
ENDBRANCH  11  15
ENDBRANCH   6   7
ENDBRANCH   5   6
ENDBRANCH   4   5
ENDBRANCH   3   4
ENDBRANCH   2   3
TORSDOF 13
ENDMDL
MODEL       60
REMARK 921   NORMALIZED FREE ENERGY PREDICTED BY IDOCK:   -4.84 KCAL/MOL
REMARK 922        TOTAL FREE ENERGY PREDICTED BY IDOCK:  -10.84 KCAL/MOL
REMARK 923 INTER-LIGAND FREE ENERGY PREDICTED BY IDOCK:   -9.10 KCAL/MOL
REMARK 924 INTRA-LIGAND FREE ENERGY PREDICTED BY IDOCK:   -1.73 KCAL/MOL
REMARK 927      BINDING AFFINITY PREDICTED BY RF-SCORE:    0.00 PKD
ROOT
HETATM    1  C   UNL     1      -5.126  18.787  71.172  1.00  0.00    -0.283 C  
HETATM    2  O   UNL     1      -6.214  19.701  71.155  1.00  0.00    -0.090 OA 
ENDROOT
BRANCH   2   3
HETATM    3  C   UNL     1      -6.707  19.887  69.830  1.00  0.00    -0.276 C  
BRANCH   3   4
HETATM    4  C   UNL     1      -7.581  18.703  69.438  1.00  0.00     0.086 C  
BRANCH   4   5
HETATM    5  C   UNL     1      -6.936  17.770  68.414  1.00  0.00    -0.228 C  
BRANCH   5   6
HETATM    6  O   UNL     1      -7.251  18.196  67.092  1.00  0.00    -0.194 OA 
BRANCH   6   7
HETATM    7  C   UNL     1      -8.334  17.666  66.434  1.00  0.00    -0.253 A  
HETATM    8  C   UNL     1      -9.437  18.536  66.293  1.00  0.00    -0.250 A  
HETATM    9  C   UNL     1     -10.638  18.046  65.773  1.00  0.00    -0.174 A  
HETATM   10  C   UNL     1      -8.450  16.323  66.054  1.00  0.00    -0.185 A  
HETATM   11  C   UNL     1      -9.684  15.812  65.608  1.00  0.00    -0.332 A  
HETATM   12  C   UNL     1     -10.760  16.691  65.455  1.00  0.00    -0.234 A  
BRANCH   8  13
HETATM   13  O   UNL     1      -9.240  19.832  66.706  1.00  0.00    -0.329 OA 
HETATM   14  C   UNL     1     -10.236  20.423  67.528  1.00  0.00    -0.281 C  
ENDBRANCH   8  13
BRANCH  11  15
HETATM   15  C   UNL     1      -9.913  14.318  65.509  1.00  0.00    -0.341 C  
HETATM   16  C   UNL     1     -11.286  13.681  65.843  1.00  0.00    -0.317 C  
HETATM   17  C   UNL     1     -11.266  12.159  65.432  1.00  0.00    -0.381 C  
HETATM   18  C   UNL     1     -11.752  13.781  67.328  1.00  0.00    -0.416 C  
HETATM   19  C   UNL     1     -12.133  15.202  67.749  1.00  0.00     0.101 C  
HETATM   20  C   UNL     1     -10.769  13.171  68.330  1.00  0.00    -0.261 C  
BRANCH  17  21
HETATM   21  C   UNL     1     -11.074  11.876  63.929  1.00  0.00    -0.412 C  
HETATM   22  N   UNL     1     -12.391  11.539  63.375  1.00  0.00    -0.764 NA 
HETATM   23  H1  UNL     1     -12.264  11.351  62.381  1.00  0.00     0.000 HD 
HETATM   24  H2  UNL     1     -13.096  12.254  63.559  1.00  0.00     0.000 HD 
BRANCH  21  25
HETATM   25  C   UNL     1     -10.004  10.762  63.620  1.00  0.00    -0.345 C  
HETATM   26  H   UNL     1      -8.478  10.469  62.386  1.00  0.00     0.000 HD 
HETATM   27  O   UNL     1      -9.124  11.141  62.572  1.00  0.00    -0.330 OA 
BRANCH  25  28
HETATM   28  C   UNL     1      -9.223  10.460  64.916  1.00  0.00    -0.263 C  
HETATM   29  C   UNL     1      -8.916   9.009  65.353  1.00  0.00    -0.249 C  
HETATM   30  C   UNL     1      -8.221   9.170  66.721  1.00  0.00    -0.119 C  
HETATM   31  C   UNL     1      -8.045   8.177  64.367  1.00  0.00    -0.138 C  
HETATM   32  C   UNL     1      -7.859   6.716  64.800  1.00  0.00    -0.115 C  
HETATM   33  O   UNL     1      -7.412  10.064  66.967  1.00  0.00    -0.091 OA 
HETATM   34  N   UNL     1      -8.562   8.226  67.665  1.00  0.00    -0.130 N  
HETATM   35  C   UNL     1      -6.688   8.822  64.063  1.00  0.00    -0.083 C  
HETATM   36  H   UNL     1      -9.165   7.446  67.405  1.00  0.00     0.000 HD 
BRANCH  34  37
HETATM   37  C   UNL     1      -8.069   8.335  69.026  1.00  0.00    -0.117 C  
BRANCH  37  38
HETATM   38  C   UNL     1      -9.140   8.786  70.033  1.00  0.00    -0.164 C  
HETATM   39  C   UNL     1      -8.527   8.845  71.450  1.00  0.00    -0.216 C  
HETATM   40  C   UNL     1      -9.690  10.173  69.663  1.00  0.00    -0.250 C  
BRANCH  38  41
HETATM   41  C   UNL     1     -10.281   7.760  70.040  1.00  0.00    -0.210 C  
HETATM   42  N   UNL     1     -11.487   8.164  69.559  1.00  0.00    -0.287 N  
HETATM   43  O   UNL     1     -10.157   6.605  70.443  1.00  0.00    -0.182 OA 
HETATM   44  H2  UNL     1     -11.628   9.112  69.209  1.00  0.00     0.000 HD 
HETATM   45  H1  UNL     1     -12.246   7.483  69.564  1.00  0.00     0.000 HD 
ENDBRANCH  38  41
ENDBRANCH  37  38
ENDBRANCH  34  37
ENDBRANCH  25  28
ENDBRANCH  21  25
ENDBRANCH  17  21
ENDBRANCH  11  15
ENDBRANCH   6   7
ENDBRANCH   5   6
ENDBRANCH   4   5
ENDBRANCH   3   4
ENDBRANCH   2   3
TORSDOF 13
ENDMDL
MODEL       61
REMARK 921   NORMALIZED FREE ENERGY PREDICTED BY IDOCK:   -4.82 KCAL/MOL
REMARK 922        TOTAL FREE ENERGY PREDICTED BY IDOCK:  -10.79 KCAL/MOL
REMARK 923 INTER-LIGAND FREE ENERGY PREDICTED BY IDOCK:   -8.07 KCAL/MOL
REMARK 924 INTRA-LIGAND FREE ENERGY PREDICTED BY IDOCK:   -2.72 KCAL/MOL
REMARK 927      BINDING AFFINITY PREDICTED BY RF-SCORE:    0.00 PKD
ROOT
HETATM    1  C   UNL     1      -7.274  17.941  65.985  1.00  0.00    -0.290 C  
HETATM    2  O   UNL     1      -8.195  17.703  67.040  1.00  0.00    -0.207 OA 
ENDROOT
BRANCH   2   3
HETATM    3  C   UNL     1      -9.473  17.323  66.529  1.00  0.00    -0.269 C  
BRANCH   3   4
HETATM    4  C   UNL     1      -9.370  15.962  65.855  1.00  0.00    -0.353 C  
BRANCH   4   5
HETATM    5  C   UNL     1      -9.463  14.782  66.822  1.00  0.00    -0.254 C  
BRANCH   5   6
HETATM    6  O   UNL     1     -10.800  14.292  66.874  1.00  0.00    -0.291 OA 
BRANCH   6   7
HETATM    7  C   UNL     1     -11.048  13.004  67.281  1.00  0.00    -0.273 A  
HETATM    8  C   UNL     1     -11.777  12.883  68.484  1.00  0.00    -0.339 A  
HETATM    9  C   UNL     1     -11.952  11.622  69.059  1.00  0.00    -0.368 A  
HETATM   10  C   UNL     1     -10.505  11.864  66.676  1.00  0.00    -0.250 A  
HETATM   11  C   UNL     1     -10.612  10.606  67.300  1.00  0.00    -0.313 A  
HETATM   12  C   UNL     1     -11.354  10.500  68.479  1.00  0.00    -0.320 A  
BRANCH   8  13
HETATM   13  O   UNL     1     -12.260  14.054  69.018  1.00  0.00    -0.346 OA 
HETATM   14  C   UNL     1     -12.182  14.221  70.426  1.00  0.00    -0.342 C  
ENDBRANCH   8  13
BRANCH  11  15
HETATM   15  C   UNL     1      -9.764   9.439  66.838  1.00  0.00    -0.242 C  
HETATM   16  C   UNL     1      -8.562   8.926  67.671  1.00  0.00    -0.124 C  
HETATM   17  C   UNL     1      -8.031   7.580  67.044  1.00  0.00    -0.116 C  
HETATM   18  C   UNL     1      -7.357   9.904  67.823  1.00  0.00    -0.089 C  
HETATM   19  C   UNL     1      -7.663  11.108  68.716  1.00  0.00    -0.136 C  
HETATM   20  C   UNL     1      -6.759  10.363  66.491  1.00  0.00    -0.099 C  
BRANCH  17  21
HETATM   21  C   UNL     1      -9.026   6.402  67.051  1.00  0.00    -0.119 C  
HETATM   22  N   UNL     1      -9.169   5.943  65.664  1.00  0.00    -0.342 NA 
HETATM   23  H1  UNL     1      -9.827   5.164  65.667  1.00  0.00     0.000 HD 
HETATM   24  H2  UNL     1      -8.278   5.710  65.226  1.00  0.00     0.000 HD 
BRANCH  21  25
HETATM   25  C   UNL     1     -10.418   6.744  67.705  1.00  0.00    -0.229 C  
HETATM   26  H   UNL     1     -12.346   6.560  67.275  1.00  0.00     0.000 HD 
HETATM   27  O   UNL     1     -11.507   6.353  66.881  1.00  0.00    -0.188 OA 
BRANCH  25  28
HETATM   28  C   UNL     1     -10.493   6.057  69.083  1.00  0.00    -0.321 C  
HETATM   29  C   UNL     1      -9.727   6.614  70.305  1.00  0.00    -0.182 C  
HETATM   30  C   UNL     1     -10.002   5.584  71.421  1.00  0.00    -0.186 C  
HETATM   31  C   UNL     1     -10.120   8.053  70.750  1.00  0.00    -0.207 C  
HETATM   32  C   UNL     1      -9.257   8.594  71.898  1.00  0.00    -0.345 C  
HETATM   33  O   UNL     1     -11.093   5.040  71.583  1.00  0.00     0.004 OA 
HETATM   34  N   UNL     1      -8.932   5.315  72.245  1.00  0.00    -0.129 N  
HETATM   35  C   UNL     1     -11.609   8.200  71.083  1.00  0.00    -0.306 C  
HETATM   36  H   UNL     1      -8.068   5.847  72.143  1.00  0.00     0.000 HD 
BRANCH  34  37
HETATM   37  C   UNL     1      -9.026   4.279  73.257  1.00  0.00    -0.104 C  
BRANCH  37  38
HETATM   38  C   UNL     1      -8.437   2.930  72.814  1.00  0.00    -0.072 C  
HETATM   39  C   UNL     1      -7.723   2.258  74.007  1.00  0.00    -0.049 C  
HETATM   40  C   UNL     1      -9.542   1.995  72.293  1.00  0.00    -0.173 C  
BRANCH  38  41
HETATM   41  C   UNL     1      -7.403   3.178  71.706  1.00  0.00    -0.043 C  
HETATM   42  N   UNL     1      -7.607   2.559  70.512  1.00  0.00    -0.042 N  
HETATM   43  O   UNL     1      -6.421   3.904  71.842  1.00  0.00    -0.014 OA 
HETATM   44  H2  UNL     1      -8.414   1.955  70.358  1.00  0.00     0.000 HD 
HETATM   45  H1  UNL     1      -6.920   2.724  69.776  1.00  0.00     0.000 HD 
ENDBRANCH  38  41
ENDBRANCH  37  38
ENDBRANCH  34  37
ENDBRANCH  25  28
ENDBRANCH  21  25
ENDBRANCH  17  21
ENDBRANCH  11  15
ENDBRANCH   6   7
ENDBRANCH   5   6
ENDBRANCH   4   5
ENDBRANCH   3   4
ENDBRANCH   2   3
TORSDOF 13
ENDMDL
MODEL       62
REMARK 921   NORMALIZED FREE ENERGY PREDICTED BY IDOCK:   -4.82 KCAL/MOL
REMARK 922        TOTAL FREE ENERGY PREDICTED BY IDOCK:  -10.79 KCAL/MOL
REMARK 923 INTER-LIGAND FREE ENERGY PREDICTED BY IDOCK:   -8.80 KCAL/MOL
REMARK 924 INTRA-LIGAND FREE ENERGY PREDICTED BY IDOCK:   -1.98 KCAL/MOL
REMARK 927      BINDING AFFINITY PREDICTED BY RF-SCORE:    0.00 PKD
ROOT
HETATM    1  C   UNL     1     -10.992  17.425  65.379  1.00  0.00     0.137 C  
HETATM    2  O   UNL     1     -11.022  18.781  64.957  1.00  0.00    -0.520 OA 
ENDROOT
BRANCH   2   3
HETATM    3  C   UNL     1     -10.350  19.625  65.891  1.00  0.00    -0.488 C  
BRANCH   3   4
HETATM    4  C   UNL     1     -11.061  19.567  67.236  1.00  0.00    -0.282 C  
BRANCH   4   5
HETATM    5  C   UNL     1     -10.122  19.366  68.425  1.00  0.00    -0.444 C  
BRANCH   5   6
HETATM    6  O   UNL     1      -8.827  18.985  67.971  1.00  0.00    -0.292 OA 
BRANCH   6   7
HETATM    7  C   UNL     1      -8.436  17.669  68.024  1.00  0.00    -0.244 A  
HETATM    8  C   UNL     1      -7.253  17.364  67.318  1.00  0.00    -0.167 A  
HETATM    9  C   UNL     1      -6.853  16.031  67.186  1.00  0.00    -0.223 A  
HETATM   10  C   UNL     1      -9.200  16.638  68.585  1.00  0.00    -0.248 A  
HETATM   11  C   UNL     1      -8.841  15.292  68.382  1.00  0.00    -0.179 A  
HETATM   12  C   UNL     1      -7.656  15.008  67.698  1.00  0.00    -0.198 A  
BRANCH   8  13
HETATM   13  O   UNL     1      -6.574  18.434  66.786  1.00  0.00    -0.179 OA 
HETATM   14  C   UNL     1      -6.243  18.388  65.405  1.00  0.00    -0.251 C  
ENDBRANCH   8  13
BRANCH  11  15
HETATM   15  C   UNL     1      -9.816  14.175  68.693  1.00  0.00    -0.206 C  
HETATM   16  C   UNL     1     -10.110  13.044  67.674  1.00  0.00    -0.217 C  
HETATM   17  C   UNL     1     -10.982  11.931  68.372  1.00  0.00    -0.273 C  
HETATM   18  C   UNL     1     -10.824  13.470  66.355  1.00  0.00    -0.291 C  
HETATM   19  C   UNL     1      -9.932  14.291  65.422  1.00  0.00    -0.334 C  
HETATM   20  C   UNL     1     -12.164  14.175  66.573  1.00  0.00    -0.463 C  
BRANCH  17  21
HETATM   21  C   UNL     1     -10.316  11.207  69.559  1.00  0.00     0.021 C  
HETATM   22  N   UNL     1      -9.174  10.454  69.028  1.00  0.00    -0.179 NA 
HETATM   23  H1  UNL     1      -8.733   9.974  69.813  1.00  0.00     0.000 HD 
HETATM   24  H2  UNL     1      -8.523  11.035  68.500  1.00  0.00     0.000 HD 
BRANCH  21  25
HETATM   25  C   UNL     1     -11.298  10.287  70.379  1.00  0.00    -0.332 C  
HETATM   26  H   UNL     1     -13.242  10.149  70.750  1.00  0.00     0.000 HD 
HETATM   27  O   UNL     1     -12.650  10.703  70.255  1.00  0.00    -0.324 OA 
BRANCH  25  28
HETATM   28  C   UNL     1     -11.120   8.832  69.901  1.00  0.00    -0.129 C  
HETATM   29  C   UNL     1     -10.681   7.711  70.872  1.00  0.00    -0.243 C  
HETATM   30  C   UNL     1     -10.539   6.469  69.968  1.00  0.00    -0.230 C  
HETATM   31  C   UNL     1     -11.641   7.439  72.066  1.00  0.00    -0.321 C  
HETATM   32  C   UNL     1     -11.106   6.393  73.053  1.00  0.00    -0.231 C  
HETATM   33  O   UNL     1     -11.316   6.209  69.050  1.00  0.00    -0.390 OA 
HETATM   34  N   UNL     1      -9.474   5.648  70.267  1.00  0.00    -0.157 N  
HETATM   35  C   UNL     1     -13.068   7.086  71.631  1.00  0.00    -0.384 C  
HETATM   36  H   UNL     1      -8.902   5.840  71.088  1.00  0.00     0.000 HD 
BRANCH  34  37
HETATM   37  C   UNL     1      -9.162   4.511  69.420  1.00  0.00    -0.129 C  
BRANCH  37  38
HETATM   38  C   UNL     1      -8.001   4.771  68.445  1.00  0.00    -0.084 C  
HETATM   39  C   UNL     1      -7.224   3.459  68.201  1.00  0.00    -0.051 C  
HETATM   40  C   UNL     1      -8.525   5.306  67.101  1.00  0.00    -0.106 C  
BRANCH  38  41
HETATM   41  C   UNL     1      -7.044   5.794  69.073  1.00  0.00    -0.069 C  
HETATM   42  N   UNL     1      -5.971   5.309  69.753  1.00  0.00    -0.017 N  
HETATM   43  O   UNL     1      -7.193   7.011  68.984  1.00  0.00    -0.085 OA 
HETATM   44  H2  UNL     1      -5.808   4.306  69.843  1.00  0.00     0.000 HD 
HETATM   45  H1  UNL     1      -5.335   5.988  70.170  1.00  0.00     0.000 HD 
ENDBRANCH  38  41
ENDBRANCH  37  38
ENDBRANCH  34  37
ENDBRANCH  25  28
ENDBRANCH  21  25
ENDBRANCH  17  21
ENDBRANCH  11  15
ENDBRANCH   6   7
ENDBRANCH   5   6
ENDBRANCH   4   5
ENDBRANCH   3   4
ENDBRANCH   2   3
TORSDOF 13
ENDMDL
MODEL       63
REMARK 921   NORMALIZED FREE ENERGY PREDICTED BY IDOCK:   -4.81 KCAL/MOL
REMARK 922        TOTAL FREE ENERGY PREDICTED BY IDOCK:  -10.78 KCAL/MOL
REMARK 923 INTER-LIGAND FREE ENERGY PREDICTED BY IDOCK:   -9.19 KCAL/MOL
REMARK 924 INTRA-LIGAND FREE ENERGY PREDICTED BY IDOCK:   -1.59 KCAL/MOL
REMARK 927      BINDING AFFINITY PREDICTED BY RF-SCORE:    0.00 PKD
ROOT
HETATM    1  C   UNL     1     -12.506  11.803  69.673  1.00  0.00     0.044 C  
HETATM    2  O   UNL     1     -12.127  11.343  70.963  1.00  0.00    -0.318 OA 
ENDROOT
BRANCH   2   3
HETATM    3  C   UNL     1     -13.257  11.255  71.829  1.00  0.00    -0.375 C  
BRANCH   3   4
HETATM    4  C   UNL     1     -13.627   9.793  72.042  1.00  0.00    -0.436 C  
BRANCH   4   5
HETATM    5  C   UNL     1     -12.650   8.807  71.401  1.00  0.00    -0.294 C  
BRANCH   5   6
HETATM    6  O   UNL     1     -11.368   8.918  72.012  1.00  0.00    -0.353 OA 
BRANCH   6   7
HETATM    7  C   UNL     1     -10.229   8.807  71.252  1.00  0.00    -0.262 A  
HETATM    8  C   UNL     1      -9.026   8.710  71.983  1.00  0.00    -0.216 A  
HETATM    9  C   UNL     1      -7.804   8.743  71.306  1.00  0.00    -0.167 A  
HETATM   10  C   UNL     1     -10.192   8.936  69.858  1.00  0.00    -0.209 A  
HETATM   11  C   UNL     1      -8.960   9.053  69.186  1.00  0.00    -0.140 A  
HETATM   12  C   UNL     1      -7.778   8.934  69.921  1.00  0.00    -0.076 A  
BRANCH   8  13
HETATM   13  O   UNL     1      -9.154   8.602  73.347  1.00  0.00    -0.209 OA 
HETATM   14  C   UNL     1      -8.244   7.754  74.033  1.00  0.00    -0.220 C  
ENDBRANCH   8  13
BRANCH  11  15
HETATM   15  C   UNL     1      -8.906   9.517  67.744  1.00  0.00    -0.119 C  
HETATM   16  C   UNL     1      -9.565   8.701  66.602  1.00  0.00    -0.285 C  
HETATM   17  C   UNL     1      -9.530   9.548  65.273  1.00  0.00    -0.326 C  
HETATM   18  C   UNL     1      -8.946   7.301  66.306  1.00  0.00    -0.185 C  
HETATM   19  C   UNL     1      -9.218   6.274  67.407  1.00  0.00    -0.116 C  
HETATM   20  C   UNL     1      -7.454   7.340  65.967  1.00  0.00    -0.080 C  
BRANCH  17  21
HETATM   21  C   UNL     1     -10.325  10.869  65.302  1.00  0.00    -0.268 C  
HETATM   22  N   UNL     1     -11.364  10.777  64.269  1.00  0.00     0.212 NA 
HETATM   23  H1  UNL     1     -11.890  11.651  64.288  1.00  0.00     0.000 HD 
HETATM   24  H2  UNL     1     -11.957   9.953  64.371  1.00  0.00     0.000 HD 
BRANCH  21  25
HETATM   25  C   UNL     1      -9.434  12.156  65.127  1.00  0.00     0.067 C  
HETATM   26  H   UNL     1      -8.874  13.389  63.678  1.00  0.00     0.000 HD 
HETATM   27  O   UNL     1      -9.412  12.614  63.783  1.00  0.00     0.022 OA 
BRANCH  25  28
HETATM   28  C   UNL     1      -9.963  13.251  66.075  1.00  0.00    -0.297 C  
HETATM   29  C   UNL     1     -10.531  14.584  65.532  1.00  0.00    -0.373 C  
HETATM   30  C   UNL     1     -10.844  15.402  66.802  1.00  0.00    -0.306 C  
HETATM   31  C   UNL     1     -11.780  14.460  64.612  1.00  0.00    -0.438 C  
HETATM   32  C   UNL     1     -12.235  15.800  64.018  1.00  0.00     0.260 C  
HETATM   33  O   UNL     1     -11.322  14.908  67.822  1.00  0.00    -0.306 OA 
HETATM   34  N   UNL     1     -10.560  16.747  66.716  1.00  0.00    -0.253 N  
HETATM   35  C   UNL     1     -12.957  13.741  65.280  1.00  0.00    -0.328 C  
HETATM   36  H   UNL     1     -10.250  17.143  65.829  1.00  0.00     0.000 HD 
BRANCH  34  37
HETATM   37  C   UNL     1     -10.699  17.604  67.879  1.00  0.00    -0.337 C  
BRANCH  37  38
HETATM   38  C   UNL     1      -9.665  18.741  67.933  1.00  0.00    -0.368 C  
HETATM   39  C   UNL     1      -9.713  19.421  69.318  1.00  0.00    -0.325 C  
HETATM   40  C   UNL     1      -8.246  18.202  67.683  1.00  0.00    -0.243 C  
BRANCH  38  41
HETATM   41  C   UNL     1     -10.018  19.785  66.865  1.00  0.00    -0.415 C  
HETATM   42  N   UNL     1      -9.500  21.034  67.017  1.00  0.00    -0.664 N  
HETATM   43  O   UNL     1     -10.728  19.550  65.890  1.00  0.00    -0.483 OA 
HETATM   44  H2  UNL     1      -8.900  21.266  67.809  1.00  0.00     0.000 HD 
HETATM   45  H1  UNL     1      -9.734  21.728  66.308  1.00  0.00     0.000 HD 
ENDBRANCH  38  41
ENDBRANCH  37  38
ENDBRANCH  34  37
ENDBRANCH  25  28
ENDBRANCH  21  25
ENDBRANCH  17  21
ENDBRANCH  11  15
ENDBRANCH   6   7
ENDBRANCH   5   6
ENDBRANCH   4   5
ENDBRANCH   3   4
ENDBRANCH   2   3
TORSDOF 13
ENDMDL
MODEL       64
REMARK 921   NORMALIZED FREE ENERGY PREDICTED BY IDOCK:   -4.81 KCAL/MOL
REMARK 922        TOTAL FREE ENERGY PREDICTED BY IDOCK:  -10.77 KCAL/MOL
REMARK 923 INTER-LIGAND FREE ENERGY PREDICTED BY IDOCK:   -9.54 KCAL/MOL
REMARK 924 INTRA-LIGAND FREE ENERGY PREDICTED BY IDOCK:   -1.23 KCAL/MOL
REMARK 927      BINDING AFFINITY PREDICTED BY RF-SCORE:    0.00 PKD
ROOT
HETATM    1  C   UNL     1      -8.498  20.186  66.613  1.00  0.00    -0.282 C  
HETATM    2  O   UNL     1      -9.661  20.644  67.289  1.00  0.00    -0.451 OA 
ENDROOT
BRANCH   2   3
HETATM    3  C   UNL     1     -10.746  19.732  67.122  1.00  0.00    -0.421 C  
BRANCH   3   4
HETATM    4  C   UNL     1     -10.226  18.302  67.180  1.00  0.00    -0.387 C  
BRANCH   4   5
HETATM    5  C   UNL     1      -9.988  17.787  68.599  1.00  0.00    -0.379 C  
BRANCH   5   6
HETATM    6  O   UNL     1     -11.080  16.975  69.019  1.00  0.00    -0.191 OA 
BRANCH   6   7
HETATM    7  C   UNL     1     -11.090  15.631  68.735  1.00  0.00    -0.307 A  
HETATM    8  C   UNL     1     -11.902  14.844  69.581  1.00  0.00    -0.318 A  
HETATM    9  C   UNL     1     -11.865  13.451  69.470  1.00  0.00    -0.391 A  
HETATM   10  C   UNL     1     -10.256  15.013  67.796  1.00  0.00    -0.236 A  
HETATM   11  C   UNL     1     -10.158  13.610  67.742  1.00  0.00    -0.242 A  
HETATM   12  C   UNL     1     -10.983  12.845  68.571  1.00  0.00    -0.288 A  
BRANCH   8  13
HETATM   13  O   UNL     1     -12.677  15.531  70.485  1.00  0.00    -0.434 OA 
HETATM   14  C   UNL     1     -13.629  14.791  71.237  1.00  0.00    -0.412 C  
ENDBRANCH   8  13
BRANCH  11  15
HETATM   15  C   UNL     1      -9.036  12.941  66.973  1.00  0.00    -0.228 C  
HETATM   16  C   UNL     1      -7.793  12.357  67.692  1.00  0.00    -0.163 C  
HETATM   17  C   UNL     1      -6.929  11.542  66.656  1.00  0.00    -0.069 C  
HETATM   18  C   UNL     1      -6.861  13.383  68.407  1.00  0.00    -0.102 C  
HETATM   19  C   UNL     1      -7.489  14.001  69.659  1.00  0.00     0.318 C  
HETATM   20  C   UNL     1      -6.318  14.476  67.484  1.00  0.00    -0.033 C  
BRANCH  17  21
HETATM   21  C   UNL     1      -7.618  10.312  66.032  1.00  0.00    -0.128 C  
HETATM   22  N   UNL     1      -7.697  10.541  64.584  1.00  0.00    -0.331 NA 
HETATM   23  H1  UNL     1      -8.153   9.727  64.171  1.00  0.00     0.000 HD 
HETATM   24  H2  UNL     1      -6.791  10.747  64.163  1.00  0.00     0.000 HD 
BRANCH  21  25
HETATM   25  C   UNL     1      -9.029   9.985  66.654  1.00  0.00    -0.139 C  
HETATM   26  H   UNL     1     -10.800   9.327  66.052  1.00  0.00     0.000 HD 
HETATM   27  O   UNL     1      -9.950   9.523  65.677  1.00  0.00    -0.305 OA 
BRANCH  25  28
HETATM   28  C   UNL     1      -8.840   8.941  67.773  1.00  0.00    -0.136 C  
HETATM   29  C   UNL     1      -9.785   7.724  67.909  1.00  0.00    -0.181 C  
HETATM   30  C   UNL     1      -9.300   7.016  69.191  1.00  0.00    -0.140 C  
HETATM   31  C   UNL     1      -9.807   6.750  66.695  1.00  0.00    -0.214 C  
HETATM   32  C   UNL     1     -10.837   5.620  66.839  1.00  0.00    -0.287 C  
HETATM   33  O   UNL     1      -8.113   6.901  69.492  1.00  0.00    -0.125 OA 
HETATM   34  N   UNL     1     -10.300   6.502  69.987  1.00  0.00    -0.190 N  
HETATM   35  C   UNL     1      -8.428   6.177  66.350  1.00  0.00    -0.123 C  
HETATM   36  H   UNL     1     -11.268   6.532  69.668  1.00  0.00     0.000 HD 
BRANCH  34  37
HETATM   37  C   UNL     1      -9.984   5.916  71.278  1.00  0.00    -0.187 C  
BRANCH  37  38
HETATM   38  C   UNL     1     -10.892   6.410  72.416  1.00  0.00    -0.267 C  
HETATM   39  C   UNL     1     -11.602   5.206  73.072  1.00  0.00    -0.301 C  
HETATM   40  C   UNL     1     -10.074   7.158  73.482  1.00  0.00    -0.374 C  
BRANCH  38  41
HETATM   41  C   UNL     1     -11.959   7.345  71.831  1.00  0.00    -0.302 C  
HETATM   42  N   UNL     1     -13.246   6.903  71.833  1.00  0.00    -0.523 N  
HETATM   43  O   UNL     1     -11.713   8.460  71.376  1.00  0.00    -0.270 OA 
HETATM   44  H2  UNL     1     -13.491   5.987  72.208  1.00  0.00     0.000 HD 
HETATM   45  H1  UNL     1     -13.955   7.523  71.444  1.00  0.00     0.000 HD 
ENDBRANCH  38  41
ENDBRANCH  37  38
ENDBRANCH  34  37
ENDBRANCH  25  28
ENDBRANCH  21  25
ENDBRANCH  17  21
ENDBRANCH  11  15
ENDBRANCH   6   7
ENDBRANCH   5   6
ENDBRANCH   4   5
ENDBRANCH   3   4
ENDBRANCH   2   3
TORSDOF 13
ENDMDL
MODEL       65
REMARK 921   NORMALIZED FREE ENERGY PREDICTED BY IDOCK:   -4.80 KCAL/MOL
REMARK 922        TOTAL FREE ENERGY PREDICTED BY IDOCK:  -10.76 KCAL/MOL
REMARK 923 INTER-LIGAND FREE ENERGY PREDICTED BY IDOCK:   -8.45 KCAL/MOL
REMARK 924 INTRA-LIGAND FREE ENERGY PREDICTED BY IDOCK:   -2.32 KCAL/MOL
REMARK 927      BINDING AFFINITY PREDICTED BY RF-SCORE:    0.00 PKD
ROOT
HETATM    1  C   UNL     1      -8.062   1.890  67.123  1.00  0.00    -0.068 C  
HETATM    2  O   UNL     1      -7.429   3.160  67.052  1.00  0.00    -0.072 OA 
ENDROOT
BRANCH   2   3
HETATM    3  C   UNL     1      -8.259   4.179  67.607  1.00  0.00    -0.095 C  
BRANCH   3   4
HETATM    4  C   UNL     1      -9.208   3.567  68.628  1.00  0.00    -0.225 C  
BRANCH   4   5
HETATM    5  C   UNL     1     -10.012   4.597  69.422  1.00  0.00    -0.179 C  
BRANCH   5   6
HETATM    6  O   UNL     1      -9.206   5.165  70.449  1.00  0.00    -0.138 OA 
BRANCH   6   7
HETATM    7  C   UNL     1      -9.040   6.527  70.524  1.00  0.00    -0.152 A  
HETATM    8  C   UNL     1      -9.471   7.120  71.730  1.00  0.00    -0.151 A  
HETATM    9  C   UNL     1      -9.483   8.513  71.847  1.00  0.00    -0.350 A  
HETATM   10  C   UNL     1      -8.631   7.334  69.455  1.00  0.00    -0.134 A  
HETATM   11  C   UNL     1      -8.722   8.737  69.545  1.00  0.00    -0.138 A  
HETATM   12  C   UNL     1      -9.131   9.309  70.753  1.00  0.00    -0.306 A  
BRANCH   8  13
HETATM   13  O   UNL     1      -9.871   6.255  72.720  1.00  0.00    -0.166 OA 
HETATM   14  C   UNL     1     -10.082   6.788  74.020  1.00  0.00    -0.359 C  
ENDBRANCH   8  13
BRANCH  11  15
HETATM   15  C   UNL     1      -8.600   9.601  68.307  1.00  0.00    -0.119 C  
HETATM   16  C   UNL     1      -7.499   9.348  67.244  1.00  0.00    -0.091 C  
HETATM   17  C   UNL     1      -7.773  10.258  65.987  1.00  0.00    -0.130 C  
HETATM   18  C   UNL     1      -6.027   9.579  67.704  1.00  0.00    -0.052 C  
HETATM   19  C   UNL     1      -5.530   8.524  68.695  1.00  0.00    -0.037 C  
HETATM   20  C   UNL     1      -5.757  10.987  68.239  1.00  0.00    -0.042 C  
BRANCH  17  21
HETATM   21  C   UNL     1      -9.093   9.984  65.238  1.00  0.00    -0.200 C  
HETATM   22  N   UNL     1      -8.767   9.170  64.060  1.00  0.00    -0.360 NA 
HETATM   23  H1  UNL     1      -9.639   8.989  63.564  1.00  0.00     0.000 HD 
HETATM   24  H2  UNL     1      -8.256   8.319  64.293  1.00  0.00     0.000 HD 
BRANCH  21  25
HETATM   25  C   UNL     1      -9.892  11.286  64.851  1.00  0.00    -0.264 C  
HETATM   26  H   UNL     1     -11.155  11.891  63.445  1.00  0.00     0.000 HD 
HETATM   27  O   UNL     1     -10.673  11.105  63.679  1.00  0.00    -0.377 OA 
BRANCH  25  28
HETATM   28  C   UNL     1     -10.775  11.692  66.048  1.00  0.00    -0.328 C  
HETATM   29  C   UNL     1     -10.311  12.759  67.067  1.00  0.00    -0.240 C  
HETATM   30  C   UNL     1     -11.434  12.778  68.125  1.00  0.00    -0.314 C  
HETATM   31  C   UNL     1     -10.051  14.179  66.487  1.00  0.00    -0.283 C  
HETATM   32  C   UNL     1      -9.493  15.168  67.520  1.00  0.00    -0.206 C  
HETATM   33  O   UNL     1     -12.628  12.684  67.844  1.00  0.00     0.165 OA 
HETATM   34  N   UNL     1     -11.008  12.921  69.427  1.00  0.00    -0.456 N  
HETATM   35  C   UNL     1     -11.271  14.777  65.776  1.00  0.00    -0.337 C  
HETATM   36  H   UNL     1     -10.021  13.087  69.622  1.00  0.00     0.000 HD 
BRANCH  34  37
HETATM   37  C   UNL     1     -11.955  12.836  70.524  1.00  0.00    -0.191 C  
BRANCH  37  38
HETATM   38  C   UNL     1     -12.356  14.206  71.097  1.00  0.00    -0.447 C  
HETATM   39  C   UNL     1     -11.090  14.987  71.508  1.00  0.00    -0.128 C  
HETATM   40  C   UNL     1     -13.142  15.024  70.059  1.00  0.00     0.094 C  
BRANCH  38  41
HETATM   41  C   UNL     1     -13.220  13.988  72.347  1.00  0.00    -0.488 C  
HETATM   42  N   UNL     1     -13.891  12.809  72.445  1.00  0.00    -0.517 N  
HETATM   43  O   UNL     1     -13.326  14.811  73.254  1.00  0.00    -0.564 OA 
HETATM   44  H2  UNL     1     -13.823  12.098  71.717  1.00  0.00     0.000 HD 
HETATM   45  H1  UNL     1     -14.465  12.664  73.275  1.00  0.00     0.000 HD 
ENDBRANCH  38  41
ENDBRANCH  37  38
ENDBRANCH  34  37
ENDBRANCH  25  28
ENDBRANCH  21  25
ENDBRANCH  17  21
ENDBRANCH  11  15
ENDBRANCH   6   7
ENDBRANCH   5   6
ENDBRANCH   4   5
ENDBRANCH   3   4
ENDBRANCH   2   3
TORSDOF 13
ENDMDL
MODEL       66
REMARK 921   NORMALIZED FREE ENERGY PREDICTED BY IDOCK:   -4.79 KCAL/MOL
REMARK 922        TOTAL FREE ENERGY PREDICTED BY IDOCK:  -10.75 KCAL/MOL
REMARK 923 INTER-LIGAND FREE ENERGY PREDICTED BY IDOCK:   -9.20 KCAL/MOL
REMARK 924 INTRA-LIGAND FREE ENERGY PREDICTED BY IDOCK:   -1.55 KCAL/MOL
REMARK 927      BINDING AFFINITY PREDICTED BY RF-SCORE:    0.00 PKD
ROOT
HETATM    1  C   UNL     1      -9.520  10.680  65.004  1.00  0.00    -0.243 C  
HETATM    2  O   UNL     1      -9.513   9.259  65.041  1.00  0.00    -0.209 OA 
ENDROOT
BRANCH   2   3
HETATM    3  C   UNL     1      -8.256   8.741  64.607  1.00  0.00    -0.165 C  
BRANCH   3   4
HETATM    4  C   UNL     1      -7.966   7.432  65.328  1.00  0.00    -0.127 C  
BRANCH   4   5
HETATM    5  C   UNL     1      -7.437   7.612  66.751  1.00  0.00    -0.093 C  
BRANCH   5   6
HETATM    6  O   UNL     1      -6.851   6.400  67.215  1.00  0.00    -0.065 OA 
BRANCH   6   7
HETATM    7  C   UNL     1      -7.627   5.448  67.831  1.00  0.00    -0.088 A  
HETATM    8  C   UNL     1      -7.680   4.199  67.175  1.00  0.00    -0.088 A  
HETATM    9  C   UNL     1      -8.557   3.215  67.638  1.00  0.00    -0.118 A  
HETATM   10  C   UNL     1      -8.451   5.692  68.936  1.00  0.00    -0.102 A  
HETATM   11  C   UNL     1      -9.392   4.730  69.351  1.00  0.00    -0.197 A  
HETATM   12  C   UNL     1      -9.418   3.492  68.704  1.00  0.00    -0.209 A  
BRANCH   8  13
HETATM   13  O   UNL     1      -6.850   4.051  66.090  1.00  0.00    -0.052 OA 
HETATM   14  C   UNL     1      -5.883   3.010  66.133  1.00  0.00    -0.023 C  
ENDBRANCH   8  13
BRANCH  11  15
HETATM   15  C   UNL     1     -10.499   5.098  70.318  1.00  0.00    -0.296 C  
HETATM   16  C   UNL     1     -10.196   5.525  71.777  1.00  0.00    -0.256 C  
HETATM   17  C   UNL     1     -11.521   6.052  72.449  1.00  0.00    -0.357 C  
HETATM   18  C   UNL     1      -9.577   4.434  72.703  1.00  0.00    -0.179 C  
HETATM   19  C   UNL     1      -8.133   4.081  72.342  1.00  0.00    -0.086 C  
HETATM   20  C   UNL     1     -10.425   3.166  72.821  1.00  0.00    -0.212 C  
BRANCH  17  21
HETATM   21  C   UNL     1     -12.142   7.309  71.808  1.00  0.00    -0.319 C  
HETATM   22  N   UNL     1     -12.344   7.019  70.383  1.00  0.00    -0.618 NA 
HETATM   23  H1  UNL     1     -12.755   7.851  69.959  1.00  0.00     0.000 HD 
HETATM   24  H2  UNL     1     -12.895   6.176  70.222  1.00  0.00     0.000 HD 
BRANCH  21  25
HETATM   25  C   UNL     1     -11.298   8.622  72.027  1.00  0.00    -0.362 C  
HETATM   26  H   UNL     1      -9.392   9.169  72.091  1.00  0.00     0.000 HD 
HETATM   27  O   UNL     1      -9.901   8.378  71.958  1.00  0.00    -0.227 OA 
BRANCH  25  28
HETATM   28  C   UNL     1     -11.730   9.663  70.975  1.00  0.00    -0.433 C  
HETATM   29  C   UNL     1     -10.691  10.507  70.201  1.00  0.00    -0.232 C  
HETATM   30  C   UNL     1     -11.548  11.464  69.346  1.00  0.00    -0.323 C  
HETATM   31  C   UNL     1      -9.688   9.703  69.323  1.00  0.00    -0.191 C  
HETATM   32  C   UNL     1      -8.616  10.580  68.662  1.00  0.00    -0.139 C  
HETATM   33  O   UNL     1     -12.590  11.122  68.789  1.00  0.00    -0.345 OA 
HETATM   34  N   UNL     1     -11.057  12.746  69.235  1.00  0.00    -0.425 N  
HETATM   35  C   UNL     1     -10.373   8.815  68.278  1.00  0.00    -0.252 C  
HETATM   36  H   UNL     1     -10.147  12.976  69.632  1.00  0.00     0.000 HD 
BRANCH  34  37
HETATM   37  C   UNL     1     -11.829  13.772  68.557  1.00  0.00    -0.370 C  
BRANCH  37  38
HETATM   38  C   UNL     1     -10.973  14.720  67.700  1.00  0.00    -0.292 C  
HETATM   39  C   UNL     1     -11.438  14.650  66.229  1.00  0.00    -0.351 C  
HETATM   40  C   UNL     1     -11.093  16.169  68.200  1.00  0.00    -0.332 C  
BRANCH  38  41
HETATM   41  C   UNL     1      -9.508  14.267  67.769  1.00  0.00    -0.216 C  
HETATM   42  N   UNL     1      -8.967  13.728  66.643  1.00  0.00    -0.425 N  
HETATM   43  O   UNL     1      -8.809  14.373  68.774  1.00  0.00    -0.183 OA 
HETATM   44  H2  UNL     1      -9.512  13.630  65.787  1.00  0.00     0.000 HD 
HETATM   45  H1  UNL     1      -7.994  13.427  66.689  1.00  0.00     0.000 HD 
ENDBRANCH  38  41
ENDBRANCH  37  38
ENDBRANCH  34  37
ENDBRANCH  25  28
ENDBRANCH  21  25
ENDBRANCH  17  21
ENDBRANCH  11  15
ENDBRANCH   6   7
ENDBRANCH   5   6
ENDBRANCH   4   5
ENDBRANCH   3   4
ENDBRANCH   2   3
TORSDOF 13
ENDMDL
MODEL       67
REMARK 921   NORMALIZED FREE ENERGY PREDICTED BY IDOCK:   -4.75 KCAL/MOL
REMARK 922        TOTAL FREE ENERGY PREDICTED BY IDOCK:  -10.67 KCAL/MOL
REMARK 923 INTER-LIGAND FREE ENERGY PREDICTED BY IDOCK:   -9.37 KCAL/MOL
REMARK 924 INTRA-LIGAND FREE ENERGY PREDICTED BY IDOCK:   -1.30 KCAL/MOL
REMARK 927      BINDING AFFINITY PREDICTED BY RF-SCORE:    0.00 PKD
ROOT
HETATM    1  C   UNL     1      -6.457  14.421  67.967  1.00  0.00    -0.151 C  
HETATM    2  O   UNL     1      -5.416  15.222  67.424  1.00  0.00    -0.338 OA 
ENDROOT
BRANCH   2   3
HETATM    3  C   UNL     1      -5.526  16.574  67.866  1.00  0.00    -0.120 C  
BRANCH   3   4
HETATM    4  C   UNL     1      -6.903  17.119  67.510  1.00  0.00    -0.163 C  
BRANCH   4   5
HETATM    5  C   UNL     1      -7.645  17.747  68.689  1.00  0.00    -0.276 C  
BRANCH   5   6
HETATM    6  O   UNL     1      -9.042  17.806  68.417  1.00  0.00    -0.266 OA 
BRANCH   6   7
HETATM    7  C   UNL     1      -9.620  16.890  67.573  1.00  0.00    -0.245 A  
HETATM    8  C   UNL     1      -9.956  17.380  66.292  1.00  0.00    -0.297 A  
HETATM    9  C   UNL     1     -10.682  16.572  65.414  1.00  0.00    -0.273 A  
HETATM   10  C   UNL     1     -10.018  15.602  67.954  1.00  0.00    -0.223 A  
HETATM   11  C   UNL     1     -10.819  14.821  67.100  1.00  0.00    -0.311 A  
HETATM   12  C   UNL     1     -11.125  15.312  65.828  1.00  0.00    -0.301 A  
BRANCH   8  13
HETATM   13  O   UNL     1      -9.541  18.659  66.007  1.00  0.00    -0.487 OA 
HETATM   14  C   UNL     1     -10.521  19.687  66.003  1.00  0.00    -0.523 C  
ENDBRANCH   8  13
BRANCH  11  15
HETATM   15  C   UNL     1     -11.522  13.583  67.617  1.00  0.00    -0.351 C  
HETATM   16  C   UNL     1     -10.749  12.271  67.912  1.00  0.00    -0.243 C  
HETATM   17  C   UNL     1     -11.709  11.255  68.639  1.00  0.00    -0.391 C  
HETATM   18  C   UNL     1     -10.114  11.551  66.682  1.00  0.00    -0.242 C  
HETATM   19  C   UNL     1      -8.922  12.305  66.088  1.00  0.00    -0.009 C  
HETATM   20  C   UNL     1     -11.121  11.190  65.587  1.00  0.00    -0.078 C  
BRANCH  17  21
HETATM   21  C   UNL     1     -12.234  11.702  70.018  1.00  0.00    -0.263 C  
HETATM   22  N   UNL     1     -11.475  12.896  70.410  1.00  0.00    -0.428 NA 
HETATM   23  H1  UNL     1     -11.822  13.192  71.322  1.00  0.00     0.000 HD 
HETATM   24  H2  UNL     1     -11.510  13.638  69.710  1.00  0.00     0.000 HD 
BRANCH  21  25
HETATM   25  C   UNL     1     -12.173  10.578  71.121  1.00  0.00    -0.391 C  
HETATM   26  H   UNL     1     -13.430   9.458  72.170  1.00  0.00     0.000 HD 
HETATM   27  O   UNL     1     -13.467  10.135  71.505  1.00  0.00    -0.337 OA 
BRANCH  25  28
HETATM   28  C   UNL     1     -11.326   9.408  70.581  1.00  0.00    -0.352 C  
HETATM   29  C   UNL     1     -10.448   8.548  71.520  1.00  0.00    -0.318 C  
HETATM   30  C   UNL     1      -9.717   7.581  70.565  1.00  0.00    -0.179 C  
HETATM   31  C   UNL     1     -11.209   7.777  72.637  1.00  0.00    -0.438 C  
HETATM   32  C   UNL     1     -10.280   7.026  73.601  1.00  0.00    -0.396 C  
HETATM   33  O   UNL     1     -10.255   7.060  69.589  1.00  0.00    -0.192 OA 
HETATM   34  N   UNL     1      -8.403   7.324  70.888  1.00  0.00    -0.115 N  
HETATM   35  C   UNL     1     -12.294   6.839  72.098  1.00  0.00    -0.234 C  
HETATM   36  H   UNL     1      -8.011   7.698  71.752  1.00  0.00     0.000 HD 
BRANCH  34  37
HETATM   37  C   UNL     1      -7.572   6.525  70.005  1.00  0.00    -0.100 C  
BRANCH  37  38
HETATM   38  C   UNL     1      -7.243   5.131  70.565  1.00  0.00    -0.061 C  
HETATM   39  C   UNL     1      -5.845   5.153  71.221  1.00  0.00    -0.017 C  
HETATM   40  C   UNL     1      -8.286   4.701  71.610  1.00  0.00    -0.104 C  
BRANCH  38  41
HETATM   41  C   UNL     1      -7.221   4.122  69.408  1.00  0.00    -0.050 C  
HETATM   42  N   UNL     1      -8.333   4.044  68.628  1.00  0.00    -0.081 N  
HETATM   43  O   UNL     1      -6.261   3.400  69.152  1.00  0.00    -0.027 OA 
HETATM   44  H2  UNL     1      -9.148   4.631  68.804  1.00  0.00     0.000 HD 
HETATM   45  H1  UNL     1      -8.319   3.374  67.860  1.00  0.00     0.000 HD 
ENDBRANCH  38  41
ENDBRANCH  37  38
ENDBRANCH  34  37
ENDBRANCH  25  28
ENDBRANCH  21  25
ENDBRANCH  17  21
ENDBRANCH  11  15
ENDBRANCH   6   7
ENDBRANCH   5   6
ENDBRANCH   4   5
ENDBRANCH   3   4
ENDBRANCH   2   3
TORSDOF 13
ENDMDL
MODEL       68
REMARK 921   NORMALIZED FREE ENERGY PREDICTED BY IDOCK:   -4.74 KCAL/MOL
REMARK 922        TOTAL FREE ENERGY PREDICTED BY IDOCK:  -10.64 KCAL/MOL
REMARK 923 INTER-LIGAND FREE ENERGY PREDICTED BY IDOCK:   -8.44 KCAL/MOL
REMARK 924 INTRA-LIGAND FREE ENERGY PREDICTED BY IDOCK:   -2.20 KCAL/MOL
REMARK 927      BINDING AFFINITY PREDICTED BY RF-SCORE:    0.00 PKD
ROOT
HETATM    1  C   UNL     1     -10.859   3.348  63.412  1.00  0.00    -0.197 C  
HETATM    2  O   UNL     1      -9.777   3.693  64.266  1.00  0.00    -0.151 OA 
ENDROOT
BRANCH   2   3
HETATM    3  C   UNL     1      -8.556   3.116  63.806  1.00  0.00    -0.089 C  
BRANCH   3   4
HETATM    4  C   UNL     1      -7.967   2.229  64.895  1.00  0.00    -0.078 C  
BRANCH   4   5
HETATM    5  C   UNL     1      -8.838   2.123  66.146  1.00  0.00    -0.122 C  
BRANCH   5   6
HETATM    6  O   UNL     1      -8.112   2.560  67.291  1.00  0.00    -0.069 OA 
BRANCH   6   7
HETATM    7  C   UNL     1      -7.674   3.859  67.377  1.00  0.00    -0.079 A  
HETATM    8  C   UNL     1      -6.327   4.015  67.767  1.00  0.00    -0.037 A  
HETATM    9  C   UNL     1      -5.829   5.294  68.027  1.00  0.00    -0.017 A  
HETATM   10  C   UNL     1      -8.501   4.983  67.255  1.00  0.00    -0.105 A  
HETATM   11  C   UNL     1      -8.021   6.262  67.597  1.00  0.00    -0.113 A  
HETATM   12  C   UNL     1      -6.679   6.402  67.962  1.00  0.00    -0.068 A  
BRANCH   8  13
HETATM   13  O   UNL     1      -5.592   2.858  67.878  1.00  0.00    -0.017 OA 
HETATM   14  C   UNL     1      -5.179   2.458  69.177  1.00  0.00    -0.012 C  
ENDBRANCH   8  13
BRANCH  11  15
HETATM   15  C   UNL     1      -8.977   7.422  67.786  1.00  0.00    -0.127 C  
HETATM   16  C   UNL     1      -9.285   8.002  69.190  1.00  0.00    -0.151 C  
HETATM   17  C   UNL     1     -10.127   9.325  69.032  1.00  0.00    -0.207 C  
HETATM   18  C   UNL     1     -10.036   7.058  70.179  1.00  0.00    -0.189 C  
HETATM   19  C   UNL     1      -9.176   5.895  70.677  1.00  0.00    -0.167 C  
HETATM   20  C   UNL     1     -11.377   6.546  69.650  1.00  0.00    -0.443 C  
BRANCH  17  21
HETATM   21  C   UNL     1      -9.425  10.480  68.291  1.00  0.00    -0.155 C  
HETATM   22  N   UNL     1      -8.943  11.423  69.308  1.00  0.00    -0.360 NA 
HETATM   23  H1  UNL     1      -8.478  12.187  68.819  1.00  0.00     0.000 HD 
HETATM   24  H2  UNL     1      -8.351  10.982  70.012  1.00  0.00     0.000 HD 
BRANCH  21  25
HETATM   25  C   UNL     1     -10.326  11.189  67.211  1.00  0.00    -0.208 C  
HETATM   26  H   UNL     1     -12.048  10.877  66.278  1.00  0.00     0.000 HD 
HETATM   27  O   UNL     1     -11.505  10.450  66.930  1.00  0.00    -0.110 OA 
BRANCH  25  28
HETATM   28  C   UNL     1     -10.668  12.607  67.713  1.00  0.00    -0.239 C  
HETATM   29  C   UNL     1     -10.485  13.849  66.809  1.00  0.00    -0.270 C  
HETATM   30  C   UNL     1     -10.846  15.035  67.727  1.00  0.00    -0.284 C  
HETATM   31  C   UNL     1     -11.331  13.862  65.503  1.00  0.00    -0.310 C  
HETATM   32  C   UNL     1     -11.032  15.064  64.595  1.00  0.00    -0.320 C  
HETATM   33  O   UNL     1     -11.770  15.004  68.539  1.00  0.00    -0.320 OA 
HETATM   34  N   UNL     1     -10.061  16.155  67.569  1.00  0.00    -0.251 N  
HETATM   35  C   UNL     1     -12.838  13.741  65.753  1.00  0.00    -0.430 C  
HETATM   36  H   UNL     1      -9.362  16.184  66.827  1.00  0.00     0.000 HD 
BRANCH  34  37
HETATM   37  C   UNL     1     -10.222  17.296  68.453  1.00  0.00    -0.358 C  
BRANCH  37  38
HETATM   38  C   UNL     1      -9.358  18.506  68.059  1.00  0.00    -0.321 C  
HETATM   39  C   UNL     1      -9.898  19.776  68.751  1.00  0.00    -0.464 C  
HETATM   40  C   UNL     1      -7.892  18.289  68.473  1.00  0.00    -0.313 C  
BRANCH  38  41
HETATM   41  C   UNL     1      -9.444  18.705  66.540  1.00  0.00    -0.322 C  
HETATM   42  N   UNL     1     -10.468  19.465  66.067  1.00  0.00    -0.504 N  
HETATM   43  O   UNL     1      -8.640  18.226  65.743  1.00  0.00    -0.462 OA 
HETATM   44  H2  UNL     1     -11.152  19.885  66.697  1.00  0.00     0.000 HD 
HETATM   45  H1  UNL     1     -10.526  19.597  65.058  1.00  0.00     0.000 HD 
ENDBRANCH  38  41
ENDBRANCH  37  38
ENDBRANCH  34  37
ENDBRANCH  25  28
ENDBRANCH  21  25
ENDBRANCH  17  21
ENDBRANCH  11  15
ENDBRANCH   6   7
ENDBRANCH   5   6
ENDBRANCH   4   5
ENDBRANCH   3   4
ENDBRANCH   2   3
TORSDOF 13
ENDMDL
MODEL       69
REMARK 921   NORMALIZED FREE ENERGY PREDICTED BY IDOCK:   -4.71 KCAL/MOL
REMARK 922        TOTAL FREE ENERGY PREDICTED BY IDOCK:  -10.60 KCAL/MOL
REMARK 923 INTER-LIGAND FREE ENERGY PREDICTED BY IDOCK:   -9.08 KCAL/MOL
REMARK 924 INTRA-LIGAND FREE ENERGY PREDICTED BY IDOCK:   -1.52 KCAL/MOL
REMARK 927      BINDING AFFINITY PREDICTED BY RF-SCORE:    0.00 PKD
ROOT
HETATM    1  C   UNL     1     -12.809  15.875  73.148  1.00  0.00    -0.537 C  
HETATM    2  O   UNL     1     -13.613  14.712  73.290  1.00  0.00    -0.521 OA 
ENDROOT
BRANCH   2   3
HETATM    3  C   UNL     1     -14.044  14.228  72.019  1.00  0.00    -0.526 C  
BRANCH   3   4
HETATM    4  C   UNL     1     -13.023  13.239  71.474  1.00  0.00    -0.426 C  
BRANCH   4   5
HETATM    5  C   UNL     1     -13.222  11.806  71.969  1.00  0.00    -0.355 C  
BRANCH   5   6
HETATM    6  O   UNL     1     -13.036  10.885  70.898  1.00  0.00    -0.331 OA 
BRANCH   6   7
HETATM    7  C   UNL     1     -11.773  10.458  70.566  1.00  0.00    -0.344 A  
HETATM    8  C   UNL     1     -11.371  10.742  69.244  1.00  0.00    -0.286 A  
HETATM    9  C   UNL     1     -10.167  10.220  68.763  1.00  0.00    -0.205 A  
HETATM   10  C   UNL     1     -10.968   9.656  71.385  1.00  0.00    -0.354 A  
HETATM   11  C   UNL     1      -9.798   9.064  70.873  1.00  0.00    -0.330 A  
HETATM   12  C   UNL     1      -9.402   9.371  69.569  1.00  0.00    -0.187 A  
BRANCH   8  13
HETATM   13  O   UNL     1     -12.228  11.522  68.505  1.00  0.00    -0.524 OA 
HETATM   14  C   UNL     1     -11.790  12.823  68.139  1.00  0.00    -0.324 C  
ENDBRANCH   8  13
BRANCH  11  15
HETATM   15  C   UNL     1      -9.102   7.948  71.627  1.00  0.00    -0.175 C  
HETATM   16  C   UNL     1      -9.224   6.468  71.184  1.00  0.00    -0.156 C  
HETATM   17  C   UNL     1      -8.219   5.591  72.024  1.00  0.00    -0.115 C  
HETATM   18  C   UNL     1     -10.642   5.827  71.293  1.00  0.00    -0.319 C  
HETATM   19  C   UNL     1     -11.635   6.378  70.268  1.00  0.00    -0.451 C  
HETATM   20  C   UNL     1     -11.240   5.879  72.701  1.00  0.00    -0.335 C  
BRANCH  17  21
HETATM   21  C   UNL     1      -6.724   5.921  71.834  1.00  0.00    -0.063 C  
HETATM   22  N   UNL     1      -6.546   7.341  72.157  1.00  0.00    -0.051 NA 
HETATM   23  H1  UNL     1      -5.557   7.560  72.032  1.00  0.00     0.000 HD 
HETATM   24  H2  UNL     1      -6.894   7.587  73.084  1.00  0.00     0.000 HD 
BRANCH  21  25
HETATM   25  C   UNL     1      -6.168   5.567  70.403  1.00  0.00    -0.026 C  
HETATM   26  H   UNL     1      -5.549   3.970  69.404  1.00  0.00     0.000 HD 
HETATM   27  O   UNL     1      -5.885   4.182  70.266  1.00  0.00    -0.016 OA 
BRANCH  25  28
HETATM   28  C   UNL     1      -7.196   6.029  69.351  1.00  0.00    -0.074 C  
HETATM   29  C   UNL     1      -6.754   6.513  67.950  1.00  0.00    -0.068 C  
HETATM   30  C   UNL     1      -8.069   6.960  67.277  1.00  0.00    -0.118 C  
HETATM   31  C   UNL     1      -5.998   5.467  67.082  1.00  0.00    -0.026 C  
HETATM   32  C   UNL     1      -5.491   6.032  65.747  1.00  0.00    -0.013 C  
HETATM   33  O   UNL     1      -9.132   6.355  67.404  1.00  0.00    -0.113 OA 
HETATM   34  N   UNL     1      -7.972   8.095  66.502  1.00  0.00    -0.100 N  
HETATM   35  C   UNL     1      -6.795   4.179  66.850  1.00  0.00    -0.051 C  
HETATM   36  H   UNL     1      -7.061   8.523  66.343  1.00  0.00     0.000 HD 
BRANCH  34  37
HETATM   37  C   UNL     1      -9.160   8.685  65.912  1.00  0.00    -0.205 C  
BRANCH  37  38
HETATM   38  C   UNL     1      -8.866   9.918  65.041  1.00  0.00    -0.220 C  
HETATM   39  C   UNL     1      -7.800   9.563  63.982  1.00  0.00    -0.130 C  
HETATM   40  C   UNL     1     -10.142  10.403  64.332  1.00  0.00    -0.342 C  
BRANCH  38  41
HETATM   41  C   UNL     1      -8.312  11.036  65.934  1.00  0.00    -0.119 C  
HETATM   42  N   UNL     1      -9.005  12.206  65.972  1.00  0.00    -0.416 N  
HETATM   43  O   UNL     1      -7.293  10.925  66.612  1.00  0.00    -0.125 OA 
HETATM   44  H2  UNL     1      -9.858  12.335  65.430  1.00  0.00     0.000 HD 
HETATM   45  H1  UNL     1      -8.636  12.949  66.565  1.00  0.00     0.000 HD 
ENDBRANCH  38  41
ENDBRANCH  37  38
ENDBRANCH  34  37
ENDBRANCH  25  28
ENDBRANCH  21  25
ENDBRANCH  17  21
ENDBRANCH  11  15
ENDBRANCH   6   7
ENDBRANCH   5   6
ENDBRANCH   4   5
ENDBRANCH   3   4
ENDBRANCH   2   3
TORSDOF 13
ENDMDL
MODEL       70
REMARK 921   NORMALIZED FREE ENERGY PREDICTED BY IDOCK:   -4.70 KCAL/MOL
REMARK 922        TOTAL FREE ENERGY PREDICTED BY IDOCK:  -10.59 KCAL/MOL
REMARK 923 INTER-LIGAND FREE ENERGY PREDICTED BY IDOCK:   -8.42 KCAL/MOL
REMARK 924 INTRA-LIGAND FREE ENERGY PREDICTED BY IDOCK:   -2.17 KCAL/MOL
REMARK 927      BINDING AFFINITY PREDICTED BY RF-SCORE:    0.00 PKD
ROOT
HETATM    1  C   UNL     1      -8.362  19.842  66.320  1.00  0.00    -0.357 C  
HETATM    2  O   UNL     1      -7.666  18.603  66.348  1.00  0.00    -0.249 OA 
ENDROOT
BRANCH   2   3
HETATM    3  C   UNL     1      -8.535  17.534  66.720  1.00  0.00    -0.250 C  
BRANCH   3   4
HETATM    4  C   UNL     1      -8.015  16.869  67.987  1.00  0.00    -0.185 C  
BRANCH   4   5
HETATM    5  C   UNL     1      -8.249  15.359  68.034  1.00  0.00    -0.144 C  
BRANCH   5   6
HETATM    6  O   UNL     1      -9.623  15.081  68.287  1.00  0.00    -0.202 OA 
BRANCH   6   7
HETATM    7  C   UNL     1     -10.189  13.919  67.824  1.00  0.00    -0.237 A  
HETATM    8  C   UNL     1     -11.146  14.083  66.799  1.00  0.00    -0.306 A  
HETATM    9  C   UNL     1     -11.886  12.980  66.365  1.00  0.00    -0.465 A  
HETATM   10  C   UNL     1      -9.990  12.657  68.398  1.00  0.00    -0.210 A  
HETATM   11  C   UNL     1     -10.793  11.565  68.018  1.00  0.00    -0.259 A  
HETATM   12  C   UNL     1     -11.721  11.739  66.988  1.00  0.00    -0.247 A  
BRANCH   8  13
HETATM   13  O   UNL     1     -11.289  15.357  66.304  1.00  0.00    -0.232 OA 
HETATM   14  C   UNL     1     -10.940  15.582  64.946  1.00  0.00    -0.436 C  
ENDBRANCH   8  13
BRANCH  11  15
HETATM   15  C   UNL     1     -10.817  10.297  68.846  1.00  0.00    -0.263 C  
HETATM   16  C   UNL     1      -9.625   9.305  68.849  1.00  0.00    -0.155 C  
HETATM   17  C   UNL     1      -9.858   8.217  69.966  1.00  0.00    -0.182 C  
HETATM   18  C   UNL     1      -9.332   8.572  67.504  1.00  0.00    -0.169 C  
HETATM   19  C   UNL     1      -8.764   9.494  66.423  1.00  0.00    -0.149 C  
HETATM   20  C   UNL     1     -10.520   7.775  66.960  1.00  0.00    -0.419 C  
BRANCH  17  21
HETATM   21  C   UNL     1      -9.913   8.746  71.413  1.00  0.00    -0.283 C  
HETATM   22  N   UNL     1      -8.540   9.081  71.809  1.00  0.00    -0.353 NA 
HETATM   23  H1  UNL     1      -8.577   9.431  72.767  1.00  0.00     0.000 HD 
HETATM   24  H2  UNL     1      -8.086   9.729  71.165  1.00  0.00     0.000 HD 
BRANCH  21  25
HETATM   25  C   UNL     1     -10.594   7.755  72.431  1.00  0.00    -0.278 C  
HETATM   26  H   UNL     1     -12.397   7.401  73.179  1.00  0.00     0.000 HD 
HETATM   27  O   UNL     1     -11.987   7.999  72.565  1.00  0.00    -0.358 OA 
BRANCH  25  28
HETATM   28  C   UNL     1     -10.329   6.310  71.959  1.00  0.00    -0.231 C  
HETATM   29  C   UNL     1      -9.038   5.557  72.356  1.00  0.00    -0.147 C  
HETATM   30  C   UNL     1      -9.142   4.214  71.602  1.00  0.00    -0.123 C  
HETATM   31  C   UNL     1      -8.827   5.338  73.882  1.00  0.00    -0.117 C  
HETATM   32  C   UNL     1      -7.483   4.680  74.224  1.00  0.00    -0.078 C  
HETATM   33  O   UNL     1     -10.195   3.591  71.475  1.00  0.00    -0.083 OA 
HETATM   34  N   UNL     1      -7.958   3.744  71.081  1.00  0.00    -0.062 N  
HETATM   35  C   UNL     1      -9.979   4.581  74.553  1.00  0.00    -0.234 C  
HETATM   36  H   UNL     1      -7.086   4.234  71.279  1.00  0.00     0.000 HD 
BRANCH  34  37
HETATM   37  C   UNL     1      -7.942   2.553  70.250  1.00  0.00    -0.042 C  
BRANCH  37  38
HETATM   38  C   UNL     1      -7.784   2.851  68.750  1.00  0.00    -0.047 C  
HETATM   39  C   UNL     1      -7.232   4.281  68.561  1.00  0.00    -0.056 C  
HETATM   40  C   UNL     1      -6.824   1.847  68.091  1.00  0.00    -0.035 C  
BRANCH  38  41
HETATM   41  C   UNL     1      -9.162   2.769  68.079  1.00  0.00    -0.204 C  
HETATM   42  N   UNL     1      -9.784   1.560  68.076  1.00  0.00    -0.385 N  
HETATM   43  O   UNL     1      -9.725   3.730  67.559  1.00  0.00    -0.186 OA 
HETATM   44  H2  UNL     1      -9.353   0.740  68.503  1.00  0.00     0.000 HD 
HETATM   45  H1  UNL     1     -10.699   1.505  67.630  1.00  0.00     0.000 HD 
ENDBRANCH  38  41
ENDBRANCH  37  38
ENDBRANCH  34  37
ENDBRANCH  25  28
ENDBRANCH  21  25
ENDBRANCH  17  21
ENDBRANCH  11  15
ENDBRANCH   6   7
ENDBRANCH   5   6
ENDBRANCH   4   5
ENDBRANCH   3   4
ENDBRANCH   2   3
TORSDOF 13
ENDMDL
MODEL       71
REMARK 921   NORMALIZED FREE ENERGY PREDICTED BY IDOCK:   -4.66 KCAL/MOL
REMARK 922        TOTAL FREE ENERGY PREDICTED BY IDOCK:  -10.51 KCAL/MOL
REMARK 923 INTER-LIGAND FREE ENERGY PREDICTED BY IDOCK:   -9.78 KCAL/MOL
REMARK 924 INTRA-LIGAND FREE ENERGY PREDICTED BY IDOCK:   -0.73 KCAL/MOL
REMARK 927      BINDING AFFINITY PREDICTED BY RF-SCORE:    0.00 PKD
ROOT
HETATM    1  C   UNL     1      -6.687   4.211  68.762  1.00  0.00    -0.046 C  
HETATM    2  O   UNL     1      -7.852   4.861  68.274  1.00  0.00    -0.081 OA 
ENDROOT
BRANCH   2   3
HETATM    3  C   UNL     1      -8.694   5.280  69.347  1.00  0.00    -0.100 C  
BRANCH   3   4
HETATM    4  C   UNL     1     -10.126   4.840  69.076  1.00  0.00    -0.171 C  
BRANCH   4   5
HETATM    5  C   UNL     1     -11.128   5.993  69.012  1.00  0.00    -0.307 C  
BRANCH   5   6
HETATM    6  O   UNL     1     -11.205   6.648  70.275  1.00  0.00    -0.297 OA 
BRANCH   6   7
HETATM    7  C   UNL     1     -11.317   8.016  70.338  1.00  0.00    -0.187 A  
HETATM    8  C   UNL     1     -12.329   8.497  71.196  1.00  0.00    -0.206 A  
HETATM    9  C   UNL     1     -12.621   9.864  71.216  1.00  0.00    -0.480 A  
HETATM   10  C   UNL     1     -10.616   8.906  69.515  1.00  0.00    -0.233 A  
HETATM   11  C   UNL     1     -10.967  10.269  69.477  1.00  0.00    -0.300 A  
HETATM   12  C   UNL     1     -11.957  10.734  70.347  1.00  0.00    -0.448 A  
BRANCH   8  13
HETATM   13  O   UNL     1     -12.977   7.553  71.956  1.00  0.00    -0.269 OA 
HETATM   14  C   UNL     1     -14.379   7.409  71.777  1.00  0.00    -0.436 C  
ENDBRANCH   8  13
BRANCH  11  15
HETATM   15  C   UNL     1     -10.452  11.170  68.372  1.00  0.00    -0.211 C  
HETATM   16  C   UNL     1      -9.600  10.616  67.202  1.00  0.00    -0.189 C  
HETATM   17  C   UNL     1      -9.414  11.744  66.116  1.00  0.00    -0.240 C  
HETATM   18  C   UNL     1      -8.192  10.058  67.575  1.00  0.00    -0.114 C  
HETATM   19  C   UNL     1      -8.250   8.745  68.359  1.00  0.00    -0.118 C  
HETATM   20  C   UNL     1      -7.292  11.070  68.287  1.00  0.00    -0.088 C  
BRANCH  17  21
HETATM   21  C   UNL     1     -10.708  12.241  65.440  1.00  0.00    -0.284 C  
HETATM   22  N   UNL     1     -10.798  11.583  64.131  1.00  0.00    -0.353 NA 
HETATM   23  H1  UNL     1     -11.653  11.911  63.683  1.00  0.00     0.000 HD 
HETATM   24  H2  UNL     1     -10.744  10.566  64.191  1.00  0.00     0.000 HD 
BRANCH  21  25
HETATM   25  C   UNL     1     -10.805  13.808  65.319  1.00  0.00    -0.324 C  
HETATM   26  H   UNL     1     -12.153  15.238  65.589  1.00  0.00     0.000 HD 
HETATM   27  O   UNL     1     -12.095  14.293  65.662  1.00  0.00    -0.380 OA 
BRANCH  25  28
HETATM   28  C   UNL     1      -9.721  14.437  66.219  1.00  0.00    -0.330 C  
HETATM   29  C   UNL     1     -10.052  15.590  67.195  1.00  0.00    -0.254 C  
HETATM   30  C   UNL     1      -8.687  15.966  67.806  1.00  0.00    -0.170 C  
HETATM   31  C   UNL     1     -11.098  15.260  68.299  1.00  0.00    -0.301 C  
HETATM   32  C   UNL     1     -11.466  16.468  69.172  1.00  0.00    -0.084 C  
HETATM   33  O   UNL     1      -7.832  15.137  68.113  1.00  0.00    -0.118 OA 
HETATM   34  N   UNL     1      -8.485  17.315  67.999  1.00  0.00    -0.223 N  
HETATM   35  C   UNL     1     -10.700  14.067  69.176  1.00  0.00    -0.198 C  
HETATM   36  H   UNL     1      -9.244  17.972  67.820  1.00  0.00     0.000 HD 
BRANCH  34  37
HETATM   37  C   UNL     1      -7.198  17.808  68.457  1.00  0.00    -0.259 C  
BRANCH  37  38
HETATM   38  C   UNL     1      -6.632  18.946  67.591  1.00  0.00    -0.212 C  
HETATM   39  C   UNL     1      -6.662  20.268  68.389  1.00  0.00    -0.316 C  
HETATM   40  C   UNL     1      -5.185  18.643  67.167  1.00  0.00    -0.132 C  
BRANCH  38  41
HETATM   41  C   UNL     1      -7.514  19.109  66.346  1.00  0.00    -0.258 C  
HETATM   42  N   UNL     1      -8.178  20.288  66.201  1.00  0.00    -0.543 N  
HETATM   43  O   UNL     1      -7.641  18.244  65.482  1.00  0.00    -0.518 OA 
HETATM   44  H2  UNL     1      -8.093  21.033  66.892  1.00  0.00     0.000 HD 
HETATM   45  H1  UNL     1      -8.764  20.397  65.374  1.00  0.00     0.000 HD 
ENDBRANCH  38  41
ENDBRANCH  37  38
ENDBRANCH  34  37
ENDBRANCH  25  28
ENDBRANCH  21  25
ENDBRANCH  17  21
ENDBRANCH  11  15
ENDBRANCH   6   7
ENDBRANCH   5   6
ENDBRANCH   4   5
ENDBRANCH   3   4
ENDBRANCH   2   3
TORSDOF 13
ENDMDL
MODEL       72
REMARK 921   NORMALIZED FREE ENERGY PREDICTED BY IDOCK:   -4.63 KCAL/MOL
REMARK 922        TOTAL FREE ENERGY PREDICTED BY IDOCK:  -10.45 KCAL/MOL
REMARK 923 INTER-LIGAND FREE ENERGY PREDICTED BY IDOCK:   -8.89 KCAL/MOL
REMARK 924 INTRA-LIGAND FREE ENERGY PREDICTED BY IDOCK:   -1.56 KCAL/MOL
REMARK 927      BINDING AFFINITY PREDICTED BY RF-SCORE:    0.00 PKD
ROOT
HETATM    1  C   UNL     1     -14.411   8.037  71.587  1.00  0.00    -0.473 C  
HETATM    2  O   UNL     1     -13.018   7.764  71.645  1.00  0.00    -0.331 OA 
ENDROOT
BRANCH   2   3
HETATM    3  C   UNL     1     -12.329   8.766  72.391  1.00  0.00    -0.344 C  
BRANCH   3   4
HETATM    4  C   UNL     1     -11.058   9.169  71.655  1.00  0.00    -0.445 C  
BRANCH   4   5
HETATM    5  C   UNL     1     -10.317   7.998  71.010  1.00  0.00    -0.201 C  
BRANCH   5   6
HETATM    6  O   UNL     1      -8.981   7.931  71.500  1.00  0.00    -0.128 OA 
BRANCH   6   7
HETATM    7  C   UNL     1      -7.921   8.053  70.635  1.00  0.00    -0.096 A  
HETATM    8  C   UNL     1      -7.110   6.904  70.513  1.00  0.00    -0.067 A  
HETATM    9  C   UNL     1      -5.925   6.974  69.775  1.00  0.00    -0.023 A  
HETATM   10  C   UNL     1      -7.534   9.250  70.021  1.00  0.00    -0.094 A  
HETATM   11  C   UNL     1      -6.301   9.341  69.348  1.00  0.00    -0.044 A  
HETATM   12  C   UNL     1      -5.519   8.190  69.218  1.00  0.00    -0.030 A  
BRANCH   8  13
HETATM   13  O   UNL     1      -7.556   5.777  71.161  1.00  0.00    -0.094 OA 
HETATM   14  C   UNL     1      -6.906   4.547  70.873  1.00  0.00    -0.036 C  
ENDBRANCH   8  13
BRANCH  11  15
HETATM   15  C   UNL     1      -5.723  10.689  68.968  1.00  0.00    -0.040 C  
HETATM   16  C   UNL     1      -6.474  11.657  68.018  1.00  0.00    -0.055 C  
HETATM   17  C   UNL     1      -5.730  13.047  68.000  1.00  0.00    -0.107 C  
HETATM   18  C   UNL     1      -6.655  11.179  66.545  1.00  0.00    -0.124 C  
HETATM   19  C   UNL     1      -7.645  10.021  66.401  1.00  0.00    -0.104 C  
HETATM   20  C   UNL     1      -5.340  10.852  65.833  1.00  0.00    -0.142 C  
BRANCH  17  21
HETATM   21  C   UNL     1      -5.684  13.798  69.346  1.00  0.00    -0.090 C  
HETATM   22  N   UNL     1      -6.378  12.966  70.335  1.00  0.00    -0.427 NA 
HETATM   23  H1  UNL     1      -6.348  13.462  71.226  1.00  0.00     0.000 HD 
HETATM   24  H2  UNL     1      -6.003  12.019  70.394  1.00  0.00     0.000 HD 
BRANCH  21  25
HETATM   25  C   UNL     1      -6.275  15.257  69.284  1.00  0.00    -0.118 C  
HETATM   26  H   UNL     1      -5.615  17.123  69.149  1.00  0.00     0.000 HD 
HETATM   27  O   UNL     1      -5.258  16.243  69.186  1.00  0.00    -0.109 OA 
BRANCH  25  28
HETATM   28  C   UNL     1      -7.246  15.342  68.089  1.00  0.00    -0.124 C  
HETATM   29  C   UNL     1      -8.700  15.839  68.264  1.00  0.00    -0.172 C  
HETATM   30  C   UNL     1      -9.324  15.670  66.863  1.00  0.00    -0.234 C  
HETATM   31  C   UNL     1      -8.857  17.297  68.785  1.00  0.00    -0.233 C  
HETATM   32  C   UNL     1     -10.316  17.700  69.040  1.00  0.00    -0.272 C  
HETATM   33  O   UNL     1      -8.719  15.915  65.820  1.00  0.00    -0.192 OA 
HETATM   34  N   UNL     1     -10.629  15.230  66.854  1.00  0.00    -0.298 N  
HETATM   35  C   UNL     1      -8.161  18.336  67.900  1.00  0.00    -0.260 C  
HETATM   36  H   UNL     1     -11.133  15.121  67.733  1.00  0.00     0.000 HD 
BRANCH  34  37
HETATM   37  C   UNL     1     -11.291  14.919  65.600  1.00  0.00    -0.325 C  
BRANCH  37  38
HETATM   38  C   UNL     1     -11.345  13.414  65.289  1.00  0.00    -0.313 C  
HETATM   39  C   UNL     1      -9.994  12.958  64.697  1.00  0.00    -0.153 C  
HETATM   40  C   UNL     1     -11.638  12.603  66.563  1.00  0.00    -0.441 C  
BRANCH  38  41
HETATM   41  C   UNL     1     -12.443  13.159  64.248  1.00  0.00    -0.288 C  
HETATM   42  N   UNL     1     -12.430  13.928  63.126  1.00  0.00    -1.079 N  
HETATM   43  O   UNL     1     -13.315  12.302  64.373  1.00  0.00    -0.786 OA 
HETATM   44  H2  UNL     1     -11.720  14.645  62.983  1.00  0.00     0.000 HD 
HETATM   45  H1  UNL     1     -13.160  13.760  62.434  1.00  0.00     0.000 HD 
ENDBRANCH  38  41
ENDBRANCH  37  38
ENDBRANCH  34  37
ENDBRANCH  25  28
ENDBRANCH  21  25
ENDBRANCH  17  21
ENDBRANCH  11  15
ENDBRANCH   6   7
ENDBRANCH   5   6
ENDBRANCH   4   5
ENDBRANCH   3   4
ENDBRANCH   2   3
TORSDOF 13
ENDMDL
MODEL       73
REMARK 921   NORMALIZED FREE ENERGY PREDICTED BY IDOCK:   -4.60 KCAL/MOL
REMARK 922        TOTAL FREE ENERGY PREDICTED BY IDOCK:  -10.40 KCAL/MOL
REMARK 923 INTER-LIGAND FREE ENERGY PREDICTED BY IDOCK:   -9.97 KCAL/MOL
REMARK 924 INTRA-LIGAND FREE ENERGY PREDICTED BY IDOCK:   -0.43 KCAL/MOL
REMARK 927      BINDING AFFINITY PREDICTED BY RF-SCORE:    0.00 PKD
ROOT
HETATM    1  C   UNL     1     -13.553  14.547  72.789  1.00  0.00    -0.433 C  
HETATM    2  O   UNL     1     -12.383  14.361  72.005  1.00  0.00    -0.320 OA 
ENDROOT
BRANCH   2   3
HETATM    3  C   UNL     1     -12.712  13.932  70.684  1.00  0.00    -0.281 C  
BRANCH   3   4
HETATM    4  C   UNL     1     -12.308  12.475  70.504  1.00  0.00    -0.345 C  
BRANCH   4   5
HETATM    5  C   UNL     1     -13.227  11.485  71.219  1.00  0.00    -0.021 C  
BRANCH   5   6
HETATM    6  O   UNL     1     -13.085  10.185  70.654  1.00  0.00    -0.341 OA 
BRANCH   6   7
HETATM    7  C   UNL     1     -11.975   9.427  70.937  1.00  0.00    -0.280 A  
HETATM    8  C   UNL     1     -12.057   8.657  72.117  1.00  0.00    -0.381 A  
HETATM    9  C   UNL     1     -10.928   7.969  72.570  1.00  0.00    -0.430 A  
HETATM   10  C   UNL     1     -10.767   9.497  70.231  1.00  0.00    -0.315 A  
HETATM   11  C   UNL     1      -9.610   8.871  70.733  1.00  0.00    -0.283 A  
HETATM   12  C   UNL     1      -9.713   8.096  71.891  1.00  0.00    -0.268 A  
BRANCH   8  13
HETATM   13  O   UNL     1     -13.275   8.656  72.755  1.00  0.00    -0.303 OA 
HETATM   14  C   UNL     1     -14.336   7.928  72.154  1.00  0.00    -0.307 C  
ENDBRANCH   8  13
BRANCH  11  15
HETATM   15  C   UNL     1      -8.244   9.205  70.170  1.00  0.00    -0.161 C  
HETATM   16  C   UNL     1      -7.923   9.037  68.662  1.00  0.00    -0.102 C  
HETATM   17  C   UNL     1      -6.511   9.670  68.359  1.00  0.00    -0.052 C  
HETATM   18  C   UNL     1      -7.933   7.578  68.111  1.00  0.00    -0.123 C  
HETATM   19  C   UNL     1      -9.335   6.968  68.040  1.00  0.00    -0.127 C  
HETATM   20  C   UNL     1      -6.973   6.633  68.836  1.00  0.00    -0.079 C  
BRANCH  17  21
HETATM   21  C   UNL     1      -6.394  11.188  68.604  1.00  0.00    -0.044 C  
HETATM   22  N   UNL     1      -7.154  11.495  69.822  1.00  0.00    -0.351 NA 
HETATM   23  H1  UNL     1      -7.076  12.499  69.984  1.00  0.00     0.000 HD 
HETATM   24  H2  UNL     1      -6.862  10.938  70.625  1.00  0.00     0.000 HD 
BRANCH  21  25
HETATM   25  C   UNL     1      -6.856  12.071  67.383  1.00  0.00    -0.142 C  
HETATM   26  H   UNL     1      -7.793  11.835  65.651  1.00  0.00     0.000 HD 
HETATM   27  O   UNL     1      -7.515  11.303  66.387  1.00  0.00    -0.133 OA 
BRANCH  25  28
HETATM   28  C   UNL     1      -7.771  13.195  67.910  1.00  0.00    -0.147 C  
HETATM   29  C   UNL     1      -8.677  14.010  66.959  1.00  0.00    -0.220 C  
HETATM   30  C   UNL     1      -9.328  15.066  67.876  1.00  0.00    -0.183 C  
HETATM   31  C   UNL     1      -9.750  13.191  66.184  1.00  0.00    -0.254 C  
HETATM   32  C   UNL     1     -10.550  14.031  65.178  1.00  0.00    -0.400 C  
HETATM   33  O   UNL     1      -9.709  14.825  69.020  1.00  0.00    -0.218 OA 
HETATM   34  N   UNL     1      -9.467  16.318  67.318  1.00  0.00    -0.225 N  
HETATM   35  C   UNL     1     -10.697  12.409  67.101  1.00  0.00    -0.264 C  
HETATM   36  H   UNL     1      -9.226  16.466  66.338  1.00  0.00     0.000 HD 
BRANCH  34  37
HETATM   37  C   UNL     1      -9.955  17.428  68.116  1.00  0.00    -0.308 C  
BRANCH  37  38
HETATM   38  C   UNL     1      -9.850  18.789  67.406  1.00  0.00    -0.357 C  
HETATM   39  C   UNL     1     -10.576  18.722  66.045  1.00  0.00    -0.442 C  
HETATM   40  C   UNL     1     -10.478  19.901  68.261  1.00  0.00    -0.436 C  
BRANCH  38  41
HETATM   41  C   UNL     1      -8.369  19.104  67.153  1.00  0.00    -0.279 C  
HETATM   42  N   UNL     1      -8.019  20.413  67.042  1.00  0.00    -0.409 N  
HETATM   43  O   UNL     1      -7.497  18.244  67.055  1.00  0.00    -0.205 OA 
HETATM   44  H2  UNL     1      -8.713  21.157  67.125  1.00  0.00     0.000 HD 
HETATM   45  H1  UNL     1      -7.036  20.623  66.874  1.00  0.00     0.000 HD 
ENDBRANCH  38  41
ENDBRANCH  37  38
ENDBRANCH  34  37
ENDBRANCH  25  28
ENDBRANCH  21  25
ENDBRANCH  17  21
ENDBRANCH  11  15
ENDBRANCH   6   7
ENDBRANCH   5   6
ENDBRANCH   4   5
ENDBRANCH   3   4
ENDBRANCH   2   3
TORSDOF 13
ENDMDL
MODEL       74
REMARK 921   NORMALIZED FREE ENERGY PREDICTED BY IDOCK:   -4.55 KCAL/MOL
REMARK 922        TOTAL FREE ENERGY PREDICTED BY IDOCK:  -10.32 KCAL/MOL
REMARK 923 INTER-LIGAND FREE ENERGY PREDICTED BY IDOCK:   -7.42 KCAL/MOL
REMARK 924 INTRA-LIGAND FREE ENERGY PREDICTED BY IDOCK:   -2.91 KCAL/MOL
REMARK 927      BINDING AFFINITY PREDICTED BY RF-SCORE:    0.00 PKD
ROOT
HETATM    1  C   UNL     1      -9.148   6.390  66.177  1.00  0.00    -0.131 C  
HETATM    2  O   UNL     1      -9.409   5.084  65.683  1.00  0.00    -0.158 OA 
ENDROOT
BRANCH   2   3
HETATM    3  C   UNL     1      -9.265   4.107  66.712  1.00  0.00    -0.157 C  
BRANCH   3   4
HETATM    4  C   UNL     1     -10.097   4.512  67.922  1.00  0.00    -0.047 C  
BRANCH   4   5
HETATM    5  C   UNL     1      -9.383   4.315  69.259  1.00  0.00    -0.162 C  
BRANCH   5   6
HETATM    6  O   UNL     1     -10.123   4.933  70.308  1.00  0.00    -0.235 OA 
BRANCH   6   7
HETATM    7  C   UNL     1      -9.870   6.237  70.657  1.00  0.00    -0.184 A  
HETATM    8  C   UNL     1      -9.088   6.408  71.819  1.00  0.00    -0.143 A  
HETATM    9  C   UNL     1      -8.901   7.691  72.340  1.00  0.00    -0.176 A  
HETATM   10  C   UNL     1     -10.453   7.349  70.037  1.00  0.00    -0.233 A  
HETATM   11  C   UNL     1     -10.332   8.630  70.610  1.00  0.00    -0.241 A  
HETATM   12  C   UNL     1      -9.537   8.786  71.749  1.00  0.00    -0.371 A  
BRANCH   8  13
HETATM   13  O   UNL     1      -8.568   5.262  72.372  1.00  0.00    -0.121 OA 
HETATM   14  C   UNL     1      -7.163   5.068  72.293  1.00  0.00    -0.089 C  
ENDBRANCH   8  13
BRANCH  11  15
HETATM   15  C   UNL     1     -11.214   9.771  70.146  1.00  0.00    -0.324 C  
HETATM   16  C   UNL     1     -12.107  10.564  71.135  1.00  0.00    -0.473 C  
HETATM   17  C   UNL     1     -12.721  11.812  70.394  1.00  0.00    -0.071 C  
HETATM   18  C   UNL     1     -13.271   9.770  71.803  1.00  0.00    -0.532 C  
HETATM   19  C   UNL     1     -12.791   8.734  72.823  1.00  0.00    -0.160 C  
HETATM   20  C   UNL     1     -14.240   9.131  70.806  1.00  0.00     0.375 C  
BRANCH  17  21
HETATM   21  C   UNL     1     -11.704  12.854  69.885  1.00  0.00    -0.254 C  
HETATM   22  N   UNL     1     -11.819  14.035  70.749  1.00  0.00    -0.491 NA 
HETATM   23  H1  UNL     1     -11.146  14.725  70.413  1.00  0.00     0.000 HD 
HETATM   24  H2  UNL     1     -11.705  13.818  71.739  1.00  0.00     0.000 HD 
BRANCH  21  25
HETATM   25  C   UNL     1     -11.871  13.220  68.362  1.00  0.00    -0.360 C  
HETATM   26  H   UNL     1     -11.365  14.683  67.122  1.00  0.00     0.000 HD 
HETATM   27  O   UNL     1     -11.264  14.463  68.041  1.00  0.00    -0.259 OA 
BRANCH  25  28
HETATM   28  C   UNL     1     -11.274  12.077  67.516  1.00  0.00    -0.357 C  
HETATM   29  C   UNL     1      -9.902  12.223  66.816  1.00  0.00    -0.218 C  
HETATM   30  C   UNL     1      -9.747  10.911  66.020  1.00  0.00    -0.224 C  
HETATM   31  C   UNL     1      -8.687  12.464  67.759  1.00  0.00    -0.176 C  
HETATM   32  C   UNL     1      -7.370  12.706  67.007  1.00  0.00     0.046 C  
HETATM   33  O   UNL     1     -10.095   9.814  66.452  1.00  0.00    -0.233 OA 
HETATM   34  N   UNL     1      -9.173  11.048  64.775  1.00  0.00    -0.271 N  
HETATM   35  C   UNL     1      -8.508  11.366  68.812  1.00  0.00    -0.089 C  
HETATM   36  H   UNL     1      -8.812  11.955  64.481  1.00  0.00     0.000 HD 
BRANCH  34  37
HETATM   37  C   UNL     1      -9.079   9.909  63.880  1.00  0.00    -0.259 C  
BRANCH  37  38
HETATM   38  C   UNL     1      -7.667   9.689  63.310  1.00  0.00    -0.130 C  
HETATM   39  C   UNL     1      -7.622   8.353  62.538  1.00  0.00    -0.114 C  
HETATM   40  C   UNL     1      -7.277  10.835  62.362  1.00  0.00    -0.110 C  
BRANCH  38  41
HETATM   41  C   UNL     1      -6.667   9.614  64.472  1.00  0.00    -0.103 C  
HETATM   42  N   UNL     1      -5.417  10.103  64.253  1.00  0.00    -0.102 N  
HETATM   43  O   UNL     1      -6.940   9.148  65.576  1.00  0.00    -0.079 OA 
HETATM   44  H2  UNL     1      -5.155  10.504  63.353  1.00  0.00     0.000 HD 
HETATM   45  H1  UNL     1      -4.753  10.053  65.025  1.00  0.00     0.000 HD 
ENDBRANCH  38  41
ENDBRANCH  37  38
ENDBRANCH  34  37
ENDBRANCH  25  28
ENDBRANCH  21  25
ENDBRANCH  17  21
ENDBRANCH  11  15
ENDBRANCH   6   7
ENDBRANCH   5   6
ENDBRANCH   4   5
ENDBRANCH   3   4
ENDBRANCH   2   3
TORSDOF 13
ENDMDL
MODEL       75
REMARK 921   NORMALIZED FREE ENERGY PREDICTED BY IDOCK:   -4.55 KCAL/MOL
REMARK 922        TOTAL FREE ENERGY PREDICTED BY IDOCK:  -10.31 KCAL/MOL
REMARK 923 INTER-LIGAND FREE ENERGY PREDICTED BY IDOCK:   -8.37 KCAL/MOL
REMARK 924 INTRA-LIGAND FREE ENERGY PREDICTED BY IDOCK:   -1.94 KCAL/MOL
REMARK 927      BINDING AFFINITY PREDICTED BY RF-SCORE:    0.00 PKD
ROOT
HETATM    1  C   UNL     1     -10.810  19.352  65.477  1.00  0.00    -0.113 C  
HETATM    2  O   UNL     1      -9.734  20.214  65.818  1.00  0.00    -0.354 OA 
ENDROOT
BRANCH   2   3
HETATM    3  C   UNL     1      -9.835  20.651  67.173  1.00  0.00    -0.357 C  
BRANCH   3   4
HETATM    4  C   UNL     1     -10.508  19.571  68.010  1.00  0.00    -0.528 C  
BRANCH   4   5
HETATM    5  C   UNL     1      -9.736  19.197  69.275  1.00  0.00    -0.196 C  
BRANCH   5   6
HETATM    6  O   UNL     1      -8.340  19.398  69.078  1.00  0.00    -0.348 OA 
BRANCH   6   7
HETATM    7  C   UNL     1      -7.558  18.382  68.586  1.00  0.00    -0.302 A  
HETATM    8  C   UNL     1      -6.617  18.767  67.607  1.00  0.00    -0.207 A  
HETATM    9  C   UNL     1      -5.878  17.787  66.938  1.00  0.00    -0.181 A  
HETATM   10  C   UNL     1      -7.747  17.025  68.878  1.00  0.00    -0.231 A  
HETATM   11  C   UNL     1      -7.063  16.036  68.145  1.00  0.00    -0.128 A  
HETATM   12  C   UNL     1      -6.119  16.435  67.194  1.00  0.00    -0.182 A  
BRANCH   8  13
HETATM   13  O   UNL     1      -6.508  20.117  67.372  1.00  0.00    -0.199 OA 
HETATM   14  C   UNL     1      -5.408  20.803  67.953  1.00  0.00    -0.238 C  
ENDBRANCH   8  13
BRANCH  11  15
HETATM   15  C   UNL     1      -7.491  14.585  68.218  1.00  0.00    -0.120 C  
HETATM   16  C   UNL     1      -8.336  13.929  67.097  1.00  0.00    -0.171 C  
HETATM   17  C   UNL     1      -8.425  12.376  67.354  1.00  0.00    -0.179 C  
HETATM   18  C   UNL     1      -9.784  14.478  66.911  1.00  0.00    -0.257 C  
HETATM   19  C   UNL     1      -9.826  15.892  66.329  1.00  0.00    -0.325 C  
HETATM   20  C   UNL     1     -10.647  14.390  68.172  1.00  0.00    -0.236 C  
BRANCH  17  21
HETATM   21  C   UNL     1      -7.085  11.614  67.312  1.00  0.00    -0.134 C  
HETATM   22  N   UNL     1      -7.237  10.514  66.353  1.00  0.00    -0.122 NA 
HETATM   23  H1  UNL     1      -6.351  10.009  66.325  1.00  0.00     0.000 HD 
HETATM   24  H2  UNL     1      -7.547  10.826  65.433  1.00  0.00     0.000 HD 
BRANCH  21  25
HETATM   25  C   UNL     1      -6.594  11.105  68.720  1.00  0.00    -0.059 C  
HETATM   26  H   UNL     1      -6.726  11.647  70.623  1.00  0.00     0.000 HD 
HETATM   27  O   UNL     1      -7.023  11.954  69.774  1.00  0.00     0.031 OA 
BRANCH  25  28
HETATM   28  C   UNL     1      -7.106   9.665  68.925  1.00  0.00    -0.067 C  
HETATM   29  C   UNL     1      -8.239   9.347  69.929  1.00  0.00    -0.155 C  
HETATM   30  C   UNL     1      -8.358   7.810  69.883  1.00  0.00    -0.130 C  
HETATM   31  C   UNL     1      -9.606  10.034  69.643  1.00  0.00    -0.251 C  
HETATM   32  C   UNL     1     -10.660   9.768  70.726  1.00  0.00    -0.371 C  
HETATM   33  O   UNL     1      -8.264   7.156  68.846  1.00  0.00    -0.123 OA 
HETATM   34  N   UNL     1      -8.593   7.206  71.099  1.00  0.00    -0.128 N  
HETATM   35  C   UNL     1     -10.170   9.709  68.255  1.00  0.00    -0.216 C  
HETATM   36  H   UNL     1      -8.756   7.779  71.926  1.00  0.00     0.000 HD 
BRANCH  34  37
HETATM   37  C   UNL     1      -8.608   5.758  71.209  1.00  0.00    -0.129 C  
BRANCH  37  38
HETATM   38  C   UNL     1     -10.018   5.171  71.392  1.00  0.00    -0.252 C  
HETATM   39  C   UNL     1     -10.965   5.752  70.321  1.00  0.00    -0.347 C  
HETATM   40  C   UNL     1      -9.992   3.638  71.266  1.00  0.00    -0.144 C  
BRANCH  38  41
HETATM   41  C   UNL     1     -10.547   5.568  72.777  1.00  0.00    -0.225 C  
HETATM   42  N   UNL     1     -11.891   5.508  72.973  1.00  0.00    -0.542 N  
HETATM   43  O   UNL     1      -9.825   5.925  73.705  1.00  0.00    -0.157 OA 
HETATM   44  H2  UNL     1     -12.523   5.210  72.229  1.00  0.00     0.000 HD 
HETATM   45  H1  UNL     1     -12.243   5.772  73.893  1.00  0.00     0.000 HD 
ENDBRANCH  38  41
ENDBRANCH  37  38
ENDBRANCH  34  37
ENDBRANCH  25  28
ENDBRANCH  21  25
ENDBRANCH  17  21
ENDBRANCH  11  15
ENDBRANCH   6   7
ENDBRANCH   5   6
ENDBRANCH   4   5
ENDBRANCH   3   4
ENDBRANCH   2   3
TORSDOF 13
ENDMDL
MODEL       76
REMARK 921   NORMALIZED FREE ENERGY PREDICTED BY IDOCK:   -4.51 KCAL/MOL
REMARK 922        TOTAL FREE ENERGY PREDICTED BY IDOCK:  -10.24 KCAL/MOL
REMARK 923 INTER-LIGAND FREE ENERGY PREDICTED BY IDOCK:   -7.76 KCAL/MOL
REMARK 924 INTRA-LIGAND FREE ENERGY PREDICTED BY IDOCK:   -2.48 KCAL/MOL
REMARK 927      BINDING AFFINITY PREDICTED BY RF-SCORE:    0.00 PKD
ROOT
HETATM    1  C   UNL     1     -12.137  16.191  72.767  1.00  0.00    -0.553 C  
HETATM    2  O   UNL     1     -13.197  15.841  71.888  1.00  0.00    -0.463 OA 
ENDROOT
BRANCH   2   3
HETATM    3  C   UNL     1     -12.697  15.448  70.611  1.00  0.00    -0.437 C  
BRANCH   3   4
HETATM    4  C   UNL     1     -11.231  15.841  70.491  1.00  0.00    -0.392 C  
BRANCH   4   5
HETATM    5  C   UNL     1     -10.595  15.465  69.154  1.00  0.00    -0.248 C  
BRANCH   5   6
HETATM    6  O   UNL     1      -9.229  15.866  69.127  1.00  0.00    -0.225 OA 
BRANCH   6   7
HETATM    7  C   UNL     1      -8.233  14.924  69.041  1.00  0.00    -0.168 A  
HETATM    8  C   UNL     1      -6.962  15.423  68.681  1.00  0.00    -0.111 A  
HETATM    9  C   UNL     1      -5.920  14.529  68.422  1.00  0.00    -0.103 A  
HETATM   10  C   UNL     1      -8.440  13.542  69.133  1.00  0.00     0.492 A  
HETATM   11  C   UNL     1      -7.413  12.642  68.792  1.00  0.00    -0.044 A  
HETATM   12  C   UNL     1      -6.155  13.152  68.458  1.00  0.00    -0.078 A  
BRANCH   8  13
HETATM   13  O   UNL     1      -6.852  16.791  68.598  1.00  0.00    -0.158 OA 
HETATM   14  C   UNL     1      -6.235  17.472  69.682  1.00  0.00    -0.227 C  
ENDBRANCH   8  13
BRANCH  11  15
HETATM   15  C   UNL     1      -7.712  11.174  68.571  1.00  0.00    -0.129 C  
HETATM   16  C   UNL     1      -7.578  10.135  69.714  1.00  0.00    -0.175 C  
HETATM   17  C   UNL     1      -8.168   8.755  69.232  1.00  0.00    -0.108 C  
HETATM   18  C   UNL     1      -6.138   9.889  70.259  1.00  0.00    -0.074 C  
HETATM   19  C   UNL     1      -5.582  11.070  71.057  1.00  0.00    -0.041 C  
HETATM   20  C   UNL     1      -5.137   9.445  69.190  1.00  0.00    -0.036 C  
BRANCH  17  21
HETATM   21  C   UNL     1      -9.672   8.752  68.894  1.00  0.00    -0.172 C  
HETATM   22  N   UNL     1     -10.377   8.162  70.038  1.00  0.00    -0.210 NA 
HETATM   23  H1  UNL     1     -11.372   8.160  69.815  1.00  0.00     0.000 HD 
HETATM   24  H2  UNL     1     -10.168   8.630  70.920  1.00  0.00     0.000 HD 
BRANCH  21  25
HETATM   25  C   UNL     1     -10.023   8.019  67.544  1.00  0.00    -0.194 C  
HETATM   26  H   UNL     1     -11.355   6.715  66.865  1.00  0.00     0.000 HD 
HETATM   27  O   UNL     1     -11.144   7.158  67.679  1.00  0.00    -0.175 OA 
BRANCH  25  28
HETATM   28  C   UNL     1     -10.272   9.085  66.458  1.00  0.00    -0.318 C  
HETATM   29  C   UNL     1      -9.179  10.106  66.065  1.00  0.00    -0.198 C  
HETATM   30  C   UNL     1      -9.876  11.022  65.037  1.00  0.00    -0.269 C  
HETATM   31  C   UNL     1      -7.866   9.501  65.489  1.00  0.00    -0.108 C  
HETATM   32  C   UNL     1      -6.779  10.549  65.215  1.00  0.00    -0.049 C  
HETATM   33  O   UNL     1     -10.656  10.606  64.182  1.00  0.00    -0.283 OA 
HETATM   34  N   UNL     1      -9.554  12.358  65.133  1.00  0.00    -0.460 N  
HETATM   35  C   UNL     1      -8.092   8.627  64.250  1.00  0.00    -0.158 C  
HETATM   36  H   UNL     1      -8.837  12.660  65.791  1.00  0.00     0.000 HD 
BRANCH  34  37
HETATM   37  C   UNL     1     -10.231  13.338  64.302  1.00  0.00    -0.196 C  
BRANCH  37  38
HETATM   38  C   UNL     1     -11.108  14.318  65.098  1.00  0.00    -0.354 C  
HETATM   39  C   UNL     1     -11.229  13.836  66.560  1.00  0.00    -0.319 C  
HETATM   40  C   UNL     1     -10.504  15.732  65.080  1.00  0.00    -0.331 C  
BRANCH  38  41
HETATM   41  C   UNL     1     -12.512  14.346  64.477  1.00  0.00    -0.339 C  
HETATM   42  N   UNL     1     -13.558  14.027  65.286  1.00  0.00    -0.023 N  
HETATM   43  O   UNL     1     -12.733  14.646  63.306  1.00  0.00    -0.330 OA 
HETATM   44  H2  UNL     1     -13.416  13.780  66.265  1.00  0.00     0.000 HD 
HETATM   45  H1  UNL     1     -14.491  14.045  64.874  1.00  0.00     0.000 HD 
ENDBRANCH  38  41
ENDBRANCH  37  38
ENDBRANCH  34  37
ENDBRANCH  25  28
ENDBRANCH  21  25
ENDBRANCH  17  21
ENDBRANCH  11  15
ENDBRANCH   6   7
ENDBRANCH   5   6
ENDBRANCH   4   5
ENDBRANCH   3   4
ENDBRANCH   2   3
TORSDOF 13
ENDMDL
MODEL       77
REMARK 921   NORMALIZED FREE ENERGY PREDICTED BY IDOCK:   -4.49 KCAL/MOL
REMARK 922        TOTAL FREE ENERGY PREDICTED BY IDOCK:  -10.22 KCAL/MOL
REMARK 923 INTER-LIGAND FREE ENERGY PREDICTED BY IDOCK:   -8.37 KCAL/MOL
REMARK 924 INTRA-LIGAND FREE ENERGY PREDICTED BY IDOCK:   -1.85 KCAL/MOL
REMARK 927      BINDING AFFINITY PREDICTED BY RF-SCORE:    0.00 PKD
ROOT
HETATM    1  C   UNL     1      -9.437  10.016  64.761  1.00  0.00    -0.304 C  
HETATM    2  O   UNL     1      -9.113   8.740  65.295  1.00  0.00    -0.186 OA 
ENDROOT
BRANCH   2   3
HETATM    3  C   UNL     1      -8.004   8.162  64.610  1.00  0.00    -0.149 C  
BRANCH   3   4
HETATM    4  C   UNL     1      -6.707   8.580  65.290  1.00  0.00    -0.063 C  
BRANCH   4   5
HETATM    5  C   UNL     1      -6.475   7.912  66.645  1.00  0.00    -0.055 C  
BRANCH   5   6
HETATM    6  O   UNL     1      -7.114   6.640  66.683  1.00  0.00    -0.065 OA 
BRANCH   6   7
HETATM    7  C   UNL     1      -8.033   6.358  67.665  1.00  0.00    -0.114 A  
HETATM    8  C   UNL     1      -8.453   5.012  67.726  1.00  0.00    -0.104 A  
HETATM    9  C   UNL     1      -9.491   4.653  68.589  1.00  0.00    -0.213 A  
HETATM   10  C   UNL     1      -8.659   7.322  68.464  1.00  0.00    -0.124 A  
HETATM   11  C   UNL     1      -9.759   6.975  69.271  1.00  0.00    -0.158 A  
HETATM   12  C   UNL     1     -10.149   5.635  69.337  1.00  0.00    -0.290 A  
BRANCH   8  13
HETATM   13  O   UNL     1      -7.795   4.135  66.897  1.00  0.00    -0.095 OA 
HETATM   14  C   UNL     1      -7.009   3.117  67.499  1.00  0.00    -0.050 C  
ENDBRANCH   8  13
BRANCH  11  15
HETATM   15  C   UNL     1     -10.642   8.046  69.878  1.00  0.00    -0.242 C  
HETATM   16  C   UNL     1     -10.071   9.128  70.830  1.00  0.00    -0.356 C  
HETATM   17  C   UNL     1     -11.181  10.213  71.108  1.00  0.00    -0.244 C  
HETATM   18  C   UNL     1      -9.525   8.624  72.202  1.00  0.00    -0.373 C  
HETATM   19  C   UNL     1      -8.226   7.824  72.078  1.00  0.00    -0.134 C  
HETATM   20  C   UNL     1     -10.552   7.854  73.034  1.00  0.00    -0.406 C  
BRANCH  17  21
HETATM   21  C   UNL     1     -11.661  11.008  69.878  1.00  0.00    -0.337 C  
HETATM   22  N   UNL     1     -12.992  10.501  69.521  1.00  0.00    -0.455 NA 
HETATM   23  H1  UNL     1     -13.310  11.027  68.707  1.00  0.00     0.000 HD 
HETATM   24  H2  UNL     1     -13.652  10.532  70.298  1.00  0.00     0.000 HD 
BRANCH  21  25
HETATM   25  C   UNL     1     -10.666  10.960  68.657  1.00  0.00    -0.203 C  
HETATM   26  H   UNL     1     -10.480  10.001  66.930  1.00  0.00     0.000 HD 
HETATM   27  O   UNL     1     -11.080  10.030  67.666  1.00  0.00    -0.285 OA 
BRANCH  25  28
HETATM   28  C   UNL     1     -10.545  12.379  68.067  1.00  0.00    -0.238 C  
HETATM   29  C   UNL     1      -9.406  13.335  68.493  1.00  0.00    -0.091 C  
HETATM   30  C   UNL     1      -9.721  14.648  67.748  1.00  0.00    -0.215 C  
HETATM   31  C   UNL     1      -7.962  12.841  68.189  1.00  0.00    -0.156 C  
HETATM   32  C   UNL     1      -6.871  13.778  68.727  1.00  0.00    -0.106 C  
HETATM   33  O   UNL     1     -10.146  14.685  66.594  1.00  0.00    -0.261 OA 
HETATM   34  N   UNL     1      -9.483  15.799  68.466  1.00  0.00    -0.195 N  
HETATM   35  C   UNL     1      -7.723  12.536  66.706  1.00  0.00     0.162 C  
HETATM   36  H   UNL     1      -9.046  15.742  69.385  1.00  0.00     0.000 HD 
BRANCH  34  37
HETATM   37  C   UNL     1      -9.849  17.095  67.921  1.00  0.00    -0.283 C  
BRANCH  37  38
HETATM   38  C   UNL     1      -8.656  18.051  67.753  1.00  0.00    -0.244 C  
HETATM   39  C   UNL     1      -7.517  17.631  68.706  1.00  0.00    -0.255 C  
HETATM   40  C   UNL     1      -8.139  18.030  66.305  1.00  0.00    -0.259 C  
BRANCH  38  41
HETATM   41  C   UNL     1      -9.102  19.472  68.124  1.00  0.00    -0.339 C  
HETATM   42  N   UNL     1     -10.043  19.597  69.098  1.00  0.00    -0.609 N  
HETATM   43  O   UNL     1      -8.650  20.487  67.599  1.00  0.00    -0.272 OA 
HETATM   44  H2  UNL     1     -10.438  18.779  69.563  1.00  0.00     0.000 HD 
HETATM   45  H1  UNL     1     -10.340  20.541  69.345  1.00  0.00     0.000 HD 
ENDBRANCH  38  41
ENDBRANCH  37  38
ENDBRANCH  34  37
ENDBRANCH  25  28
ENDBRANCH  21  25
ENDBRANCH  17  21
ENDBRANCH  11  15
ENDBRANCH   6   7
ENDBRANCH   5   6
ENDBRANCH   4   5
ENDBRANCH   3   4
ENDBRANCH   2   3
TORSDOF 13
ENDMDL
MODEL       78
REMARK 921   NORMALIZED FREE ENERGY PREDICTED BY IDOCK:   -4.45 KCAL/MOL
REMARK 922        TOTAL FREE ENERGY PREDICTED BY IDOCK:  -10.14 KCAL/MOL
REMARK 923 INTER-LIGAND FREE ENERGY PREDICTED BY IDOCK:   -9.33 KCAL/MOL
REMARK 924 INTRA-LIGAND FREE ENERGY PREDICTED BY IDOCK:   -0.80 KCAL/MOL
REMARK 927      BINDING AFFINITY PREDICTED BY RF-SCORE:    0.00 PKD
ROOT
HETATM    1  C   UNL     1      -5.955   6.533  68.727  1.00  0.00    -0.022 C  
HETATM    2  O   UNL     1      -6.959   6.389  69.721  1.00  0.00    -0.062 OA 
ENDROOT
BRANCH   2   3
HETATM    3  C   UNL     1      -6.959   7.500  70.617  1.00  0.00    -0.051 C  
BRANCH   3   4
HETATM    4  C   UNL     1      -8.060   7.323  71.653  1.00  0.00    -0.100 C  
BRANCH   4   5
HETATM    5  C   UNL     1      -9.442   7.764  71.171  1.00  0.00    -0.154 C  
BRANCH   5   6
HETATM    6  O   UNL     1      -9.707   9.099  71.590  1.00  0.00    -0.292 OA 
BRANCH   6   7
HETATM    7  C   UNL     1     -10.535   9.905  70.848  1.00  0.00    -0.122 A  
HETATM    8  C   UNL     1     -11.916   9.732  71.088  1.00  0.00    -0.376 A  
HETATM    9  C   UNL     1     -12.843  10.396  70.280  1.00  0.00    -0.167 A  
HETATM   10  C   UNL     1     -10.106  10.735  69.805  1.00  0.00     0.047 A  
HETATM   11  C   UNL     1     -11.041  11.336  68.941  1.00  0.00    -0.295 A  
HETATM   12  C   UNL     1     -12.404  11.172  69.205  1.00  0.00    -0.107 A  
BRANCH   8  13
HETATM   13  O   UNL     1     -12.249   8.888  72.120  1.00  0.00    -0.356 OA 
HETATM   14  C   UNL     1     -13.597   8.889  72.568  1.00  0.00    -0.412 C  
ENDBRANCH   8  13
BRANCH  11  15
HETATM   15  C   UNL     1     -10.597  11.958  67.633  1.00  0.00    -0.241 C  
HETATM   16  C   UNL     1     -10.040  11.096  66.470  1.00  0.00    -0.265 C  
HETATM   17  C   UNL     1      -9.881  11.996  65.186  1.00  0.00    -0.223 C  
HETATM   18  C   UNL     1      -8.682  10.375  66.734  1.00  0.00    -0.132 C  
HETATM   19  C   UNL     1      -8.792   9.227  67.740  1.00  0.00    -0.121 C  
HETATM   20  C   UNL     1      -7.542  11.320  67.120  1.00  0.00    -0.137 C  
BRANCH  17  21
HETATM   21  C   UNL     1     -11.187  12.592  64.622  1.00  0.00    -0.310 C  
HETATM   22  N   UNL     1     -11.118  12.492  63.160  1.00  0.00    -0.715 NA 
HETATM   23  H1  UNL     1     -11.981  12.886  62.786  1.00  0.00     0.000 HD 
HETATM   24  H2  UNL     1     -10.939  11.543  62.833  1.00  0.00     0.000 HD 
BRANCH  21  25
HETATM   25  C   UNL     1     -11.475  14.066  65.099  1.00  0.00    -0.328 C  
HETATM   26  H   UNL     1     -12.604  15.000  66.436  1.00  0.00     0.000 HD 
HETATM   27  O   UNL     1     -12.430  14.111  66.149  1.00  0.00    -0.466 OA 
BRANCH  25  28
HETATM   28  C   UNL     1     -10.143  14.709  65.534  1.00  0.00    -0.405 C  
HETATM   29  C   UNL     1     -10.104  16.089  66.231  1.00  0.00    -0.329 C  
HETATM   30  C   UNL     1      -8.598  16.383  66.395  1.00  0.00    -0.323 C  
HETATM   31  C   UNL     1     -10.852  16.179  67.593  1.00  0.00    -0.297 C  
HETATM   32  C   UNL     1     -10.870  17.594  68.188  1.00  0.00    -0.223 C  
HETATM   33  O   UNL     1      -7.772  15.524  66.699  1.00  0.00    -0.160 OA 
HETATM   34  N   UNL     1      -8.232  17.694  66.185  1.00  0.00    -0.212 N  
HETATM   35  C   UNL     1     -10.350  15.168  68.630  1.00  0.00    -0.232 C  
HETATM   36  H   UNL     1      -8.949  18.400  66.023  1.00  0.00     0.000 HD 
BRANCH  34  37
HETATM   37  C   UNL     1      -6.831  18.076  66.193  1.00  0.00    -0.277 C  
BRANCH  37  38
HETATM   38  C   UNL     1      -6.553  19.376  66.966  1.00  0.00    -0.200 C  
HETATM   39  C   UNL     1      -5.199  19.966  66.518  1.00  0.00    -0.170 C  
HETATM   40  C   UNL     1      -7.663  20.410  66.715  1.00  0.00    -0.311 C  
BRANCH  38  41
HETATM   41  C   UNL     1      -6.472  19.056  68.465  1.00  0.00    -0.243 C  
HETATM   42  N   UNL     1      -5.646  18.043  68.843  1.00  0.00    -0.186 N  
HETATM   43  O   UNL     1      -7.101  19.665  69.327  1.00  0.00    -0.358 OA 
HETATM   44  H2  UNL     1      -5.102  17.518  68.159  1.00  0.00     0.000 HD 
HETATM   45  H1  UNL     1      -5.592  17.830  69.839  1.00  0.00     0.000 HD 
ENDBRANCH  38  41
ENDBRANCH  37  38
ENDBRANCH  34  37
ENDBRANCH  25  28
ENDBRANCH  21  25
ENDBRANCH  17  21
ENDBRANCH  11  15
ENDBRANCH   6   7
ENDBRANCH   5   6
ENDBRANCH   4   5
ENDBRANCH   3   4
ENDBRANCH   2   3
TORSDOF 13
ENDMDL
MODEL       79
REMARK 921   NORMALIZED FREE ENERGY PREDICTED BY IDOCK:   -4.44 KCAL/MOL
REMARK 922        TOTAL FREE ENERGY PREDICTED BY IDOCK:  -10.13 KCAL/MOL
REMARK 923 INTER-LIGAND FREE ENERGY PREDICTED BY IDOCK:   -8.30 KCAL/MOL
REMARK 924 INTRA-LIGAND FREE ENERGY PREDICTED BY IDOCK:   -1.84 KCAL/MOL
REMARK 927      BINDING AFFINITY PREDICTED BY RF-SCORE:    0.00 PKD
ROOT
HETATM    1  C   UNL     1     -13.906  15.019  71.527  1.00  0.00    -0.484 C  
HETATM    2  O   UNL     1     -12.773  15.492  70.811  1.00  0.00    -0.430 OA 
ENDROOT
BRANCH   2   3
HETATM    3  C   UNL     1     -12.166  14.442  70.059  1.00  0.00    -0.351 C  
BRANCH   3   4
HETATM    4  C   UNL     1     -11.652  14.992  68.736  1.00  0.00    -0.357 C  
BRANCH   4   5
HETATM    5  C   UNL     1     -10.528  14.163  68.115  1.00  0.00    -0.244 C  
BRANCH   5   6
HETATM    6  O   UNL     1     -10.859  13.807  66.776  1.00  0.00    -0.282 OA 
BRANCH   6   7
HETATM    7  C   UNL     1     -10.195  12.781  66.149  1.00  0.00    -0.275 A  
HETATM    8  C   UNL     1     -10.920  12.134  65.125  1.00  0.00    -0.310 A  
HETATM    9  C   UNL     1     -10.392  10.985  64.529  1.00  0.00    -0.420 A  
HETATM   10  C   UNL     1      -8.958  12.270  66.561  1.00  0.00    -0.161 A  
HETATM   11  C   UNL     1      -8.467  11.068  66.017  1.00  0.00    -0.158 A  
HETATM   12  C   UNL     1      -9.186  10.450  64.990  1.00  0.00    -0.256 A  
BRANCH   8  13
HETATM   13  O   UNL     1     -12.132  12.693  64.796  1.00  0.00    -0.387 OA 
HETATM   14  C   UNL     1     -12.258  13.288  63.512  1.00  0.00    -0.441 C  
ENDBRANCH   8  13
BRANCH  11  15
HETATM   15  C   UNL     1      -7.313  10.338  66.672  1.00  0.00    -0.109 C  
HETATM   16  C   UNL     1      -7.547   9.202  67.702  1.00  0.00    -0.085 C  
HETATM   17  C   UNL     1      -6.172   8.502  68.025  1.00  0.00    -0.052 C  
HETATM   18  C   UNL     1      -8.214   9.617  69.049  1.00  0.00    -0.113 C  
HETATM   19  C   UNL     1      -9.688  10.001  68.902  1.00  0.00    -0.181 C  
HETATM   20  C   UNL     1      -7.451  10.703  69.811  1.00  0.00    -0.088 C  
BRANCH  17  21
HETATM   21  C   UNL     1      -5.485   7.799  66.837  1.00  0.00    -0.031 C  
HETATM   22  N   UNL     1      -5.131   8.837  65.860  1.00  0.00    -0.030 NA 
HETATM   23  H1  UNL     1      -4.676   8.372  65.075  1.00  0.00     0.000 HD 
HETATM   24  H2  UNL     1      -4.566   9.586  66.261  1.00  0.00     0.000 HD 
BRANCH  21  25
HETATM   25  C   UNL     1      -6.345   6.650  66.189  1.00  0.00    -0.042 C  
HETATM   26  H   UNL     1      -6.075   5.074  65.014  1.00  0.00     0.000 HD 
HETATM   27  O   UNL     1      -5.556   5.767  65.405  1.00  0.00    -0.015 OA 
BRANCH  25  28
HETATM   28  C   UNL     1      -7.072   5.888  67.316  1.00  0.00    -0.074 C  
HETATM   29  C   UNL     1      -8.613   5.755  67.336  1.00  0.00    -0.105 C  
HETATM   30  C   UNL     1      -8.908   5.020  68.660  1.00  0.00    -0.097 C  
HETATM   31  C   UNL     1      -9.242   5.014  66.121  1.00  0.00    -0.149 C  
HETATM   32  C   UNL     1     -10.777   5.003  66.141  1.00  0.00    -0.264 C  
HETATM   33  O   UNL     1      -8.212   4.101  69.092  1.00  0.00    -0.069 OA 
HETATM   34  N   UNL     1     -10.025   5.457  69.336  1.00  0.00    -0.190 N  
HETATM   35  C   UNL     1      -8.699   3.593  65.929  1.00  0.00    -0.119 C  
HETATM   36  H   UNL     1     -10.632   6.158  68.910  1.00  0.00     0.000 HD 
BRANCH  34  37
HETATM   37  C   UNL     1     -10.344   4.928  70.649  1.00  0.00    -0.162 C  
BRANCH  37  38
HETATM   38  C   UNL     1     -10.550   6.016  71.717  1.00  0.00    -0.277 C  
HETATM   39  C   UNL     1     -10.833   5.355  73.083  1.00  0.00    -0.333 C  
HETATM   40  C   UNL     1      -9.303   6.908  71.836  1.00  0.00    -0.145 C  
BRANCH  38  41
HETATM   41  C   UNL     1     -11.764   6.871  71.329  1.00  0.00    -0.328 C  
HETATM   42  N   UNL     1     -12.186   7.800  72.228  1.00  0.00    -0.460 N  
HETATM   43  O   UNL     1     -12.359   6.764  70.259  1.00  0.00    -0.220 OA 
HETATM   44  H2  UNL     1     -11.715   7.924  73.124  1.00  0.00     0.000 HD 
HETATM   45  H1  UNL     1     -12.993   8.368  71.971  1.00  0.00     0.000 HD 
ENDBRANCH  38  41
ENDBRANCH  37  38
ENDBRANCH  34  37
ENDBRANCH  25  28
ENDBRANCH  21  25
ENDBRANCH  17  21
ENDBRANCH  11  15
ENDBRANCH   6   7
ENDBRANCH   5   6
ENDBRANCH   4   5
ENDBRANCH   3   4
ENDBRANCH   2   3
TORSDOF 13
ENDMDL
MODEL       80
REMARK 921   NORMALIZED FREE ENERGY PREDICTED BY IDOCK:   -4.44 KCAL/MOL
REMARK 922        TOTAL FREE ENERGY PREDICTED BY IDOCK:  -10.13 KCAL/MOL
REMARK 923 INTER-LIGAND FREE ENERGY PREDICTED BY IDOCK:   -8.40 KCAL/MOL
REMARK 924 INTRA-LIGAND FREE ENERGY PREDICTED BY IDOCK:   -1.73 KCAL/MOL
REMARK 927      BINDING AFFINITY PREDICTED BY RF-SCORE:    0.00 PKD
ROOT
HETATM    1  C   UNL     1     -14.317  15.285  71.656  1.00  0.00    -0.561 C  
HETATM    2  O   UNL     1     -12.991  15.777  71.521  1.00  0.00    -0.470 OA 
ENDROOT
BRANCH   2   3
HETATM    3  C   UNL     1     -12.532  15.656  70.176  1.00  0.00    -0.278 C  
BRANCH   3   4
HETATM    4  C   UNL     1     -11.567  14.483  70.067  1.00  0.00    -0.339 C  
BRANCH   4   5
HETATM    5  C   UNL     1     -12.132  13.284  69.304  1.00  0.00    -0.242 C  
BRANCH   5   6
HETATM    6  O   UNL     1     -11.956  13.465  67.903  1.00  0.00    -0.351 OA 
BRANCH   6   7
HETATM    7  C   UNL     1     -10.930  12.829  67.247  1.00  0.00    -0.262 A  
HETATM    8  C   UNL     1     -11.257  12.317  65.973  1.00  0.00    -0.332 A  
HETATM    9  C   UNL     1     -10.329  11.525  65.291  1.00  0.00    -0.322 A  
HETATM   10  C   UNL     1      -9.685  12.540  67.818  1.00  0.00    -0.202 A  
HETATM   11  C   UNL     1      -8.785  11.675  67.167  1.00  0.00    -0.164 A  
HETATM   12  C   UNL     1      -9.114  11.193  65.897  1.00  0.00    -0.218 A  
BRANCH   8  13
HETATM   13  O   UNL     1     -12.506  12.635  65.495  1.00  0.00    -0.622 OA 
HETATM   14  C   UNL     1     -12.761  12.419  64.115  1.00  0.00    -0.347 C  
ENDBRANCH   8  13
BRANCH  11  15
HETATM   15  C   UNL     1      -7.595  11.097  67.905  1.00  0.00    -0.099 C  
HETATM   16  C   UNL     1      -7.009  11.783  69.167  1.00  0.00    -0.091 C  
HETATM   17  C   UNL     1      -5.937  10.832  69.823  1.00  0.00    -0.071 C  
HETATM   18  C   UNL     1      -6.357  13.183  68.953  1.00  0.00    -0.093 C  
HETATM   19  C   UNL     1      -7.373  14.282  68.637  1.00  0.00    -0.125 C  
HETATM   20  C   UNL     1      -5.223  13.190  67.926  1.00  0.00    -0.107 C  
BRANCH  17  21
HETATM   21  C   UNL     1      -6.469   9.480  70.340  1.00  0.00    -0.079 C  
HETATM   22  N   UNL     1      -5.513   8.987  71.339  1.00  0.00    -0.041 NA 
HETATM   23  H1  UNL     1      -5.865   8.093  71.681  1.00  0.00     0.000 HD 
HETATM   24  H2  UNL     1      -5.336   9.657  72.087  1.00  0.00     0.000 HD 
BRANCH  21  25
HETATM   25  C   UNL     1      -6.733   8.421  69.204  1.00  0.00    -0.047 C  
HETATM   26  H   UNL     1      -5.735   7.014  68.224  1.00  0.00     0.000 HD 
HETATM   27  O   UNL     1      -5.576   7.652  68.910  1.00  0.00    -0.022 OA 
BRANCH  25  28
HETATM   28  C   UNL     1      -7.902   7.515  69.642  1.00  0.00    -0.119 C  
HETATM   29  C   UNL     1      -9.014   8.032  70.584  1.00  0.00    -0.148 C  
HETATM   30  C   UNL     1      -9.901   6.794  70.830  1.00  0.00    -0.183 C  
HETATM   31  C   UNL     1      -9.848   9.232  70.048  1.00  0.00    -0.232 C  
HETATM   32  C   UNL     1     -10.865   9.770  71.064  1.00  0.00    -0.378 C  
HETATM   33  O   UNL     1     -10.178   5.976  69.953  1.00  0.00    -0.179 OA 
HETATM   34  N   UNL     1     -10.381   6.665  72.114  1.00  0.00    -0.199 N  
HETATM   35  C   UNL     1     -10.532   8.946  68.706  1.00  0.00    -0.223 C  
HETATM   36  H   UNL     1     -10.210   7.404  72.795  1.00  0.00     0.000 HD 
BRANCH  34  37
HETATM   37  C   UNL     1     -11.129   5.483  72.504  1.00  0.00    -0.270 C  
BRANCH  37  38
HETATM   38  C   UNL     1     -10.277   4.428  73.229  1.00  0.00    -0.219 C  
HETATM   39  C   UNL     1      -9.539   5.083  74.417  1.00  0.00    -0.151 C  
HETATM   40  C   UNL     1     -11.157   3.280  73.752  1.00  0.00    -0.288 C  
BRANCH  38  41
HETATM   41  C   UNL     1      -9.231   3.875  72.252  1.00  0.00    -0.117 C  
HETATM   42  N   UNL     1      -7.946   4.293  72.410  1.00  0.00    -0.086 N  
HETATM   43  O   UNL     1      -9.492   3.079  71.352  1.00  0.00    -0.123 OA 
HETATM   44  H2  UNL     1      -7.688   4.947  73.149  1.00  0.00     0.000 HD 
HETATM   45  H1  UNL     1      -7.251   3.926  71.761  1.00  0.00     0.000 HD 
ENDBRANCH  38  41
ENDBRANCH  37  38
ENDBRANCH  34  37
ENDBRANCH  25  28
ENDBRANCH  21  25
ENDBRANCH  17  21
ENDBRANCH  11  15
ENDBRANCH   6   7
ENDBRANCH   5   6
ENDBRANCH   4   5
ENDBRANCH   3   4
ENDBRANCH   2   3
TORSDOF 13
ENDMDL
MODEL       81
REMARK 921   NORMALIZED FREE ENERGY PREDICTED BY IDOCK:   -4.42 KCAL/MOL
REMARK 922        TOTAL FREE ENERGY PREDICTED BY IDOCK:  -10.09 KCAL/MOL
REMARK 923 INTER-LIGAND FREE ENERGY PREDICTED BY IDOCK:   -7.60 KCAL/MOL
REMARK 924 INTRA-LIGAND FREE ENERGY PREDICTED BY IDOCK:   -2.49 KCAL/MOL
REMARK 927      BINDING AFFINITY PREDICTED BY RF-SCORE:    0.00 PKD
ROOT
HETATM    1  C   UNL     1      -7.088  15.766  69.382  1.00  0.00    -0.209 C  
HETATM    2  O   UNL     1      -6.839  16.185  68.047  1.00  0.00    -0.116 OA 
ENDROOT
BRANCH   2   3
HETATM    3  C   UNL     1      -8.042  16.615  67.411  1.00  0.00    -0.167 C  
BRANCH   3   4
HETATM    4  C   UNL     1      -9.243  16.181  68.240  1.00  0.00    -0.197 C  
BRANCH   4   5
HETATM    5  C   UNL     1     -10.530  16.025  67.431  1.00  0.00    -0.308 C  
BRANCH   5   6
HETATM    6  O   UNL     1     -11.246  14.871  67.862  1.00  0.00    -0.290 OA 
BRANCH   6   7
HETATM    7  C   UNL     1     -10.959  13.640  67.325  1.00  0.00    -0.287 A  
HETATM    8  C   UNL     1     -11.702  13.297  66.175  1.00  0.00    -0.374 A  
HETATM    9  C   UNL     1     -11.592  12.010  65.642  1.00  0.00    -0.356 A  
HETATM   10  C   UNL     1     -10.121  12.691  67.923  1.00  0.00    -0.222 A  
HETATM   11  C   UNL     1     -10.074  11.372  67.434  1.00  0.00    -0.208 A  
HETATM   12  C   UNL     1     -10.800  11.054  66.283  1.00  0.00    -0.234 A  
BRANCH   8  13
HETATM   13  O   UNL     1     -12.512  14.283  65.662  1.00  0.00    -0.445 OA 
HETATM   14  C   UNL     1     -12.253  14.731  64.339  1.00  0.00    -0.428 C  
ENDBRANCH   8  13
BRANCH  11  15
HETATM   15  C   UNL     1      -9.439  10.266  68.252  1.00  0.00    -0.147 C  
HETATM   16  C   UNL     1      -7.917   9.980  68.192  1.00  0.00    -0.100 C  
HETATM   17  C   UNL     1      -7.540   8.934  69.309  1.00  0.00    -0.082 C  
HETATM   18  C   UNL     1      -7.364   9.461  66.828  1.00  0.00    -0.086 C  
HETATM   19  C   UNL     1      -7.367  10.525  65.729  1.00  0.00    -0.137 C  
HETATM   20  C   UNL     1      -8.037   8.178  66.334  1.00  0.00    -0.106 C  
BRANCH  17  21
HETATM   21  C   UNL     1      -7.780   9.392  70.762  1.00  0.00    -0.115 C  
HETATM   22  N   UNL     1      -6.466   9.532  71.400  1.00  0.00    -0.278 NA 
HETATM   23  H1  UNL     1      -6.625   9.835  72.361  1.00  0.00     0.000 HD 
HETATM   24  H2  UNL     1      -5.837  10.149  70.886  1.00  0.00     0.000 HD 
BRANCH  21  25
HETATM   25  C   UNL     1      -8.735   8.444  71.581  1.00  0.00    -0.183 C  
HETATM   26  H   UNL     1     -10.383   8.583  72.677  1.00  0.00     0.000 HD 
HETATM   27  O   UNL     1      -9.808   9.155  72.182  1.00  0.00    -0.217 OA 
BRANCH  25  28
HETATM   28  C   UNL     1      -9.261   7.344  70.637  1.00  0.00    -0.157 C  
HETATM   29  C   UNL     1      -9.114   5.844  70.986  1.00  0.00    -0.156 C  
HETATM   30  C   UNL     1      -9.675   5.116  69.747  1.00  0.00    -0.193 C  
HETATM   31  C   UNL     1      -9.826   5.381  72.289  1.00  0.00    -0.199 C  
HETATM   32  C   UNL     1      -9.560   3.911  72.641  1.00  0.00    -0.188 C  
HETATM   33  O   UNL     1     -10.665   5.502  69.127  1.00  0.00    -0.257 OA 
HETATM   34  N   UNL     1      -8.991   3.979  69.378  1.00  0.00    -0.097 N  
HETATM   35  C   UNL     1     -11.332   5.669  72.294  1.00  0.00    -0.300 C  
HETATM   36  H   UNL     1      -8.230   3.633  69.962  1.00  0.00     0.000 HD 
BRANCH  34  37
HETATM   37  C   UNL     1      -9.347   3.269  68.162  1.00  0.00    -0.187 C  
BRANCH  37  38
HETATM   38  C   UNL     1      -8.236   3.277  67.099  1.00  0.00    -0.083 C  
HETATM   39  C   UNL     1      -6.895   3.677  67.751  1.00  0.00    -0.050 C  
HETATM   40  C   UNL     1      -8.089   1.889  66.451  1.00  0.00    -0.080 C  
BRANCH  38  41
HETATM   41  C   UNL     1      -8.583   4.316  66.024  1.00  0.00    -0.113 C  
HETATM   42  N   UNL     1      -7.615   4.629  65.122  1.00  0.00    -0.076 N  
HETATM   43  O   UNL     1      -9.680   4.864  65.935  1.00  0.00    -0.164 OA 
HETATM   44  H2  UNL     1      -6.695   4.191  65.158  1.00  0.00     0.000 HD 
HETATM   45  H1  UNL     1      -7.845   5.320  64.408  1.00  0.00     0.000 HD 
ENDBRANCH  38  41
ENDBRANCH  37  38
ENDBRANCH  34  37
ENDBRANCH  25  28
ENDBRANCH  21  25
ENDBRANCH  17  21
ENDBRANCH  11  15
ENDBRANCH   6   7
ENDBRANCH   5   6
ENDBRANCH   4   5
ENDBRANCH   3   4
ENDBRANCH   2   3
TORSDOF 13
ENDMDL
MODEL       82
REMARK 921   NORMALIZED FREE ENERGY PREDICTED BY IDOCK:   -4.41 KCAL/MOL
REMARK 922        TOTAL FREE ENERGY PREDICTED BY IDOCK:  -10.07 KCAL/MOL
REMARK 923 INTER-LIGAND FREE ENERGY PREDICTED BY IDOCK:   -8.81 KCAL/MOL
REMARK 924 INTRA-LIGAND FREE ENERGY PREDICTED BY IDOCK:   -1.26 KCAL/MOL
REMARK 927      BINDING AFFINITY PREDICTED BY RF-SCORE:    0.00 PKD
ROOT
HETATM    1  C   UNL     1      -5.509   5.957  66.551  1.00  0.00    -0.012 C  
HETATM    2  O   UNL     1      -6.431   6.986  66.220  1.00  0.00    -0.048 OA 
ENDROOT
BRANCH   2   3
HETATM    3  C   UNL     1      -7.483   7.062  67.180  1.00  0.00    -0.095 C  
BRANCH   3   4
HETATM    4  C   UNL     1      -8.598   7.954  66.650  1.00  0.00    -0.138 C  
BRANCH   4   5
HETATM    5  C   UNL     1      -8.391   8.411  65.206  1.00  0.00    -0.160 C  
BRANCH   5   6
HETATM    6  O   UNL     1      -8.344   9.833  65.142  1.00  0.00    -0.128 OA 
BRANCH   6   7
HETATM    7  C   UNL     1      -9.470  10.575  65.401  1.00  0.00    -0.223 A  
HETATM    8  C   UNL     1     -10.219  10.947  64.264  1.00  0.00    -0.364 A  
HETATM    9  C   UNL     1     -11.297  11.825  64.407  1.00  0.00    -0.373 A  
HETATM   10  C   UNL     1      -9.809  11.087  66.659  1.00  0.00    -0.235 A  
HETATM   11  C   UNL     1     -10.842  12.035  66.789  1.00  0.00    -0.307 A  
HETATM   12  C   UNL     1     -11.587  12.378  65.658  1.00  0.00    -0.441 A  
BRANCH   8  13
HETATM   13  O   UNL     1      -9.808  10.412  63.067  1.00  0.00    -0.293 OA 
HETATM   14  C   UNL     1      -8.805  11.108  62.340  1.00  0.00    -0.273 C  
ENDBRANCH   8  13
BRANCH  11  15
HETATM   15  C   UNL     1     -11.003  12.834  68.066  1.00  0.00    -0.266 C  
HETATM   16  C   UNL     1     -11.273  14.360  68.042  1.00  0.00    -0.298 C  
HETATM   17  C   UNL     1     -11.611  14.851  69.502  1.00  0.00    -0.333 C  
HETATM   18  C   UNL     1     -10.129  15.257  67.477  1.00  0.00    -0.232 C  
HETATM   19  C   UNL     1      -9.935  15.109  65.966  1.00  0.00    -0.335 C  
HETATM   20  C   UNL     1      -8.794  15.093  68.207  1.00  0.00    -0.173 C  
BRANCH  17  21
HETATM   21  C   UNL     1     -12.885  14.251  70.130  1.00  0.00    -0.077 C  
HETATM   22  N   UNL     1     -13.712  15.371  70.594  1.00  0.00    -0.841 NA 
HETATM   23  H1  UNL     1     -14.555  14.975  71.010  1.00  0.00     0.000 HD 
HETATM   24  H2  UNL     1     -13.912  16.051  69.860  1.00  0.00     0.000 HD 
BRANCH  21  25
HETATM   25  C   UNL     1     -12.602  13.212  71.280  1.00  0.00    -0.290 C  
HETATM   26  H   UNL     1     -13.599  12.292  72.728  1.00  0.00     0.000 HD 
HETATM   27  O   UNL     1     -13.769  12.918  72.034  1.00  0.00    -0.433 OA 
BRANCH  25  28
HETATM   28  C   UNL     1     -12.015  11.933  70.650  1.00  0.00    -0.289 C  
HETATM   29  C   UNL     1     -11.941  10.605  71.441  1.00  0.00    -0.261 C  
HETATM   30  C   UNL     1     -11.211   9.641  70.483  1.00  0.00    -0.297 C  
HETATM   31  C   UNL     1     -13.305  10.020  71.906  1.00  0.00    -0.516 C  
HETATM   32  C   UNL     1     -13.166   8.762  72.774  1.00  0.00    -0.205 C  
HETATM   33  O   UNL     1     -11.409   9.615  69.269  1.00  0.00    -0.111 OA 
HETATM   34  N   UNL     1     -10.315   8.786  71.086  1.00  0.00    -0.225 N  
HETATM   35  C   UNL     1     -14.285   9.770  70.754  1.00  0.00     0.733 C  
HETATM   36  H   UNL     1     -10.238   8.767  72.102  1.00  0.00     0.000 HD 
BRANCH  34  37
HETATM   37  C   UNL     1      -9.479   7.911  70.283  1.00  0.00    -0.163 C  
BRANCH  37  38
HETATM   38  C   UNL     1      -9.249   6.529  70.916  1.00  0.00    -0.155 C  
HETATM   39  C   UNL     1      -7.734   6.276  71.075  1.00  0.00    -0.105 C  
HETATM   40  C   UNL     1      -9.925   6.439  72.294  1.00  0.00    -0.178 C  
BRANCH  38  41
HETATM   41  C   UNL     1      -9.826   5.453  69.985  1.00  0.00    -0.207 C  
HETATM   42  N   UNL     1     -10.826   5.828  69.143  1.00  0.00    -0.309 N  
HETATM   43  O   UNL     1      -9.428   4.291  69.957  1.00  0.00    -0.146 OA 
HETATM   44  H2  UNL     1     -11.179   6.784  69.130  1.00  0.00     0.000 HD 
HETATM   45  H1  UNL     1     -11.210   5.113  68.524  1.00  0.00     0.000 HD 
ENDBRANCH  38  41
ENDBRANCH  37  38
ENDBRANCH  34  37
ENDBRANCH  25  28
ENDBRANCH  21  25
ENDBRANCH  17  21
ENDBRANCH  11  15
ENDBRANCH   6   7
ENDBRANCH   5   6
ENDBRANCH   4   5
ENDBRANCH   3   4
ENDBRANCH   2   3
TORSDOF 13
ENDMDL
MODEL       83
REMARK 921   NORMALIZED FREE ENERGY PREDICTED BY IDOCK:   -4.37 KCAL/MOL
REMARK 922        TOTAL FREE ENERGY PREDICTED BY IDOCK:  -10.00 KCAL/MOL
REMARK 923 INTER-LIGAND FREE ENERGY PREDICTED BY IDOCK:   -8.53 KCAL/MOL
REMARK 924 INTRA-LIGAND FREE ENERGY PREDICTED BY IDOCK:   -1.46 KCAL/MOL
REMARK 927      BINDING AFFINITY PREDICTED BY RF-SCORE:    0.00 PKD
ROOT
HETATM    1  C   UNL     1      -9.353   3.520  72.140  1.00  0.00    -0.118 C  
HETATM    2  O   UNL     1     -10.711   3.885  72.340  1.00  0.00    -0.067 OA 
ENDROOT
BRANCH   2   3
HETATM    3  C   UNL     1     -10.923   4.373  73.664  1.00  0.00    -0.293 C  
BRANCH   3   4
HETATM    4  C   UNL     1      -9.834   5.376  74.020  1.00  0.00    -0.189 C  
BRANCH   4   5
HETATM    5  C   UNL     1     -10.336   6.812  74.161  1.00  0.00    -0.291 C  
BRANCH   5   6
HETATM    6  O   UNL     1     -11.213   7.135  73.086  1.00  0.00    -0.278 OA 
BRANCH   6   7
HETATM    7  C   UNL     1     -10.875   8.120  72.189  1.00  0.00    -0.303 A  
HETATM    8  C   UNL     1     -11.933   8.583  71.378  1.00  0.00    -0.300 A  
HETATM    9  C   UNL     1     -11.662   9.474  70.336  1.00  0.00    -0.227 A  
HETATM   10  C   UNL     1      -9.566   8.552  71.945  1.00  0.00    -0.353 A  
HETATM   11  C   UNL     1      -9.283   9.384  70.845  1.00  0.00    -0.242 A  
HETATM   12  C   UNL     1     -10.344   9.851  70.064  1.00  0.00    -0.320 A  
BRANCH   8  13
HETATM   13  O   UNL     1     -13.182   8.096  71.677  1.00  0.00    -0.333 OA 
HETATM   14  C   UNL     1     -14.046   8.917  72.450  1.00  0.00    -0.420 C  
ENDBRANCH   8  13
BRANCH  11  15
HETATM   15  C   UNL     1      -7.857   9.591  70.378  1.00  0.00    -0.190 C  
HETATM   16  C   UNL     1      -7.268   8.794  69.185  1.00  0.00    -0.067 C  
HETATM   17  C   UNL     1      -5.858   9.390  68.809  1.00  0.00    -0.040 C  
HETATM   18  C   UNL     1      -7.111   7.256  69.390  1.00  0.00    -0.074 C  
HETATM   19  C   UNL     1      -8.447   6.511  69.430  1.00  0.00    -0.127 C  
HETATM   20  C   UNL     1      -6.248   6.876  70.596  1.00  0.00    -0.032 C  
BRANCH  17  21
HETATM   21  C   UNL     1      -5.858  10.853  68.323  1.00  0.00    -0.042 C  
HETATM   22  N   UNL     1      -6.194  11.697  69.476  1.00  0.00    -0.100 NA 
HETATM   23  H1  UNL     1      -6.195  12.665  69.154  1.00  0.00     0.000 HD 
HETATM   24  H2  UNL     1      -5.580  11.543  70.275  1.00  0.00     0.000 HD 
BRANCH  21  25
HETATM   25  C   UNL     1      -6.814  11.120  67.099  1.00  0.00    -0.107 C  
HETATM   26  H   UNL     1      -7.763  10.080  65.702  1.00  0.00     0.000 HD 
HETATM   27  O   UNL     1      -7.187   9.919  66.440  1.00  0.00    -0.095 OA 
BRANCH  25  28
HETATM   28  C   UNL     1      -8.055  11.883  67.604  1.00  0.00    -0.148 C  
HETATM   29  C   UNL     1      -8.990  12.639  66.631  1.00  0.00    -0.164 C  
HETATM   30  C   UNL     1     -10.019  13.321  67.555  1.00  0.00    -0.223 C  
HETATM   31  C   UNL     1      -9.688  11.763  65.550  1.00  0.00    -0.248 C  
HETATM   32  C   UNL     1     -10.518  12.578  64.548  1.00  0.00    -0.366 C  
HETATM   33  O   UNL     1     -10.491  12.783  68.556  1.00  0.00    -0.240 OA 
HETATM   34  N   UNL     1     -10.392  14.592  67.176  1.00  0.00    -0.264 N  
HETATM   35  C   UNL     1     -10.527  10.624  66.139  1.00  0.00    -0.260 C  
HETATM   36  H   UNL     1     -10.054  14.977  66.295  1.00  0.00     0.000 HD 
BRANCH  34  37
HETATM   37  C   UNL     1     -11.263  15.386  68.024  1.00  0.00    -0.325 C  
BRANCH  37  38
HETATM   38  C   UNL     1     -10.510  16.397  68.904  1.00  0.00    -0.285 C  
HETATM   39  C   UNL     1     -10.593  17.802  68.268  1.00  0.00    -0.325 C  
HETATM   40  C   UNL     1     -11.111  16.446  70.319  1.00  0.00    -0.267 C  
BRANCH  38  41
HETATM   41  C   UNL     1      -9.033  15.986  68.983  1.00  0.00    -0.244 C  
HETATM   42  N   UNL     1      -8.688  15.076  69.933  1.00  0.00    -0.400 N  
HETATM   43  O   UNL     1      -8.163  16.425  68.234  1.00  0.00    -0.166 OA 
HETATM   44  H2  UNL     1      -9.382  14.682  70.568  1.00  0.00     0.000 HD 
HETATM   45  H1  UNL     1      -7.707  14.802  69.985  1.00  0.00     0.000 HD 
ENDBRANCH  38  41
ENDBRANCH  37  38
ENDBRANCH  34  37
ENDBRANCH  25  28
ENDBRANCH  21  25
ENDBRANCH  17  21
ENDBRANCH  11  15
ENDBRANCH   6   7
ENDBRANCH   5   6
ENDBRANCH   4   5
ENDBRANCH   3   4
ENDBRANCH   2   3
TORSDOF 13
ENDMDL
MODEL       84
REMARK 921   NORMALIZED FREE ENERGY PREDICTED BY IDOCK:   -4.34 KCAL/MOL
REMARK 922        TOTAL FREE ENERGY PREDICTED BY IDOCK:   -9.95 KCAL/MOL
REMARK 923 INTER-LIGAND FREE ENERGY PREDICTED BY IDOCK:   -7.74 KCAL/MOL
REMARK 924 INTRA-LIGAND FREE ENERGY PREDICTED BY IDOCK:   -2.22 KCAL/MOL
REMARK 927      BINDING AFFINITY PREDICTED BY RF-SCORE:    0.00 PKD
ROOT
HETATM    1  C   UNL     1      -8.329   1.927  67.464  1.00  0.00    -0.071 C  
HETATM    2  O   UNL     1      -7.805   3.204  67.130  1.00  0.00    -0.077 OA 
ENDROOT
BRANCH   2   3
HETATM    3  C   UNL     1      -8.610   4.249  67.674  1.00  0.00    -0.103 C  
BRANCH   3   4
HETATM    4  C   UNL     1      -9.564   3.672  68.711  1.00  0.00    -0.159 C  
BRANCH   4   5
HETATM    5  C   UNL     1     -10.045   4.691  69.744  1.00  0.00    -0.173 C  
BRANCH   5   6
HETATM    6  O   UNL     1      -8.960   5.106  70.569  1.00  0.00    -0.128 OA 
BRANCH   6   7
HETATM    7  C   UNL     1      -8.748   6.441  70.812  1.00  0.00    -0.140 A  
HETATM    8  C   UNL     1      -9.050   6.869  72.124  1.00  0.00    -0.132 A  
HETATM    9  C   UNL     1      -9.011   8.232  72.429  1.00  0.00    -0.297 A  
HETATM   10  C   UNL     1      -8.414   7.382  69.830  1.00  0.00    -0.139 A  
HETATM   11  C   UNL     1      -8.456   8.759  70.119  1.00  0.00    -0.139 A  
HETATM   12  C   UNL     1      -8.736   9.165  71.426  1.00  0.00    -0.089 A  
BRANCH   8  13
HETATM   13  O   UNL     1      -9.384   5.881  73.020  1.00  0.00    -0.141 OA 
HETATM   14  C   UNL     1     -10.559   6.061  73.796  1.00  0.00    -0.248 C  
ENDBRANCH   8  13
BRANCH  11  15
HETATM   15  C   UNL     1      -8.421   9.785  69.004  1.00  0.00    -0.137 C  
HETATM   16  C   UNL     1      -7.098  10.171  68.295  1.00  0.00    -0.075 C  
HETATM   17  C   UNL     1      -7.423  11.081  67.049  1.00  0.00    -0.127 C  
HETATM   18  C   UNL     1      -6.032  10.901  69.169  1.00  0.00    -0.042 C  
HETATM   19  C   UNL     1      -5.387   9.994  70.219  1.00  0.00    -0.044 C  
HETATM   20  C   UNL     1      -6.538  12.193  69.815  1.00  0.00     0.016 C  
BRANCH  17  21
HETATM   21  C   UNL     1      -8.266  10.420  65.941  1.00  0.00    -0.150 C  
HETATM   22  N   UNL     1      -7.593  10.682  64.663  1.00  0.00    -0.353 NA 
HETATM   23  H1  UNL     1      -8.150  10.245  63.929  1.00  0.00     0.000 HD 
HETATM   24  H2  UNL     1      -6.618  10.381  64.656  1.00  0.00     0.000 HD 
BRANCH  21  25
HETATM   25  C   UNL     1      -9.771  10.884  65.919  1.00  0.00    -0.224 C  
HETATM   26  H   UNL     1     -11.562  10.139  66.338  1.00  0.00     0.000 HD 
HETATM   27  O   UNL     1     -10.654   9.859  66.352  1.00  0.00    -0.161 OA 
BRANCH  25  28
HETATM   28  C   UNL     1      -9.909  12.141  66.802  1.00  0.00    -0.218 C  
HETATM   29  C   UNL     1     -10.001  13.555  66.184  1.00  0.00    -0.310 C  
HETATM   30  C   UNL     1     -10.027  14.497  67.406  1.00  0.00    -0.227 C  
HETATM   31  C   UNL     1     -11.219  13.804  65.248  1.00  0.00    -0.311 C  
HETATM   32  C   UNL     1     -11.204  15.186  64.581  1.00  0.00    -0.352 C  
HETATM   33  O   UNL     1     -10.643  14.244  68.441  1.00  0.00    -0.240 OA 
HETATM   34  N   UNL     1      -9.312  15.665  67.259  1.00  0.00    -0.212 N  
HETATM   35  C   UNL     1     -12.569  13.553  65.928  1.00  0.00    -0.454 C  
HETATM   36  H   UNL     1      -8.887  15.889  66.360  1.00  0.00     0.000 HD 
BRANCH  34  37
HETATM   37  C   UNL     1      -9.160  16.579  68.377  1.00  0.00    -0.222 C  
BRANCH  37  38
HETATM   38  C   UNL     1      -8.731  17.995  67.958  1.00  0.00    -0.264 C  
HETATM   39  C   UNL     1      -8.376  18.007  66.456  1.00  0.00    -0.293 C  
HETATM   40  C   UNL     1      -9.859  19.008  68.220  1.00  0.00    -0.440 C  
BRANCH  38  41
HETATM   41  C   UNL     1      -7.482  18.393  68.757  1.00  0.00    -0.279 C  
HETATM   42  N   UNL     1      -7.348  19.703  69.095  1.00  0.00    -0.346 N  
HETATM   43  O   UNL     1      -6.615  17.595  69.107  1.00  0.00    -0.236 OA 
HETATM   44  H2  UNL     1      -8.049  20.395  68.829  1.00  0.00     0.000 HD 
HETATM   45  H1  UNL     1      -6.518  19.968  69.625  1.00  0.00     0.000 HD 
ENDBRANCH  38  41
ENDBRANCH  37  38
ENDBRANCH  34  37
ENDBRANCH  25  28
ENDBRANCH  21  25
ENDBRANCH  17  21
ENDBRANCH  11  15
ENDBRANCH   6   7
ENDBRANCH   5   6
ENDBRANCH   4   5
ENDBRANCH   3   4
ENDBRANCH   2   3
TORSDOF 13
ENDMDL
MODEL       85
REMARK 921   NORMALIZED FREE ENERGY PREDICTED BY IDOCK:   -4.31 KCAL/MOL
REMARK 922        TOTAL FREE ENERGY PREDICTED BY IDOCK:   -9.90 KCAL/MOL
REMARK 923 INTER-LIGAND FREE ENERGY PREDICTED BY IDOCK:   -7.05 KCAL/MOL
REMARK 924 INTRA-LIGAND FREE ENERGY PREDICTED BY IDOCK:   -2.84 KCAL/MOL
REMARK 927      BINDING AFFINITY PREDICTED BY RF-SCORE:    0.00 PKD
ROOT
HETATM    1  C   UNL     1     -10.956   5.306  71.649  1.00  0.00    -0.050 C  
HETATM    2  O   UNL     1     -10.402   4.977  70.383  1.00  0.00    -0.265 OA 
ENDROOT
BRANCH   2   3
HETATM    3  C   UNL     1      -8.985   5.141  70.385  1.00  0.00    -0.126 C  
BRANCH   3   4
HETATM    4  C   UNL     1      -8.631   6.549  69.926  1.00  0.00    -0.139 C  
BRANCH   4   5
HETATM    5  C   UNL     1      -9.255   6.939  68.587  1.00  0.00    -0.130 C  
BRANCH   5   6
HETATM    6  O   UNL     1      -8.252   7.419  67.697  1.00  0.00    -0.116 OA 
BRANCH   6   7
HETATM    7  C   UNL     1      -8.462   8.566  66.971  1.00  0.00    -0.114 A  
HETATM    8  C   UNL     1      -8.343   8.422  65.572  1.00  0.00    -0.154 A  
HETATM    9  C   UNL     1      -8.391   9.556  64.757  1.00  0.00    -0.155 A  
HETATM   10  C   UNL     1      -8.625   9.838  67.532  1.00  0.00    -0.125 A  
HETATM   11  C   UNL     1      -8.590  10.986  66.717  1.00  0.00    -0.152 A  
HETATM   12  C   UNL     1      -8.492  10.826  65.332  1.00  0.00    -0.132 A  
BRANCH   8  13
HETATM   13  O   UNL     1      -8.170   7.140  65.108  1.00  0.00    -0.134 OA 
HETATM   14  C   UNL     1      -7.661   6.975  63.792  1.00  0.00    -0.105 C  
ENDBRANCH   8  13
BRANCH  11  15
HETATM   15  C   UNL     1      -8.435  12.364  67.328  1.00  0.00    -0.183 C  
HETATM   16  C   UNL     1      -7.107  13.157  67.221  1.00  0.00    -0.033 C  
HETATM   17  C   UNL     1      -7.334  14.624  67.753  1.00  0.00    -0.188 C  
HETATM   18  C   UNL     1      -5.878  12.551  67.966  1.00  0.00    -0.082 C  
HETATM   19  C   UNL     1      -5.348  11.271  67.317  1.00  0.00    -0.055 C  
HETATM   20  C   UNL     1      -6.103  12.338  69.465  1.00  0.00    -0.118 C  
BRANCH  17  21
HETATM   21  C   UNL     1      -8.346  15.473  66.958  1.00  0.00    -0.232 C  
HETATM   22  N   UNL     1      -7.621  16.634  66.427  1.00  0.00    -0.289 NA 
HETATM   23  H1  UNL     1      -8.291  17.196  65.902  1.00  0.00     0.000 HD 
HETATM   24  H2  UNL     1      -6.801  16.376  65.879  1.00  0.00     0.000 HD 
BRANCH  21  25
HETATM   25  C   UNL     1      -9.614  15.901  67.790  1.00  0.00    -0.218 C  
HETATM   26  H   UNL     1     -11.116  17.189  67.650  1.00  0.00     0.000 HD 
HETATM   27  O   UNL     1     -10.352  16.931  67.149  1.00  0.00    -0.299 OA 
BRANCH  25  28
HETATM   28  C   UNL     1     -10.492  14.654  68.020  1.00  0.00    -0.236 C  
HETATM   29  C   UNL     1     -10.799  14.135  69.444  1.00  0.00    -0.169 C  
HETATM   30  C   UNL     1     -11.608  12.844  69.206  1.00  0.00    -0.310 C  
HETATM   31  C   UNL     1     -11.564  15.123  70.372  1.00  0.00    -0.330 C  
HETATM   32  C   UNL     1     -11.748  14.598  71.803  1.00  0.00    -0.221 C  
HETATM   33  O   UNL     1     -12.457  12.732  68.322  1.00  0.00     0.081 OA 
HETATM   34  N   UNL     1     -11.323  11.808  70.068  1.00  0.00    -0.501 N  
HETATM   35  C   UNL     1     -12.906  15.584  69.793  1.00  0.00     0.138 C  
HETATM   36  H   UNL     1     -10.682  11.958  70.846  1.00  0.00     0.000 HD 
BRANCH  34  37
HETATM   37  C   UNL     1     -11.930  10.503  69.875  1.00  0.00    -0.264 C  
BRANCH  37  38
HETATM   38  C   UNL     1     -12.714  10.003  71.100  1.00  0.00    -0.484 C  
HETATM   39  C   UNL     1     -13.146  11.206  71.966  1.00  0.00    -0.433 C  
HETATM   40  C   UNL     1     -13.964   9.218  70.665  1.00  0.00     0.458 C  
BRANCH  38  41
HETATM   41  C   UNL     1     -11.801   9.100  71.941  1.00  0.00    -0.369 C  
HETATM   42  N   UNL     1     -12.380   8.387  72.944  1.00  0.00    -0.488 N  
HETATM   43  O   UNL     1     -10.593   8.986  71.749  1.00  0.00    -0.332 OA 
HETATM   44  H2  UNL     1     -13.381   8.449  73.130  1.00  0.00     0.000 HD 
HETATM   45  H1  UNL     1     -11.774   7.788  73.503  1.00  0.00     0.000 HD 
ENDBRANCH  38  41
ENDBRANCH  37  38
ENDBRANCH  34  37
ENDBRANCH  25  28
ENDBRANCH  21  25
ENDBRANCH  17  21
ENDBRANCH  11  15
ENDBRANCH   6   7
ENDBRANCH   5   6
ENDBRANCH   4   5
ENDBRANCH   3   4
ENDBRANCH   2   3
TORSDOF 13
ENDMDL
MODEL       86
REMARK 921   NORMALIZED FREE ENERGY PREDICTED BY IDOCK:   -4.29 KCAL/MOL
REMARK 922        TOTAL FREE ENERGY PREDICTED BY IDOCK:   -9.86 KCAL/MOL
REMARK 923 INTER-LIGAND FREE ENERGY PREDICTED BY IDOCK:   -7.65 KCAL/MOL
REMARK 924 INTRA-LIGAND FREE ENERGY PREDICTED BY IDOCK:   -2.21 KCAL/MOL
REMARK 927      BINDING AFFINITY PREDICTED BY RF-SCORE:    0.00 PKD
ROOT
HETATM    1  C   UNL     1     -11.689  10.731  69.231  1.00  0.00    -0.303 C  
HETATM    2  O   UNL     1     -11.482   9.612  70.081  1.00  0.00    -0.242 OA 
ENDROOT
BRANCH   2   3
HETATM    3  C   UNL     1     -11.903   9.894  71.414  1.00  0.00    -0.394 C  
BRANCH   3   4
HETATM    4  C   UNL     1     -12.944   8.871  71.850  1.00  0.00    -0.436 C  
BRANCH   4   5
HETATM    5  C   UNL     1     -12.641   7.445  71.391  1.00  0.00    -0.370 C  
BRANCH   5   6
HETATM    6  O   UNL     1     -11.516   6.929  72.096  1.00  0.00    -0.261 OA 
BRANCH   6   7
HETATM    7  C   UNL     1     -10.499   6.306  71.414  1.00  0.00    -0.219 A  
HETATM    8  C   UNL     1      -9.701   5.436  72.187  1.00  0.00    -0.162 A  
HETATM    9  C   UNL     1      -8.554   4.871  71.623  1.00  0.00    -0.132 A  
HETATM   10  C   UNL     1     -10.136   6.599  70.093  1.00  0.00    -0.200 A  
HETATM   11  C   UNL     1      -8.937   6.095  69.554  1.00  0.00    -0.133 A  
HETATM   12  C   UNL     1      -8.169   5.218  70.325  1.00  0.00    -0.095 A  
BRANCH   8  13
HETATM   13  O   UNL     1     -10.121   5.217  73.477  1.00  0.00    -0.162 OA 
HETATM   14  C   UNL     1      -9.368   5.807  74.527  1.00  0.00    -0.151 C  
ENDBRANCH   8  13
BRANCH  11  15
HETATM   15  C   UNL     1      -8.371   6.656  68.266  1.00  0.00    -0.117 C  
HETATM   16  C   UNL     1      -8.843   6.146  66.880  1.00  0.00    -0.117 C  
HETATM   17  C   UNL     1      -8.242   7.070  65.754  1.00  0.00    -0.132 C  
HETATM   18  C   UNL     1      -8.498   4.664  66.534  1.00  0.00    -0.109 C  
HETATM   19  C   UNL     1      -9.297   3.649  67.354  1.00  0.00    -0.240 C  
HETATM   20  C   UNL     1      -7.003   4.345  66.595  1.00  0.00    -0.059 C  
BRANCH  17  21
HETATM   21  C   UNL     1      -8.693   8.544  65.787  1.00  0.00    -0.179 C  
HETATM   22  N   UNL     1      -9.273   8.854  64.475  1.00  0.00    -0.372 NA 
HETATM   23  H1  UNL     1      -9.571   9.829  64.497  1.00  0.00     0.000 HD 
HETATM   24  H2  UNL     1     -10.021   8.214  64.208  1.00  0.00     0.000 HD 
BRANCH  21  25
HETATM   25  C   UNL     1      -7.549   9.554  66.179  1.00  0.00    -0.100 C  
HETATM   26  H   UNL     1      -5.841  10.228  65.428  1.00  0.00     0.000 HD 
HETATM   27  O   UNL     1      -6.531   9.619  65.191  1.00  0.00    -0.079 OA 
BRANCH  25  28
HETATM   28  C   UNL     1      -8.180  10.941  66.415  1.00  0.00    -0.163 C  
HETATM   29  C   UNL     1      -8.101  11.640  67.793  1.00  0.00    -0.139 C  
HETATM   30  C   UNL     1      -8.929  12.928  67.607  1.00  0.00    -0.192 C  
HETATM   31  C   UNL     1      -6.666  11.955  68.308  1.00  0.00    -0.063 C  
HETATM   32  C   UNL     1      -6.643  12.550  69.723  1.00  0.00     0.057 C  
HETATM   33  O   UNL     1      -8.905  13.604  66.580  1.00  0.00    -0.181 OA 
HETATM   34  N   UNL     1      -9.704  13.285  68.688  1.00  0.00    -0.400 N  
HETATM   35  C   UNL     1      -5.853  12.828  67.346  1.00  0.00    -0.094 C  
HETATM   36  H   UNL     1      -9.636  12.757  69.557  1.00  0.00     0.000 HD 
BRANCH  34  37
HETATM   37  C   UNL     1     -10.618  14.410  68.598  1.00  0.00    -0.252 C  
BRANCH  37  38
HETATM   38  C   UNL     1      -9.963  15.762  68.925  1.00  0.00    -0.223 C  
HETATM   39  C   UNL     1     -10.867  16.555  69.894  1.00  0.00    -0.285 C  
HETATM   40  C   UNL     1      -8.583  15.560  69.571  1.00  0.00    -0.218 C  
BRANCH  38  41
HETATM   41  C   UNL     1      -9.815  16.570  67.628  1.00  0.00    -0.247 C  
HETATM   42  N   UNL     1     -10.677  16.287  66.614  1.00  0.00    -0.252 N  
HETATM   43  O   UNL     1      -8.975  17.452  67.467  1.00  0.00    -0.228 OA 
HETATM   44  H2  UNL     1     -11.393  15.567  66.712  1.00  0.00     0.000 HD 
HETATM   45  H1  UNL     1     -10.579  16.823  65.753  1.00  0.00     0.000 HD 
ENDBRANCH  38  41
ENDBRANCH  37  38
ENDBRANCH  34  37
ENDBRANCH  25  28
ENDBRANCH  21  25
ENDBRANCH  17  21
ENDBRANCH  11  15
ENDBRANCH   6   7
ENDBRANCH   5   6
ENDBRANCH   4   5
ENDBRANCH   3   4
ENDBRANCH   2   3
TORSDOF 13
ENDMDL
MODEL       87
REMARK 921   NORMALIZED FREE ENERGY PREDICTED BY IDOCK:   -4.28 KCAL/MOL
REMARK 922        TOTAL FREE ENERGY PREDICTED BY IDOCK:   -9.85 KCAL/MOL
REMARK 923 INTER-LIGAND FREE ENERGY PREDICTED BY IDOCK:   -8.12 KCAL/MOL
REMARK 924 INTRA-LIGAND FREE ENERGY PREDICTED BY IDOCK:   -1.73 KCAL/MOL
REMARK 927      BINDING AFFINITY PREDICTED BY RF-SCORE:    0.00 PKD
ROOT
HETATM    1  C   UNL     1     -12.855  15.292  70.745  1.00  0.00    -0.437 C  
HETATM    2  O   UNL     1     -12.744  14.251  71.705  1.00  0.00    -0.324 OA 
ENDROOT
BRANCH   2   3
HETATM    3  C   UNL     1     -12.517  12.992  71.074  1.00  0.00    -0.296 C  
BRANCH   3   4
HETATM    4  C   UNL     1     -11.910  13.212  69.695  1.00  0.00    -0.390 C  
BRANCH   4   5
HETATM    5  C   UNL     1     -11.909  11.965  68.812  1.00  0.00    -0.313 C  
BRANCH   5   6
HETATM    6  O   UNL     1     -10.588  11.681  68.361  1.00  0.00    -0.194 OA 
BRANCH   6   7
HETATM    7  C   UNL     1      -9.883  10.635  68.904  1.00  0.00    -0.201 A  
HETATM    8  C   UNL     1      -8.982   9.997  68.024  1.00  0.00    -0.128 A  
HETATM    9  C   UNL     1      -8.329   8.831  68.433  1.00  0.00    -0.126 A  
HETATM   10  C   UNL     1     -10.116  10.098  70.175  1.00  0.00    -0.197 A  
HETATM   11  C   UNL     1      -9.520   8.879  70.555  1.00  0.00    -0.243 A  
HETATM   12  C   UNL     1      -8.616   8.271  69.681  1.00  0.00    -0.129 A  
BRANCH   8  13
HETATM   13  O   UNL     1      -8.825  10.582  66.790  1.00  0.00    -0.130 OA 
HETATM   14  C   UNL     1      -8.836   9.735  65.649  1.00  0.00    -0.154 C  
ENDBRANCH   8  13
BRANCH  11  15
HETATM   15  C   UNL     1     -10.009   8.127  71.776  1.00  0.00    -0.264 C  
HETATM   16  C   UNL     1     -10.497   6.658  71.685  1.00  0.00    -0.232 C  
HETATM   17  C   UNL     1     -10.723   6.095  73.140  1.00  0.00    -0.283 C  
HETATM   18  C   UNL     1     -11.794   6.409  70.856  1.00  0.00    -0.317 C  
HETATM   19  C   UNL     1     -11.597   6.601  69.351  1.00  0.00    -0.210 C  
HETATM   20  C   UNL     1     -13.005   7.207  71.345  1.00  0.00    -0.419 C  
BRANCH  17  21
HETATM   21  C   UNL     1      -9.467   6.022  74.031  1.00  0.00    -0.149 C  
HETATM   22  N   UNL     1      -9.210   7.376  74.537  1.00  0.00    -0.427 NA 
HETATM   23  H1  UNL     1      -8.379   7.328  75.127  1.00  0.00     0.000 HD 
HETATM   24  H2  UNL     1     -10.015   7.783  75.014  1.00  0.00     0.000 HD 
BRANCH  21  25
HETATM   25  C   UNL     1      -8.205   5.414  73.310  1.00  0.00    -0.115 C  
HETATM   26  H   UNL     1      -6.756   4.115  73.695  1.00  0.00     0.000 HD 
HETATM   27  O   UNL     1      -7.517   4.481  74.130  1.00  0.00    -0.072 OA 
BRANCH  25  28
HETATM   28  C   UNL     1      -8.664   4.758  71.992  1.00  0.00    -0.132 C  
HETATM   29  C   UNL     1      -7.809   4.848  70.705  1.00  0.00    -0.078 C  
HETATM   30  C   UNL     1      -8.674   4.155  69.633  1.00  0.00    -0.078 C  
HETATM   31  C   UNL     1      -6.391   4.212  70.792  1.00  0.00    -0.022 C  
HETATM   32  C   UNL     1      -5.550   4.423  69.525  1.00  0.00    -0.016 C  
HETATM   33  O   UNL     1      -9.339   3.143  69.851  1.00  0.00    -0.143 OA 
HETATM   34  N   UNL     1      -8.645   4.745  68.388  1.00  0.00    -0.097 N  
HETATM   35  C   UNL     1      -6.413   2.730  71.180  1.00  0.00    -0.023 C  
HETATM   36  H   UNL     1      -8.016   5.527  68.213  1.00  0.00     0.000 HD 
BRANCH  34  37
HETATM   37  C   UNL     1      -9.506   4.259  67.325  1.00  0.00    -0.181 C  
BRANCH  37  38
HETATM   38  C   UNL     1      -8.997   4.605  65.915  1.00  0.00    -0.127 C  
HETATM   39  C   UNL     1      -8.778   6.130  65.803  1.00  0.00    -0.151 C  
HETATM   40  C   UNL     1      -7.674   3.881  65.618  1.00  0.00    -0.089 C  
BRANCH  38  41
HETATM   41  C   UNL     1     -10.058   4.189  64.887  1.00  0.00    -0.202 C  
HETATM   42  N   UNL     1     -11.358   4.447  65.192  1.00  0.00    -0.881 N  
HETATM   43  O   UNL     1      -9.793   3.651  63.815  1.00  0.00    -0.146 OA 
HETATM   44  H2  UNL     1     -11.618   4.899  66.069  1.00  0.00     0.000 HD 
HETATM   45  H1  UNL     1     -12.063   4.171  64.509  1.00  0.00     0.000 HD 
ENDBRANCH  38  41
ENDBRANCH  37  38
ENDBRANCH  34  37
ENDBRANCH  25  28
ENDBRANCH  21  25
ENDBRANCH  17  21
ENDBRANCH  11  15
ENDBRANCH   6   7
ENDBRANCH   5   6
ENDBRANCH   4   5
ENDBRANCH   3   4
ENDBRANCH   2   3
TORSDOF 13
ENDMDL
MODEL       88
REMARK 921   NORMALIZED FREE ENERGY PREDICTED BY IDOCK:   -4.26 KCAL/MOL
REMARK 922        TOTAL FREE ENERGY PREDICTED BY IDOCK:   -9.81 KCAL/MOL
REMARK 923 INTER-LIGAND FREE ENERGY PREDICTED BY IDOCK:   -9.14 KCAL/MOL
REMARK 924 INTRA-LIGAND FREE ENERGY PREDICTED BY IDOCK:   -0.68 KCAL/MOL
REMARK 927      BINDING AFFINITY PREDICTED BY RF-SCORE:    0.00 PKD
ROOT
HETATM    1  C   UNL     1     -11.580   2.453  73.384  1.00  0.00    -0.081 C  
HETATM    2  O   UNL     1     -10.702   3.509  73.747  1.00  0.00    -0.182 OA 
ENDROOT
BRANCH   2   3
HETATM    3  C   UNL     1     -11.306   4.782  73.520  1.00  0.00    -0.258 C  
BRANCH   3   4
HETATM    4  C   UNL     1     -10.358   5.886  73.970  1.00  0.00    -0.295 C  
BRANCH   4   5
HETATM    5  C   UNL     1     -10.516   7.192  73.192  1.00  0.00    -0.321 C  
BRANCH   5   6
HETATM    6  O   UNL     1      -9.238   7.707  72.831  1.00  0.00    -0.154 OA 
BRANCH   6   7
HETATM    7  C   UNL     1      -8.520   7.125  71.814  1.00  0.00    -0.113 A  
HETATM    8  C   UNL     1      -7.421   6.341  72.226  1.00  0.00    -0.094 A  
HETATM    9  C   UNL     1      -6.542   5.830  71.267  1.00  0.00    -0.046 A  
HETATM   10  C   UNL     1      -8.722   7.386  70.453  1.00  0.00    -0.145 A  
HETATM   11  C   UNL     1      -7.790   6.940  69.496  1.00  0.00    -0.120 A  
HETATM   12  C   UNL     1      -6.719   6.148  69.917  1.00  0.00    -0.056 A  
BRANCH   8  13
HETATM   13  O   UNL     1      -7.290   6.149  73.580  1.00  0.00    -0.087 OA 
HETATM   14  C   UNL     1      -6.244   6.841  74.249  1.00  0.00    -0.071 C  
ENDBRANCH   8  13
BRANCH  11  15
HETATM   15  C   UNL     1      -7.814   7.483  68.082  1.00  0.00    -0.122 C  
HETATM   16  C   UNL     1      -9.142   7.676  67.306  1.00  0.00    -0.142 C  
HETATM   17  C   UNL     1      -8.853   8.457  65.968  1.00  0.00    -0.202 C  
HETATM   18  C   UNL     1      -9.933   6.379  66.955  1.00  0.00    -0.217 C  
HETATM   19  C   UNL     1     -10.562   5.704  68.176  1.00  0.00    -0.256 C  
HETATM   20  C   UNL     1      -9.130   5.365  66.136  1.00  0.00    -0.154 C  
BRANCH  17  21
HETATM   21  C   UNL     1      -8.301   9.888  66.134  1.00  0.00    -0.122 C  
HETATM   22  N   UNL     1      -7.912  10.045  67.541  1.00  0.00    -0.106 NA 
HETATM   23  H1  UNL     1      -7.547  10.991  67.652  1.00  0.00     0.000 HD 
HETATM   24  H2  UNL     1      -7.261   9.327  67.858  1.00  0.00     0.000 HD 
BRANCH  21  25
HETATM   25  C   UNL     1      -9.298  11.016  65.669  1.00  0.00    -0.214 C  
HETATM   26  H   UNL     1     -10.608  11.332  64.213  1.00  0.00     0.000 HD 
HETATM   27  O   UNL     1     -10.007  10.651  64.494  1.00  0.00    -0.296 OA 
BRANCH  25  28
HETATM   28  C   UNL     1     -10.268  11.321  66.828  1.00  0.00    -0.263 C  
HETATM   29  C   UNL     1     -10.474  12.762  67.350  1.00  0.00    -0.234 C  
HETATM   30  C   UNL     1     -11.431  12.593  68.548  1.00  0.00    -0.311 C  
HETATM   31  C   UNL     1     -11.034  13.780  66.314  1.00  0.00    -0.297 C  
HETATM   32  C   UNL     1     -11.119  15.215  66.854  1.00  0.00    -0.314 C  
HETATM   33  O   UNL     1     -12.374  11.804  68.554  1.00  0.00    -0.348 OA 
HETATM   34  N   UNL     1     -11.163  13.404  69.629  1.00  0.00    -0.464 N  
HETATM   35  C   UNL     1     -12.376  13.355  65.709  1.00  0.00    -0.513 C  
HETATM   36  H   UNL     1     -10.432  14.111  69.562  1.00  0.00     0.000 HD 
BRANCH  34  37
HETATM   37  C   UNL     1     -11.916  13.259  70.862  1.00  0.00    -0.000 C  
BRANCH  37  38
HETATM   38  C   UNL     1     -12.374  14.598  71.463  1.00  0.00    -0.415 C  
HETATM   39  C   UNL     1     -11.187  15.280  72.176  1.00  0.00    -0.293 C  
HETATM   40  C   UNL     1     -12.913  15.533  70.369  1.00  0.00    -0.252 C  
BRANCH  38  41
HETATM   41  C   UNL     1     -13.473  14.327  72.501  1.00  0.00    -0.515 C  
HETATM   42  N   UNL     1     -13.970  15.396  73.178  1.00  0.00    -0.409 N  
HETATM   43  O   UNL     1     -13.924  13.208  72.739  1.00  0.00    -0.657 OA 
HETATM   44  H2  UNL     1     -13.627  16.341  73.004  1.00  0.00     0.000 HD 
HETATM   45  H1  UNL     1     -14.700  15.216  73.867  1.00  0.00     0.000 HD 
ENDBRANCH  38  41
ENDBRANCH  37  38
ENDBRANCH  34  37
ENDBRANCH  25  28
ENDBRANCH  21  25
ENDBRANCH  17  21
ENDBRANCH  11  15
ENDBRANCH   6   7
ENDBRANCH   5   6
ENDBRANCH   4   5
ENDBRANCH   3   4
ENDBRANCH   2   3
TORSDOF 13
ENDMDL
MODEL       89
REMARK 921   NORMALIZED FREE ENERGY PREDICTED BY IDOCK:   -4.24 KCAL/MOL
REMARK 922        TOTAL FREE ENERGY PREDICTED BY IDOCK:   -9.77 KCAL/MOL
REMARK 923 INTER-LIGAND FREE ENERGY PREDICTED BY IDOCK:   -7.11 KCAL/MOL
REMARK 924 INTRA-LIGAND FREE ENERGY PREDICTED BY IDOCK:   -2.66 KCAL/MOL
REMARK 927      BINDING AFFINITY PREDICTED BY RF-SCORE:    0.00 PKD
ROOT
HETATM    1  C   UNL     1      -9.349  18.184  67.961  1.00  0.00    -0.283 C  
HETATM    2  O   UNL     1     -10.728  17.845  67.894  1.00  0.00    -0.392 OA 
ENDROOT
BRANCH   2   3
HETATM    3  C   UNL     1     -10.913  16.562  67.299  1.00  0.00    -0.084 C  
BRANCH   3   4
HETATM    4  C   UNL     1     -11.384  15.571  68.354  1.00  0.00    -0.357 C  
BRANCH   4   5
HETATM    5  C   UNL     1     -11.855  14.234  67.782  1.00  0.00    -0.379 C  
BRANCH   5   6
HETATM    6  O   UNL     1     -10.760  13.535  67.200  1.00  0.00    -0.275 OA 
BRANCH   6   7
HETATM    7  C   UNL     1     -10.510  12.229  67.547  1.00  0.00    -0.213 A  
HETATM    8  C   UNL     1     -10.664  11.290  66.504  1.00  0.00    -0.271 A  
HETATM    9  C   UNL     1     -10.578   9.925  66.790  1.00  0.00    -0.214 A  
HETATM   10  C   UNL     1     -10.275  11.789  68.855  1.00  0.00    -0.119 A  
HETATM   11  C   UNL     1     -10.271  10.413  69.155  1.00  0.00    -0.239 A  
HETATM   12  C   UNL     1     -10.405   9.496  68.109  1.00  0.00    -0.251 A  
BRANCH   8  13
HETATM   13  O   UNL     1     -10.907  11.808  65.255  1.00  0.00    -0.280 OA 
HETATM   14  C   UNL     1     -10.503  11.041  64.130  1.00  0.00    -0.366 C  
ENDBRANCH   8  13
BRANCH  11  15
HETATM   15  C   UNL     1     -10.348   9.934  70.590  1.00  0.00    -0.258 C  
HETATM   16  C   UNL     1     -11.576   9.151  71.122  1.00  0.00    -0.386 C  
HETATM   17  C   UNL     1     -11.258   8.607  72.567  1.00  0.00    -0.244 C  
HETATM   18  C   UNL     1     -12.924   9.934  71.179  1.00  0.00    -0.456 C  
HETATM   19  C   UNL     1     -13.513  10.227  69.798  1.00  0.00     1.312 C  
HETATM   20  C   UNL     1     -12.864  11.212  72.019  1.00  0.00    -0.285 C  
BRANCH  17  21
HETATM   21  C   UNL     1     -10.096   7.597  72.660  1.00  0.00    -0.242 C  
HETATM   22  N   UNL     1     -10.062   7.096  74.040  1.00  0.00    -0.413 NA 
HETATM   23  H1  UNL     1      -9.293   6.428  74.102  1.00  0.00     0.000 HD 
HETATM   24  H2  UNL     1     -10.953   6.707  74.345  1.00  0.00     0.000 HD 
BRANCH  21  25
HETATM   25  C   UNL     1      -8.704   8.181  72.210  1.00  0.00    -0.182 C  
HETATM   26  H   UNL     1      -6.973   8.695  73.033  1.00  0.00     0.000 HD 
HETATM   27  O   UNL     1      -7.813   8.342  73.304  1.00  0.00    -0.288 OA 
BRANCH  25  28
HETATM   28  C   UNL     1      -8.103   7.246  71.141  1.00  0.00    -0.102 C  
HETATM   29  C   UNL     1      -7.759   7.758  69.723  1.00  0.00    -0.097 C  
HETATM   30  C   UNL     1      -7.287   6.495  68.974  1.00  0.00    -0.093 C  
HETATM   31  C   UNL     1      -6.694   8.891  69.655  1.00  0.00    -0.046 C  
HETATM   32  C   UNL     1      -6.469   9.432  68.236  1.00  0.00    -0.054 C  
HETATM   33  O   UNL     1      -6.591   5.623  69.491  1.00  0.00    -0.046 OA 
HETATM   34  N   UNL     1      -7.694   6.408  67.661  1.00  0.00    -0.101 N  
HETATM   35  C   UNL     1      -5.358   8.508  70.301  1.00  0.00    -0.021 C  
HETATM   36  H   UNL     1      -8.194   7.187  67.233  1.00  0.00     0.000 HD 
BRANCH  34  37
HETATM   37  C   UNL     1      -7.417   5.214  66.882  1.00  0.00    -0.087 C  
BRANCH  37  38
HETATM   38  C   UNL     1      -8.412   4.984  65.733  1.00  0.00    -0.124 C  
HETATM   39  C   UNL     1      -8.386   6.195  64.774  1.00  0.00    -0.070 C  
HETATM   40  C   UNL     1      -8.057   3.710  64.948  1.00  0.00    -0.090 C  
BRANCH  38  41
HETATM   41  C   UNL     1      -9.826   4.857  66.317  1.00  0.00    -0.209 C  
HETATM   42  N   UNL     1     -10.869   4.920  65.447  1.00  0.00    -0.658 N  
HETATM   43  O   UNL     1     -10.056   4.694  67.513  1.00  0.00    -0.150 OA 
HETATM   44  H2  UNL     1     -10.719   5.047  64.446  1.00  0.00     0.000 HD 
HETATM   45  H1  UNL     1     -11.808   4.835  65.835  1.00  0.00     0.000 HD 
ENDBRANCH  38  41
ENDBRANCH  37  38
ENDBRANCH  34  37
ENDBRANCH  25  28
ENDBRANCH  21  25
ENDBRANCH  17  21
ENDBRANCH  11  15
ENDBRANCH   6   7
ENDBRANCH   5   6
ENDBRANCH   4   5
ENDBRANCH   3   4
ENDBRANCH   2   3
TORSDOF 13
ENDMDL
MODEL       90
REMARK 921   NORMALIZED FREE ENERGY PREDICTED BY IDOCK:   -4.23 KCAL/MOL
REMARK 922        TOTAL FREE ENERGY PREDICTED BY IDOCK:   -9.75 KCAL/MOL
REMARK 923 INTER-LIGAND FREE ENERGY PREDICTED BY IDOCK:   -8.38 KCAL/MOL
REMARK 924 INTRA-LIGAND FREE ENERGY PREDICTED BY IDOCK:   -1.37 KCAL/MOL
REMARK 927      BINDING AFFINITY PREDICTED BY RF-SCORE:    0.00 PKD
ROOT
HETATM    1  C   UNL     1      -5.532   1.903  68.294  1.00  0.00    -0.017 C  
HETATM    2  O   UNL     1      -5.969   3.207  68.649  1.00  0.00    -0.023 OA 
ENDROOT
BRANCH   2   3
HETATM    3  C   UNL     1      -7.198   3.532  68.001  1.00  0.00    -0.051 C  
BRANCH   3   4
HETATM    4  C   UNL     1      -6.933   4.505  66.859  1.00  0.00    -0.063 C  
BRANCH   4   5
HETATM    5  C   UNL     1      -7.466   5.915  67.109  1.00  0.00    -0.084 C  
BRANCH   5   6
HETATM    6  O   UNL     1      -6.702   6.557  68.125  1.00  0.00    -0.063 OA 
BRANCH   6   7
HETATM    7  C   UNL     1      -7.267   7.545  68.895  1.00  0.00    -0.082 A  
HETATM    8  C   UNL     1      -7.630   7.154  70.202  1.00  0.00    -0.091 A  
HETATM    9  C   UNL     1      -8.345   8.041  71.012  1.00  0.00    -0.120 A  
HETATM   10  C   UNL     1      -7.626   8.811  68.419  1.00  0.00    -0.095 A  
HETATM   11  C   UNL     1      -8.418   9.671  69.205  1.00  0.00    -0.143 A  
HETATM   12  C   UNL     1      -8.751   9.278  70.504  1.00  0.00    -0.276 A  
BRANCH   8  13
HETATM   13  O   UNL     1      -7.251   5.889  70.582  1.00  0.00    -0.077 OA 
HETATM   14  C   UNL     1      -6.179   5.768  71.506  1.00  0.00    -0.043 C  
ENDBRANCH   8  13
BRANCH  11  15
HETATM   15  C   UNL     1      -9.083  10.886  68.592  1.00  0.00    -0.175 C  
HETATM   16  C   UNL     1     -10.537  10.836  68.058  1.00  0.00    -0.245 C  
HETATM   17  C   UNL     1     -11.008  12.296  67.695  1.00  0.00    -0.287 C  
HETATM   18  C   UNL     1     -10.788   9.919  66.821  1.00  0.00    -0.085 C  
HETATM   19  C   UNL     1     -10.689   8.426  67.144  1.00  0.00    -0.222 C  
HETATM   20  C   UNL     1      -9.923  10.264  65.607  1.00  0.00    -0.347 C  
BRANCH  17  21
HETATM   21  C   UNL     1     -11.073  13.289  68.873  1.00  0.00    -0.261 C  
HETATM   22  N   UNL     1     -11.328  12.509  70.090  1.00  0.00    -0.471 NA 
HETATM   23  H1  UNL     1     -11.371  13.165  70.869  1.00  0.00     0.000 HD 
HETATM   24  H2  UNL     1     -10.649  11.762  70.235  1.00  0.00     0.000 HD 
BRANCH  21  25
HETATM   25  C   UNL     1     -12.129  14.442  68.680  1.00  0.00    -0.239 C  
HETATM   26  H   UNL     1     -13.547  15.348  69.731  1.00  0.00     0.000 HD 
HETATM   27  O   UNL     1     -12.909  14.653  69.848  1.00  0.00    -0.186 OA 
BRANCH  25  28
HETATM   28  C   UNL     1     -11.381  15.728  68.275  1.00  0.00    -0.354 C  
HETATM   29  C   UNL     1      -9.838  15.767  68.176  1.00  0.00    -0.209 C  
HETATM   30  C   UNL     1      -9.522  17.240  67.844  1.00  0.00    -0.266 C  
HETATM   31  C   UNL     1      -9.204  14.801  67.134  1.00  0.00    -0.233 C  
HETATM   32  C   UNL     1      -7.669  14.805  67.153  1.00  0.00    -0.149 C  
HETATM   33  O   UNL     1     -10.198  17.919  67.073  1.00  0.00    -0.329 OA 
HETATM   34  N   UNL     1      -8.408  17.754  68.470  1.00  0.00    -0.297 N  
HETATM   35  C   UNL     1      -9.723  15.019  65.709  1.00  0.00    -0.375 C  
HETATM   36  H   UNL     1      -7.816  17.143  69.033  1.00  0.00     0.000 HD 
BRANCH  34  37
HETATM   37  C   UNL     1      -8.071  19.160  68.334  1.00  0.00    -0.343 C  
BRANCH  37  38
HETATM   38  C   UNL     1      -6.762  19.407  67.565  1.00  0.00    -0.231 C  
HETATM   39  C   UNL     1      -6.275  20.849  67.821  1.00  0.00    -0.391 C  
HETATM   40  C   UNL     1      -5.672  18.418  68.010  1.00  0.00    -0.165 C  
BRANCH  38  41
HETATM   41  C   UNL     1      -7.030  19.243  66.062  1.00  0.00    -0.261 C  
HETATM   42  N   UNL     1      -7.057  20.374  65.306  1.00  0.00    -0.487 N  
HETATM   43  O   UNL     1      -7.209  18.157  65.517  1.00  0.00    -0.539 OA 
HETATM   44  H2  UNL     1      -6.905  21.293  65.721  1.00  0.00     0.000 HD 
HETATM   45  H1  UNL     1      -7.235  20.265  64.308  1.00  0.00     0.000 HD 
ENDBRANCH  38  41
ENDBRANCH  37  38
ENDBRANCH  34  37
ENDBRANCH  25  28
ENDBRANCH  21  25
ENDBRANCH  17  21
ENDBRANCH  11  15
ENDBRANCH   6   7
ENDBRANCH   5   6
ENDBRANCH   4   5
ENDBRANCH   3   4
ENDBRANCH   2   3
TORSDOF 13
ENDMDL
MODEL       91
REMARK 921   NORMALIZED FREE ENERGY PREDICTED BY IDOCK:   -4.22 KCAL/MOL
REMARK 922        TOTAL FREE ENERGY PREDICTED BY IDOCK:   -9.74 KCAL/MOL
REMARK 923 INTER-LIGAND FREE ENERGY PREDICTED BY IDOCK:   -8.13 KCAL/MOL
REMARK 924 INTRA-LIGAND FREE ENERGY PREDICTED BY IDOCK:   -1.61 KCAL/MOL
REMARK 927      BINDING AFFINITY PREDICTED BY RF-SCORE:    0.00 PKD
ROOT
HETATM    1  C   UNL     1      -6.842   9.968  70.329  1.00  0.00    -0.147 C  
HETATM    2  O   UNL     1      -6.103  10.398  69.194  1.00  0.00    -0.037 OA 
ENDROOT
BRANCH   2   3
HETATM    3  C   UNL     1      -5.431   9.303  68.574  1.00  0.00    -0.037 C  
BRANCH   3   4
HETATM    4  C   UNL     1      -6.288   8.751  67.443  1.00  0.00    -0.057 C  
BRANCH   4   5
HETATM    5  C   UNL     1      -6.376   9.671  66.226  1.00  0.00    -0.069 C  
BRANCH   5   6
HETATM    6  O   UNL     1      -7.420   9.241  65.357  1.00  0.00    -0.095 OA 
BRANCH   6   7
HETATM    7  C   UNL     1      -8.349  10.141  64.895  1.00  0.00    -0.164 A  
HETATM    8  C   UNL     1      -8.522  10.160  63.494  1.00  0.00    -0.186 A  
HETATM    9  C   UNL     1      -9.332  11.140  62.913  1.00  0.00    -0.385 A  
HETATM   10  C   UNL     1      -8.985  11.102  65.690  1.00  0.00    -0.195 A  
HETATM   11  C   UNL     1      -9.733  12.137  65.098  1.00  0.00    -0.133 A  
HETATM   12  C   UNL     1      -9.912  12.130  63.712  1.00  0.00    -0.343 A  
BRANCH   8  13
HETATM   13  O   UNL     1      -7.848   9.192  62.788  1.00  0.00    -0.116 OA 
HETATM   14  C   UNL     1      -8.563   8.020  62.425  1.00  0.00     0.007 C  
ENDBRANCH   8  13
BRANCH  11  15
HETATM   15  C   UNL     1     -10.147  13.351  65.903  1.00  0.00    -0.300 C  
HETATM   16  C   UNL     1     -11.606  13.544  66.394  1.00  0.00    -0.381 C  
HETATM   17  C   UNL     1     -11.663  14.772  67.380  1.00  0.00    -0.371 C  
HETATM   18  C   UNL     1     -12.685  13.754  65.287  1.00  0.00    -0.481 C  
HETATM   19  C   UNL     1     -12.963  12.493  64.466  1.00  0.00    -0.215 C  
HETATM   20  C   UNL     1     -12.407  14.944  64.366  1.00  0.00    -0.342 C  
BRANCH  17  21
HETATM   21  C   UNL     1     -10.845  14.625  68.679  1.00  0.00    -0.255 C  
HETATM   22  N   UNL     1      -9.459  14.332  68.292  1.00  0.00    -0.204 NA 
HETATM   23  H1  UNL     1      -8.918  14.234  69.150  1.00  0.00     0.000 HD 
HETATM   24  H2  UNL     1      -9.070  15.022  67.650  1.00  0.00     0.000 HD 
BRANCH  21  25
HETATM   25  C   UNL     1     -11.417  13.550  69.678  1.00  0.00    -0.217 C  
HETATM   26  H   UNL     1     -13.085  13.209  70.697  1.00  0.00     0.000 HD 
HETATM   27  O   UNL     1     -12.739  13.857  70.095  1.00  0.00    -0.275 OA 
BRANCH  25  28
HETATM   28  C   UNL     1     -11.360  12.168  68.995  1.00  0.00    -0.329 C  
HETATM   29  C   UNL     1     -10.837  10.920  69.743  1.00  0.00    -0.247 C  
HETATM   30  C   UNL     1     -10.864   9.806  68.676  1.00  0.00    -0.188 C  
HETATM   31  C   UNL     1     -11.637  10.510  71.014  1.00  0.00    -0.318 C  
HETATM   32  C   UNL     1     -11.013   9.331  71.774  1.00  0.00    -0.383 C  
HETATM   33  O   UNL     1     -11.766   9.685  67.848  1.00  0.00     0.400 OA 
HETATM   34  N   UNL     1      -9.800   8.932  68.716  1.00  0.00    -0.169 N  
HETATM   35  C   UNL     1     -13.121  10.244  70.738  1.00  0.00    -0.360 C  
HETATM   36  H   UNL     1      -9.115   9.002  69.468  1.00  0.00     0.000 HD 
BRANCH  34  37
HETATM   37  C   UNL     1      -9.647   7.912  67.694  1.00  0.00    -0.150 C  
BRANCH  37  38
HETATM   38  C   UNL     1      -9.769   6.478  68.234  1.00  0.00    -0.131 C  
HETATM   39  C   UNL     1      -8.585   6.176  69.178  1.00  0.00    -0.119 C  
HETATM   40  C   UNL     1     -11.088   6.293  69.002  1.00  0.00    -0.446 C  
BRANCH  38  41
HETATM   41  C   UNL     1      -9.713   5.496  67.055  1.00  0.00    -0.146 C  
HETATM   42  N   UNL     1      -9.754   6.023  65.801  1.00  0.00    -0.370 N  
HETATM   43  O   UNL     1      -9.625   4.278  67.186  1.00  0.00    -0.172 OA 
HETATM   44  H2  UNL     1      -9.820   7.029  65.651  1.00  0.00     0.000 HD 
HETATM   45  H1  UNL     1      -9.717   5.371  65.018  1.00  0.00     0.000 HD 
ENDBRANCH  38  41
ENDBRANCH  37  38
ENDBRANCH  34  37
ENDBRANCH  25  28
ENDBRANCH  21  25
ENDBRANCH  17  21
ENDBRANCH  11  15
ENDBRANCH   6   7
ENDBRANCH   5   6
ENDBRANCH   4   5
ENDBRANCH   3   4
ENDBRANCH   2   3
TORSDOF 13
ENDMDL
MODEL       92
REMARK 921   NORMALIZED FREE ENERGY PREDICTED BY IDOCK:   -4.21 KCAL/MOL
REMARK 922        TOTAL FREE ENERGY PREDICTED BY IDOCK:   -9.73 KCAL/MOL
REMARK 923 INTER-LIGAND FREE ENERGY PREDICTED BY IDOCK:   -8.44 KCAL/MOL
REMARK 924 INTRA-LIGAND FREE ENERGY PREDICTED BY IDOCK:   -1.29 KCAL/MOL
REMARK 927      BINDING AFFINITY PREDICTED BY RF-SCORE:    0.00 PKD
ROOT
HETATM    1  C   UNL     1     -10.429  20.547  67.636  1.00  0.00     0.058 C  
HETATM    2  O   UNL     1      -9.677  19.570  68.342  1.00  0.00    -0.361 OA 
ENDROOT
BRANCH   2   3
HETATM    3  C   UNL     1      -9.790  18.289  67.723  1.00  0.00    -0.318 C  
BRANCH   3   4
HETATM    4  C   UNL     1      -8.453  17.563  67.801  1.00  0.00    -0.225 C  
BRANCH   4   5
HETATM    5  C   UNL     1      -8.486  16.295  68.654  1.00  0.00    -0.221 C  
BRANCH   5   6
HETATM    6  O   UNL     1      -8.054  15.175  67.887  1.00  0.00    -0.126 OA 
BRANCH   6   7
HETATM    7  C   UNL     1      -7.488  14.089  68.509  1.00  0.00    -0.124 A  
HETATM    8  C   UNL     1      -6.231  14.325  69.106  1.00  0.00    -0.099 A  
HETATM    9  C   UNL     1      -5.506  13.252  69.632  1.00  0.00    -0.094 A  
HETATM   10  C   UNL     1      -7.999  12.786  68.447  1.00  0.00    -0.137 A  
HETATM   11  C   UNL     1      -7.232  11.697  68.903  1.00  0.00    -0.113 A  
HETATM   12  C   UNL     1      -5.998  11.949  69.510  1.00  0.00    -0.098 A  
BRANCH   8  13
HETATM   13  O   UNL     1      -5.799  15.630  69.109  1.00  0.00    -0.104 OA 
HETATM   14  C   UNL     1      -5.131  16.103  70.270  1.00  0.00    -0.160 C  
ENDBRANCH   8  13
BRANCH  11  15
HETATM   15  C   UNL     1      -7.619  10.276  68.549  1.00  0.00    -0.089 C  
HETATM   16  C   UNL     1      -7.695   9.161  69.624  1.00  0.00    -0.082 C  
HETATM   17  C   UNL     1      -8.334   7.869  68.988  1.00  0.00    -0.130 C  
HETATM   18  C   UNL     1      -6.347   8.760  70.300  1.00  0.00    -0.038 C  
HETATM   19  C   UNL     1      -5.793   9.838  71.233  1.00  0.00    -0.052 C  
HETATM   20  C   UNL     1      -5.272   8.298  69.314  1.00  0.00    -0.030 C  
BRANCH  17  21
HETATM   21  C   UNL     1      -9.788   8.016  68.494  1.00  0.00    -0.174 C  
HETATM   22  N   UNL     1     -10.652   7.339  69.469  1.00  0.00    -0.231 NA 
HETATM   23  H1  UNL     1     -11.613   7.436  69.142  1.00  0.00     0.000 HD 
HETATM   24  H2  UNL     1     -10.519   7.676  70.422  1.00  0.00     0.000 HD 
BRANCH  21  25
HETATM   25  C   UNL     1     -10.022   7.485  67.030  1.00  0.00    -0.234 C  
HETATM   26  H   UNL     1     -11.297   6.312  66.062  1.00  0.00     0.000 HD 
HETATM   27  O   UNL     1     -11.156   6.633  66.945  1.00  0.00    -0.400 OA 
BRANCH  25  28
HETATM   28  C   UNL     1     -10.168   8.696  66.086  1.00  0.00     0.028 C  
HETATM   29  C   UNL     1      -9.001   9.686  65.858  1.00  0.00    -0.203 C  
HETATM   30  C   UNL     1      -9.605  10.770  64.942  1.00  0.00    -0.256 C  
HETATM   31  C   UNL     1      -7.709   9.075  65.242  1.00  0.00    -0.100 C  
HETATM   32  C   UNL     1      -6.552  10.077  65.135  1.00  0.00    -0.115 C  
HETATM   33  O   UNL     1     -10.381  10.520  64.020  1.00  0.00    -0.289 OA 
HETATM   34  N   UNL     1      -9.206  12.058  65.220  1.00  0.00    -0.427 N  
HETATM   35  C   UNL     1      -7.947   8.385  63.894  1.00  0.00    -0.158 C  
HETATM   36  H   UNL     1      -8.494  12.226  65.931  1.00  0.00     0.000 HD 
BRANCH  34  37
HETATM   37  C   UNL     1      -9.792  13.180  64.508  1.00  0.00     0.036 C  
BRANCH  37  38
HETATM   38  C   UNL     1     -10.979  13.823  65.245  1.00  0.00    -0.322 C  
HETATM   39  C   UNL     1     -11.052  13.277  66.687  1.00  0.00    -0.311 C  
HETATM   40  C   UNL     1     -10.830  15.353  65.290  1.00  0.00    -0.423 C  
BRANCH  38  41
HETATM   41  C   UNL     1     -12.278  13.450  64.516  1.00  0.00    -0.398 C  
HETATM   42  N   UNL     1     -12.407  13.853  63.224  1.00  0.00    -1.148 N  
HETATM   43  O   UNL     1     -13.189  12.808  65.034  1.00  0.00    -0.768 OA 
HETATM   44  H2  UNL     1     -11.670  14.381  62.756  1.00  0.00     0.000 HD 
HETATM   45  H1  UNL     1     -13.269  13.605  62.740  1.00  0.00     0.000 HD 
ENDBRANCH  38  41
ENDBRANCH  37  38
ENDBRANCH  34  37
ENDBRANCH  25  28
ENDBRANCH  21  25
ENDBRANCH  17  21
ENDBRANCH  11  15
ENDBRANCH   6   7
ENDBRANCH   5   6
ENDBRANCH   4   5
ENDBRANCH   3   4
ENDBRANCH   2   3
TORSDOF 13
ENDMDL
MODEL       93
REMARK 921   NORMALIZED FREE ENERGY PREDICTED BY IDOCK:   -4.20 KCAL/MOL
REMARK 922        TOTAL FREE ENERGY PREDICTED BY IDOCK:   -9.70 KCAL/MOL
REMARK 923 INTER-LIGAND FREE ENERGY PREDICTED BY IDOCK:   -8.31 KCAL/MOL
REMARK 924 INTRA-LIGAND FREE ENERGY PREDICTED BY IDOCK:   -1.40 KCAL/MOL
REMARK 927      BINDING AFFINITY PREDICTED BY RF-SCORE:    0.00 PKD
ROOT
HETATM    1  C   UNL     1      -8.630   2.600  63.826  1.00  0.00    -0.086 C  
HETATM    2  O   UNL     1      -8.549   1.468  64.681  1.00  0.00    -0.086 OA 
ENDROOT
BRANCH   2   3
HETATM    3  C   UNL     1      -9.371   1.635  65.835  1.00  0.00     0.118 C  
BRANCH   3   4
HETATM    4  C   UNL     1      -8.681   2.564  66.825  1.00  0.00    -0.133 C  
BRANCH   4   5
HETATM    5  C   UNL     1      -9.614   3.594  67.461  1.00  0.00    -0.144 C  
BRANCH   5   6
HETATM    6  O   UNL     1      -9.554   3.501  68.881  1.00  0.00    -0.165 OA 
BRANCH   6   7
HETATM    7  C   UNL     1      -9.440   4.638  69.644  1.00  0.00    -0.162 A  
HETATM    8  C   UNL     1      -9.815   4.494  70.997  1.00  0.00    -0.196 A  
HETATM    9  C   UNL     1      -9.876   5.623  71.818  1.00  0.00    -0.208 A  
HETATM   10  C   UNL     1      -9.134   5.906  69.134  1.00  0.00    -0.125 A  
HETATM   11  C   UNL     1      -9.276   7.051  69.940  1.00  0.00    -0.144 A  
HETATM   12  C   UNL     1      -9.629   6.891  71.283  1.00  0.00    -0.165 A  
BRANCH   8  13
HETATM   13  O   UNL     1     -10.114   3.217  71.410  1.00  0.00    -0.114 OA 
HETATM   14  C   UNL     1      -9.933   2.906  72.784  1.00  0.00    -0.142 C  
ENDBRANCH   8  13
BRANCH  11  15
HETATM   15  C   UNL     1      -9.270   8.436  69.325  1.00  0.00    -0.154 C  
HETATM   16  C   UNL     1      -8.143   8.894  68.363  1.00  0.00    -0.109 C  
HETATM   17  C   UNL     1      -8.536  10.281  67.727  1.00  0.00    -0.118 C  
HETATM   18  C   UNL     1      -6.717   9.025  68.982  1.00  0.00    -0.051 C  
HETATM   19  C   UNL     1      -6.084   7.677  69.333  1.00  0.00    -0.031 C  
HETATM   20  C   UNL     1      -6.644   9.980  70.175  1.00  0.00    -0.117 C  
BRANCH  17  21
HETATM   21  C   UNL     1      -9.804  10.279  66.849  1.00  0.00    -0.197 C  
HETATM   22  N   UNL     1      -9.864   8.978  66.172  1.00  0.00    -0.313 NA 
HETATM   23  H1  UNL     1     -10.703   8.976  65.591  1.00  0.00     0.000 HD 
HETATM   24  H2  UNL     1      -9.825   8.189  66.818  1.00  0.00     0.000 HD 
BRANCH  21  25
HETATM   25  C   UNL     1      -9.878  11.477  65.829  1.00  0.00    -0.234 C  
HETATM   26  H   UNL     1     -10.938  12.011  64.239  1.00  0.00     0.000 HD 
HETATM   27  O   UNL     1     -10.893  11.288  64.855  1.00  0.00    -0.291 OA 
BRANCH  25  28
HETATM   28  C   UNL     1     -10.108  12.780  66.621  1.00  0.00    -0.248 C  
HETATM   29  C   UNL     1     -10.230  14.147  65.908  1.00  0.00    -0.332 C  
HETATM   30  C   UNL     1     -10.351  15.162  67.064  1.00  0.00    -0.271 C  
HETATM   31  C   UNL     1     -11.413  14.282  64.906  1.00  0.00    -0.378 C  
HETATM   32  C   UNL     1     -11.423  15.618  64.151  1.00  0.00    -0.080 C  
HETATM   33  O   UNL     1     -11.003  14.949  68.085  1.00  0.00    -0.256 OA 
HETATM   34  N   UNL     1      -9.679  16.349  66.872  1.00  0.00    -0.244 N  
HETATM   35  C   UNL     1     -12.782  14.015  65.542  1.00  0.00    -0.517 C  
HETATM   36  H   UNL     1      -9.223  16.534  65.979  1.00  0.00     0.000 HD 
BRANCH  34  37
HETATM   37  C   UNL     1      -9.617  17.339  67.932  1.00  0.00    -0.269 C  
BRANCH  37  38
HETATM   38  C   UNL     1      -9.629  18.789  67.421  1.00  0.00    -0.337 C  
HETATM   39  C   UNL     1     -10.593  18.908  66.220  1.00  0.00    -0.463 C  
HETATM   40  C   UNL     1     -10.081  19.755  68.529  1.00  0.00    -0.555 C  
BRANCH  38  41
HETATM   41  C   UNL     1      -8.217  19.163  66.951  1.00  0.00    -0.272 C  
HETATM   42  N   UNL     1      -7.966  20.478  66.711  1.00  0.00    -0.519 N  
HETATM   43  O   UNL     1      -7.313  18.345  66.791  1.00  0.00    -0.200 OA 
HETATM   44  H2  UNL     1      -8.688  21.188  66.839  1.00  0.00     0.000 HD 
HETATM   45  H1  UNL     1      -7.028  20.727  66.398  1.00  0.00     0.000 HD 
ENDBRANCH  38  41
ENDBRANCH  37  38
ENDBRANCH  34  37
ENDBRANCH  25  28
ENDBRANCH  21  25
ENDBRANCH  17  21
ENDBRANCH  11  15
ENDBRANCH   6   7
ENDBRANCH   5   6
ENDBRANCH   4   5
ENDBRANCH   3   4
ENDBRANCH   2   3
TORSDOF 13
ENDMDL
MODEL       94
REMARK 921   NORMALIZED FREE ENERGY PREDICTED BY IDOCK:   -4.19 KCAL/MOL
REMARK 922        TOTAL FREE ENERGY PREDICTED BY IDOCK:   -9.69 KCAL/MOL
REMARK 923 INTER-LIGAND FREE ENERGY PREDICTED BY IDOCK:   -6.62 KCAL/MOL
REMARK 924 INTRA-LIGAND FREE ENERGY PREDICTED BY IDOCK:   -3.07 KCAL/MOL
REMARK 927      BINDING AFFINITY PREDICTED BY RF-SCORE:    0.00 PKD
ROOT
HETATM    1  C   UNL     1      -9.454   3.538  69.415  1.00  0.00    -0.164 C  
HETATM    2  O   UNL     1     -10.126   4.728  69.027  1.00  0.00    -0.175 OA 
ENDROOT
BRANCH   2   3
HETATM    3  C   UNL     1      -9.613   5.230  67.794  1.00  0.00    -0.133 C  
BRANCH   3   4
HETATM    4  C   UNL     1      -8.092   5.152  67.803  1.00  0.00    -0.099 C  
BRANCH   4   5
HETATM    5  C   UNL     1      -7.437   5.684  66.528  1.00  0.00    -0.087 C  
BRANCH   5   6
HETATM    6  O   UNL     1      -8.415   6.289  65.688  1.00  0.00    -0.142 OA 
BRANCH   6   7
HETATM    7  C   UNL     1      -8.255   7.586  65.264  1.00  0.00    -0.129 A  
HETATM    8  C   UNL     1      -7.561   7.738  64.044  1.00  0.00    -0.113 A  
HETATM    9  C   UNL     1      -7.216   9.019  63.603  1.00  0.00    -0.093 A  
HETATM   10  C   UNL     1      -8.590   8.714  66.022  1.00  0.00    -0.173 A  
HETATM   11  C   UNL     1      -8.170   9.996  65.618  1.00  0.00    -0.143 A  
HETATM   12  C   UNL     1      -7.503  10.132  64.398  1.00  0.00    -0.123 A  
BRANCH   8  13
HETATM   13  O   UNL     1      -7.257   6.578  63.372  1.00  0.00    -0.054 OA 
HETATM   14  C   UNL     1      -8.156   6.144  62.362  1.00  0.00    -0.100 C  
ENDBRANCH   8  13
BRANCH  11  15
HETATM   15  C   UNL     1      -8.235  11.169  66.575  1.00  0.00    -0.167 C  
HETATM   16  C   UNL     1      -6.952  11.857  67.107  1.00  0.00    -0.142 C  
HETATM   17  C   UNL     1      -7.351  13.165  67.891  1.00  0.00    -0.131 C  
HETATM   18  C   UNL     1      -6.036  10.994  68.029  1.00  0.00    -0.049 C  
HETATM   19  C   UNL     1      -5.312   9.872  67.282  1.00  0.00    -0.042 C  
HETATM   20  C   UNL     1      -6.744  10.445  69.269  1.00  0.00    -0.067 C  
BRANCH  17  21
HETATM   21  C   UNL     1      -8.048  14.258  67.056  1.00  0.00    -0.039 C  
HETATM   22  N   UNL     1      -7.032  15.261  66.713  1.00  0.00    -0.210 NA 
HETATM   23  H1  UNL     1      -7.492  15.984  66.160  1.00  0.00     0.000 HD 
HETATM   24  H2  UNL     1      -6.218  14.860  66.246  1.00  0.00     0.000 HD 
BRANCH  21  25
HETATM   25  C   UNL     1      -9.297  14.906  67.765  1.00  0.00    -0.194 C  
HETATM   26  H   UNL     1     -10.664  16.293  67.389  1.00  0.00     0.000 HD 
HETATM   27  O   UNL     1      -9.911  15.903  66.961  1.00  0.00    -0.239 OA 
BRANCH  25  28
HETATM   28  C   UNL     1     -10.297  13.785  68.114  1.00  0.00    -0.252 C  
HETATM   29  C   UNL     1     -10.760  13.541  69.570  1.00  0.00     0.152 C  
HETATM   30  C   UNL     1     -11.659  12.292  69.473  1.00  0.00    -0.298 C  
HETATM   31  C   UNL     1     -11.505  14.727  70.248  1.00  0.00    -0.309 C  
HETATM   32  C   UNL     1     -11.847  14.471  71.722  1.00  0.00    -0.210 C  
HETATM   33  O   UNL     1     -12.441  12.093  68.545  1.00  0.00    -0.046 OA 
HETATM   34  N   UNL     1     -11.535  11.400  70.516  1.00  0.00    -0.436 N  
HETATM   35  C   UNL     1     -12.752  15.180  69.479  1.00  0.00     0.095 C  
HETATM   36  H   UNL     1     -10.946  11.634  71.315  1.00  0.00     0.000 HD 
BRANCH  34  37
HETATM   37  C   UNL     1     -12.238  10.130  70.485  1.00  0.00    -0.264 C  
BRANCH  37  38
HETATM   38  C   UNL     1     -11.318   8.914  70.680  1.00  0.00    -0.299 C  
HETATM   39  C   UNL     1     -10.416   8.741  69.438  1.00  0.00    -0.228 C  
HETATM   40  C   UNL     1     -10.434   9.090  71.926  1.00  0.00    -0.373 C  
BRANCH  38  41
HETATM   41  C   UNL     1     -12.183   7.655  70.831  1.00  0.00    -0.168 C  
HETATM   42  N   UNL     1     -12.010   6.664  69.915  1.00  0.00    -0.639 N  
HETATM   43  O   UNL     1     -13.005   7.498  71.731  1.00  0.00    -0.335 OA 
HETATM   44  H2  UNL     1     -11.333   6.754  69.158  1.00  0.00     0.000 HD 
HETATM   45  H1  UNL     1     -12.585   5.828  70.016  1.00  0.00     0.000 HD 
ENDBRANCH  38  41
ENDBRANCH  37  38
ENDBRANCH  34  37
ENDBRANCH  25  28
ENDBRANCH  21  25
ENDBRANCH  17  21
ENDBRANCH  11  15
ENDBRANCH   6   7
ENDBRANCH   5   6
ENDBRANCH   4   5
ENDBRANCH   3   4
ENDBRANCH   2   3
TORSDOF 13
ENDMDL
MODEL       95
REMARK 921   NORMALIZED FREE ENERGY PREDICTED BY IDOCK:   -4.19 KCAL/MOL
REMARK 922        TOTAL FREE ENERGY PREDICTED BY IDOCK:   -9.69 KCAL/MOL
REMARK 923 INTER-LIGAND FREE ENERGY PREDICTED BY IDOCK:   -9.06 KCAL/MOL
REMARK 924 INTRA-LIGAND FREE ENERGY PREDICTED BY IDOCK:   -0.63 KCAL/MOL
REMARK 927      BINDING AFFINITY PREDICTED BY RF-SCORE:    0.00 PKD
ROOT
HETATM    1  C   UNL     1      -9.366   3.428  71.990  1.00  0.00    -0.123 C  
HETATM    2  O   UNL     1     -10.707   3.784  72.295  1.00  0.00    -0.006 OA 
ENDROOT
BRANCH   2   3
HETATM    3  C   UNL     1     -10.801   4.370  73.592  1.00  0.00    -0.288 C  
BRANCH   3   4
HETATM    4  C   UNL     1      -9.744   5.455  73.742  1.00  0.00    -0.154 C  
BRANCH   4   5
HETATM    5  C   UNL     1     -10.313   6.873  73.787  1.00  0.00    -0.376 C  
BRANCH   5   6
HETATM    6  O   UNL     1     -11.242   7.064  72.725  1.00  0.00    -0.274 OA 
BRANCH   6   7
HETATM    7  C   UNL     1     -11.107   8.134  71.873  1.00  0.00    -0.285 A  
HETATM    8  C   UNL     1     -12.316   8.650  71.360  1.00  0.00    -0.304 A  
HETATM    9  C   UNL     1     -12.279   9.638  70.372  1.00  0.00    -0.065 A  
HETATM   10  C   UNL     1      -9.882   8.612  71.391  1.00  0.00    -0.327 A  
HETATM   11  C   UNL     1      -9.846   9.547  70.339  1.00  0.00    -0.329 A  
HETATM   12  C   UNL     1     -11.052  10.063  69.855  1.00  0.00    -0.336 A  
BRANCH   8  13
HETATM   13  O   UNL     1     -13.471   8.112  71.877  1.00  0.00    -0.332 OA 
HETATM   14  C   UNL     1     -14.302   8.959  72.658  1.00  0.00    -0.118 C  
ENDBRANCH   8  13
BRANCH  11  15
HETATM   15  C   UNL     1      -8.557   9.823  69.593  1.00  0.00    -0.201 C  
HETATM   16  C   UNL     1      -8.336   9.333  68.139  1.00  0.00    -0.120 C  
HETATM   17  C   UNL     1      -7.007   9.963  67.574  1.00  0.00    -0.083 C  
HETATM   18  C   UNL     1      -8.272   7.788  67.932  1.00  0.00    -0.123 C  
HETATM   19  C   UNL     1      -9.622   7.095  68.128  1.00  0.00    -0.134 C  
HETATM   20  C   UNL     1      -7.189   7.095  68.762  1.00  0.00    -0.094 C  
BRANCH  17  21
HETATM   21  C   UNL     1      -6.992  11.501  67.460  1.00  0.00    -0.102 C  
HETATM   22  N   UNL     1      -6.961  12.040  68.825  1.00  0.00    -0.096 NA 
HETATM   23  H1  UNL     1      -6.952  13.057  68.750  1.00  0.00     0.000 HD 
HETATM   24  H2  UNL     1      -6.189  11.674  69.381  1.00  0.00     0.000 HD 
BRANCH  21  25
HETATM   25  C   UNL     1      -8.187  12.091  66.620  1.00  0.00    -0.056 C  
HETATM   26  H   UNL     1     -10.031  11.578  66.097  1.00  0.00     0.000 HD 
HETATM   27  O   UNL     1      -9.310  11.223  66.604  1.00  0.00    -0.173 OA 
BRANCH  25  28
HETATM   28  C   UNL     1      -8.562  13.469  67.204  1.00  0.00    -0.203 C  
HETATM   29  C   UNL     1      -9.293  14.533  66.353  1.00  0.00    -0.300 C  
HETATM   30  C   UNL     1      -9.378  15.762  67.283  1.00  0.00    -0.211 C  
HETATM   31  C   UNL     1     -10.698  14.124  65.822  1.00  0.00    -0.301 C  
HETATM   32  C   UNL     1     -11.331  15.174  64.899  1.00  0.00    -0.402 C  
HETATM   33  O   UNL     1      -9.610  15.682  68.488  1.00  0.00    -0.192 OA 
HETATM   34  N   UNL     1      -9.183  16.977  66.664  1.00  0.00    -0.245 N  
HETATM   35  C   UNL     1     -11.676  13.728  66.934  1.00  0.00    -0.424 C  
HETATM   36  H   UNL     1      -9.083  17.019  65.650  1.00  0.00     0.000 HD 
BRANCH  34  37
HETATM   37  C   UNL     1      -9.121  18.198  67.447  1.00  0.00    -0.253 C  
BRANCH  37  38
HETATM   38  C   UNL     1      -7.713  18.815  67.512  1.00  0.00    -0.244 C  
HETATM   39  C   UNL     1      -7.501  19.477  68.891  1.00  0.00    -0.392 C  
HETATM   40  C   UNL     1      -6.635  17.740  67.296  1.00  0.00    -0.186 C  
BRANCH  38  41
HETATM   41  C   UNL     1      -7.593  19.896  66.429  1.00  0.00    -0.294 C  
HETATM   42  N   UNL     1      -7.667  21.194  66.832  1.00  0.00    -0.533 N  
HETATM   43  O   UNL     1      -7.427  19.651  65.237  1.00  0.00    -0.382 OA 
HETATM   44  H2  UNL     1      -7.797  21.438  67.813  1.00  0.00     0.000 HD 
HETATM   45  H1  UNL     1      -7.587  21.912  66.113  1.00  0.00     0.000 HD 
ENDBRANCH  38  41
ENDBRANCH  37  38
ENDBRANCH  34  37
ENDBRANCH  25  28
ENDBRANCH  21  25
ENDBRANCH  17  21
ENDBRANCH  11  15
ENDBRANCH   6   7
ENDBRANCH   5   6
ENDBRANCH   4   5
ENDBRANCH   3   4
ENDBRANCH   2   3
TORSDOF 13
ENDMDL
MODEL       96
REMARK 921   NORMALIZED FREE ENERGY PREDICTED BY IDOCK:   -4.18 KCAL/MOL
REMARK 922        TOTAL FREE ENERGY PREDICTED BY IDOCK:   -9.67 KCAL/MOL
REMARK 923 INTER-LIGAND FREE ENERGY PREDICTED BY IDOCK:   -7.46 KCAL/MOL
REMARK 924 INTRA-LIGAND FREE ENERGY PREDICTED BY IDOCK:   -2.21 KCAL/MOL
REMARK 927      BINDING AFFINITY PREDICTED BY RF-SCORE:    0.00 PKD
ROOT
HETATM    1  C   UNL     1     -10.991  20.011  65.013  1.00  0.00     0.683 C  
HETATM    2  O   UNL     1      -9.926  19.639  65.877  1.00  0.00    -0.406 OA 
ENDROOT
BRANCH   2   3
HETATM    3  C   UNL     1     -10.055  20.268  67.152  1.00  0.00    -0.415 C  
BRANCH   3   4
HETATM    4  C   UNL     1     -10.501  19.242  68.185  1.00  0.00    -0.450 C  
BRANCH   4   5
HETATM    5  C   UNL     1      -9.620  19.196  69.433  1.00  0.00    -0.044 C  
BRANCH   5   6
HETATM    6  O   UNL     1      -8.256  19.008  69.066  1.00  0.00    -0.296 OA 
BRANCH   6   7
HETATM    7  C   UNL     1      -7.841  17.808  68.543  1.00  0.00    -0.290 A  
HETATM    8  C   UNL     1      -6.966  17.905  67.439  1.00  0.00    -0.186 A  
HETATM    9  C   UNL     1      -6.606  16.748  66.743  1.00  0.00    -0.247 A  
HETATM   10  C   UNL     1      -8.341  16.559  68.931  1.00  0.00    -0.241 A  
HETATM   11  C   UNL     1      -8.043  15.407  68.179  1.00  0.00    -0.136 A  
HETATM   12  C   UNL     1      -7.160  15.516  67.102  1.00  0.00    -0.171 A  
BRANCH   8  13
HETATM   13  O   UNL     1      -6.537  19.170  67.117  1.00  0.00    -0.193 OA 
HETATM   14  C   UNL     1      -6.591  19.560  65.752  1.00  0.00    -0.242 C  
ENDBRANCH   8  13
BRANCH  11  15
HETATM   15  C   UNL     1      -8.826  14.126  68.384  1.00  0.00    -0.187 C  
HETATM   16  C   UNL     1      -9.676  13.501  67.248  1.00  0.00    -0.236 C  
HETATM   17  C   UNL     1     -10.178  12.077  67.698  1.00  0.00    -0.210 C  
HETATM   18  C   UNL     1     -10.911  14.328  66.773  1.00  0.00    -0.298 C  
HETATM   19  C   UNL     1     -10.531  15.596  66.005  1.00  0.00    -0.343 C  
HETATM   20  C   UNL     1     -11.905  14.655  67.890  1.00  0.00    -0.352 C  
BRANCH  17  21
HETATM   21  C   UNL     1      -9.075  11.032  67.962  1.00  0.00    -0.152 C  
HETATM   22  N   UNL     1      -8.729  10.425  66.671  1.00  0.00    -0.134 NA 
HETATM   23  H1  UNL     1      -8.000   9.734  66.845  1.00  0.00     0.000 HD 
HETATM   24  H2  UNL     1      -8.467  11.112  65.964  1.00  0.00     0.000 HD 
BRANCH  21  25
HETATM   25  C   UNL     1      -9.465   9.948  69.037  1.00  0.00    -0.183 C  
HETATM   26  H   UNL     1     -10.694   9.765  70.583  1.00  0.00     0.000 HD 
HETATM   27  O   UNL     1     -10.460  10.419  69.934  1.00  0.00    -0.255 OA 
BRANCH  25  28
HETATM   28  C   UNL     1      -9.938   8.678  68.302  1.00  0.00    -0.207 C  
HETATM   29  C   UNL     1      -9.500   7.268  68.764  1.00  0.00    -0.142 C  
HETATM   30  C   UNL     1     -10.113   6.323  67.710  1.00  0.00    -0.149 C  
HETATM   31  C   UNL     1      -9.928   6.867  70.205  1.00  0.00    -0.189 C  
HETATM   32  C   UNL     1      -9.378   5.504  70.648  1.00  0.00    -0.195 C  
HETATM   33  O   UNL     1     -11.232   6.484  67.227  1.00  0.00    -0.376 OA 
HETATM   34  N   UNL     1      -9.315   5.261  67.344  1.00  0.00    -0.113 N  
HETATM   35  C   UNL     1     -11.443   6.932  70.430  1.00  0.00    -0.387 C  
HETATM   36  H   UNL     1      -8.431   5.102  67.826  1.00  0.00     0.000 HD 
BRANCH  34  37
HETATM   37  C   UNL     1      -9.726   4.366  66.277  1.00  0.00    -0.215 C  
BRANCH  37  38
HETATM   38  C   UNL     1      -8.629   3.379  65.846  1.00  0.00    -0.118 C  
HETATM   39  C   UNL     1      -9.258   2.230  65.028  1.00  0.00    -0.114 C  
HETATM   40  C   UNL     1      -7.564   4.085  64.990  1.00  0.00    -0.077 C  
BRANCH  38  41
HETATM   41  C   UNL     1      -7.975   2.782  67.100  1.00  0.00    -0.074 C  
HETATM   42  N   UNL     1      -8.412   1.562  67.512  1.00  0.00    -0.074 N  
HETATM   43  O   UNL     1      -7.083   3.341  67.734  1.00  0.00    -0.050 OA 
HETATM   44  H2  UNL     1      -9.146   1.064  67.008  1.00  0.00     0.000 HD 
HETATM   45  H1  UNL     1      -7.978   1.166  68.345  1.00  0.00     0.000 HD 
ENDBRANCH  38  41
ENDBRANCH  37  38
ENDBRANCH  34  37
ENDBRANCH  25  28
ENDBRANCH  21  25
ENDBRANCH  17  21
ENDBRANCH  11  15
ENDBRANCH   6   7
ENDBRANCH   5   6
ENDBRANCH   4   5
ENDBRANCH   3   4
ENDBRANCH   2   3
TORSDOF 13
ENDMDL
MODEL       97
REMARK 921   NORMALIZED FREE ENERGY PREDICTED BY IDOCK:   -4.16 KCAL/MOL
REMARK 922        TOTAL FREE ENERGY PREDICTED BY IDOCK:   -9.64 KCAL/MOL
REMARK 923 INTER-LIGAND FREE ENERGY PREDICTED BY IDOCK:   -9.06 KCAL/MOL
REMARK 924 INTRA-LIGAND FREE ENERGY PREDICTED BY IDOCK:   -0.58 KCAL/MOL
REMARK 927      BINDING AFFINITY PREDICTED BY RF-SCORE:    0.00 PKD
ROOT
HETATM    1  C   UNL     1     -10.514  11.855  63.434  1.00  0.00    -0.441 C  
HETATM    2  O   UNL     1      -9.758  10.873  64.130  1.00  0.00    -0.244 OA 
ENDROOT
BRANCH   2   3
HETATM    3  C   UNL     1      -9.163   9.946  63.223  1.00  0.00    -0.238 C  
BRANCH   3   4
HETATM    4  C   UNL     1      -8.110   9.122  63.952  1.00  0.00    -0.155 C  
BRANCH   4   5
HETATM    5  C   UNL     1      -8.572   8.583  65.305  1.00  0.00    -0.165 C  
BRANCH   5   6
HETATM    6  O   UNL     1      -7.720   7.523  65.730  1.00  0.00    -0.089 OA 
BRANCH   6   7
HETATM    7  C   UNL     1      -8.256   6.380  66.271  1.00  0.00    -0.118 A  
HETATM    8  C   UNL     1      -8.423   5.308  65.367  1.00  0.00    -0.145 A  
HETATM    9  C   UNL     1      -9.096   4.156  65.783  1.00  0.00    -0.136 A  
HETATM   10  C   UNL     1      -8.765   6.283  67.572  1.00  0.00    -0.105 A  
HETATM   11  C   UNL     1      -9.514   5.156  67.963  1.00  0.00    -0.156 A  
HETATM   12  C   UNL     1      -9.652   4.095  67.064  1.00  0.00    -0.228 A  
BRANCH   8  13
HETATM   13  O   UNL     1      -7.908   5.494  64.107  1.00  0.00    -0.089 OA 
HETATM   14  C   UNL     1      -6.991   4.526  63.617  1.00  0.00    -0.045 C  
ENDBRANCH   8  13
BRANCH  11  15
HETATM   15  C   UNL     1     -10.338   5.178  69.234  1.00  0.00    -0.248 C  
HETATM   16  C   UNL     1      -9.706   5.520  70.608  1.00  0.00    -0.233 C  
HETATM   17  C   UNL     1     -10.849   5.677  71.681  1.00  0.00    -0.301 C  
HETATM   18  C   UNL     1      -8.654   4.508  71.157  1.00  0.00    -0.125 C  
HETATM   19  C   UNL     1      -7.339   4.516  70.374  1.00  0.00    -0.049 C  
HETATM   20  C   UNL     1      -9.184   3.079  71.300  1.00  0.00    -0.194 C  
BRANCH  17  21
HETATM   21  C   UNL     1     -11.850   6.823  71.429  1.00  0.00    -0.338 C  
HETATM   22  N   UNL     1     -12.043   6.924  69.977  1.00  0.00    -0.637 NA 
HETATM   23  H1  UNL     1     -12.705   7.682  69.810  1.00  0.00     0.000 HD 
HETATM   24  H2  UNL     1     -12.331   6.043  69.551  1.00  0.00     0.000 HD 
BRANCH  21  25
HETATM   25  C   UNL     1     -11.418   8.200  72.062  1.00  0.00    -0.320 C  
HETATM   26  H   UNL     1      -9.765   9.078  72.721  1.00  0.00     0.000 HD 
HETATM   27  O   UNL     1     -10.026   8.248  72.338  1.00  0.00    -0.255 OA 
BRANCH  25  28
HETATM   28  C   UNL     1     -11.830   9.332  71.100  1.00  0.00    -0.396 C  
HETATM   29  C   UNL     1     -10.782  10.284  70.477  1.00  0.00    -0.212 C  
HETATM   30  C   UNL     1     -11.626  11.298  69.679  1.00  0.00    -0.330 C  
HETATM   31  C   UNL     1      -9.706   9.607  69.579  1.00  0.00    -0.216 C  
HETATM   32  C   UNL     1      -8.633  10.580  69.074  1.00  0.00    -0.160 C  
HETATM   33  O   UNL     1     -12.624  10.986  69.031  1.00  0.00    -0.378 OA 
HETATM   34  N   UNL     1     -11.177  12.599  69.729  1.00  0.00    -0.482 N  
HETATM   35  C   UNL     1     -10.302   8.813  68.411  1.00  0.00    -0.242 C  
HETATM   36  H   UNL     1     -10.298  12.814  70.198  1.00  0.00     0.000 HD 
BRANCH  34  37
HETATM   37  C   UNL     1     -11.948  13.667  69.118  1.00  0.00    -0.351 C  
BRANCH  37  38
HETATM   38  C   UNL     1     -11.905  14.986  69.907  1.00  0.00    -0.362 C  
HETATM   39  C   UNL     1     -10.696  14.976  70.868  1.00  0.00     0.021 C  
HETATM   40  C   UNL     1     -11.784  16.189  68.956  1.00  0.00    -0.254 C  
BRANCH  38  41
HETATM   41  C   UNL     1     -13.188  15.110  70.740  1.00  0.00    -0.382 C  
HETATM   42  N   UNL     1     -14.129  14.140  70.585  1.00  0.00     0.116 N  
HETATM   43  O   UNL     1     -13.399  16.024  71.533  1.00  0.00    -0.371 OA 
HETATM   44  H2  UNL     1     -13.987  13.362  69.941  1.00  0.00     0.000 HD 
HETATM   45  H1  UNL     1     -14.981  14.222  71.138  1.00  0.00     0.000 HD 
ENDBRANCH  38  41
ENDBRANCH  37  38
ENDBRANCH  34  37
ENDBRANCH  25  28
ENDBRANCH  21  25
ENDBRANCH  17  21
ENDBRANCH  11  15
ENDBRANCH   6   7
ENDBRANCH   5   6
ENDBRANCH   4   5
ENDBRANCH   3   4
ENDBRANCH   2   3
TORSDOF 13
ENDMDL
MODEL       98
REMARK 921   NORMALIZED FREE ENERGY PREDICTED BY IDOCK:   -4.16 KCAL/MOL
REMARK 922        TOTAL FREE ENERGY PREDICTED BY IDOCK:   -9.63 KCAL/MOL
REMARK 923 INTER-LIGAND FREE ENERGY PREDICTED BY IDOCK:   -7.39 KCAL/MOL
REMARK 924 INTRA-LIGAND FREE ENERGY PREDICTED BY IDOCK:   -2.25 KCAL/MOL
REMARK 927      BINDING AFFINITY PREDICTED BY RF-SCORE:    0.00 PKD
ROOT
HETATM    1  C   UNL     1     -10.957  20.045  65.468  1.00  0.00     0.044 C  
HETATM    2  O   UNL     1      -9.626  20.163  65.950  1.00  0.00    -0.365 OA 
ENDROOT
BRANCH   2   3
HETATM    3  C   UNL     1      -9.604  20.703  67.271  1.00  0.00    -0.417 C  
BRANCH   3   4
HETATM    4  C   UNL     1     -10.113  19.661  68.258  1.00  0.00    -0.560 C  
BRANCH   4   5
HETATM    5  C   UNL     1      -9.164  19.400  69.428  1.00  0.00     0.054 C  
BRANCH   5   6
HETATM    6  O   UNL     1      -7.815  19.619  69.026  1.00  0.00    -0.342 OA 
BRANCH   6   7
HETATM    7  C   UNL     1      -7.045  18.569  68.589  1.00  0.00    -0.280 A  
HETATM    8  C   UNL     1      -6.095  18.893  67.596  1.00  0.00    -0.199 A  
HETATM    9  C   UNL     1      -5.368  17.871  66.980  1.00  0.00    -0.159 A  
HETATM   10  C   UNL     1      -7.253  17.232  68.947  1.00  0.00    -0.243 A  
HETATM   11  C   UNL     1      -6.580  16.198  68.268  1.00  0.00    -0.127 A  
HETATM   12  C   UNL     1      -5.627  16.536  67.303  1.00  0.00    -0.172 A  
BRANCH   8  13
HETATM   13  O   UNL     1      -5.967  20.228  67.294  1.00  0.00    -0.175 OA 
HETATM   14  C   UNL     1      -6.066  20.610  65.930  1.00  0.00    -0.223 C  
ENDBRANCH   8  13
BRANCH  11  15
HETATM   15  C   UNL     1      -7.028  14.758  68.412  1.00  0.00    -0.114 C  
HETATM   16  C   UNL     1      -7.825  14.039  67.294  1.00  0.00    -0.143 C  
HETATM   17  C   UNL     1      -7.944  12.506  67.644  1.00  0.00    -0.170 C  
HETATM   18  C   UNL     1      -9.256  14.587  67.003  1.00  0.00    -0.253 C  
HETATM   19  C   UNL     1      -9.253  15.962  66.332  1.00  0.00    -0.344 C  
HETATM   20  C   UNL     1     -10.180  14.588  68.223  1.00  0.00    -0.234 C  
BRANCH  17  21
HETATM   21  C   UNL     1      -6.612  11.732  67.716  1.00  0.00    -0.075 C  
HETATM   22  N   UNL     1      -6.164  11.505  66.336  1.00  0.00    -0.340 NA 
HETATM   23  H1  UNL     1      -5.283  10.993  66.384  1.00  0.00     0.000 HD 
HETATM   24  H2  UNL     1      -6.096  12.365  65.792  1.00  0.00     0.000 HD 
BRANCH  21  25
HETATM   25  C   UNL     1      -6.696  10.390  68.537  1.00  0.00    -0.056 C  
HETATM   26  H   UNL     1      -7.845   9.573  69.932  1.00  0.00     0.000 HD 
HETATM   27  O   UNL     1      -7.795  10.382  69.437  1.00  0.00    -0.139 OA 
BRANCH  25  28
HETATM   28  C   UNL     1      -6.786   9.214  67.544  1.00  0.00    -0.069 C  
HETATM   29  C   UNL     1      -8.086   8.393  67.380  1.00  0.00    -0.106 C  
HETATM   30  C   UNL     1      -7.704   7.282  66.380  1.00  0.00    -0.093 C  
HETATM   31  C   UNL     1      -9.331   9.192  66.894  1.00  0.00    -0.199 C  
HETATM   32  C   UNL     1     -10.615   8.353  66.851  1.00  0.00    -0.285 C  
HETATM   33  O   UNL     1      -6.977   7.471  65.406  1.00  0.00    -0.057 OA 
HETATM   34  N   UNL     1      -8.247   6.045  66.646  1.00  0.00    -0.106 N  
HETATM   35  C   UNL     1      -9.111   9.905  65.556  1.00  0.00    -0.232 C  
HETATM   36  H   UNL     1      -8.917   5.938  67.408  1.00  0.00     0.000 HD 
BRANCH  34  37
HETATM   37  C   UNL     1      -7.871   4.890  65.850  1.00  0.00    -0.095 C  
BRANCH  37  38
HETATM   38  C   UNL     1      -9.065   4.188  65.183  1.00  0.00    -0.142 C  
HETATM   39  C   UNL     1     -10.377   4.643  65.857  1.00  0.00    -0.315 C  
HETATM   40  C   UNL     1      -9.126   4.521  63.682  1.00  0.00    -0.112 C  
BRANCH  38  41
HETATM   41  C   UNL     1      -8.921   2.672  65.372  1.00  0.00    -0.134 C  
HETATM   42  N   UNL     1      -9.891   1.881  64.840  1.00  0.00    -0.331 N  
HETATM   43  O   UNL     1      -7.982   2.146  65.965  1.00  0.00    -0.075 OA 
HETATM   44  H2  UNL     1     -10.682   2.279  64.335  1.00  0.00     0.000 HD 
HETATM   45  H1  UNL     1      -9.795   0.874  64.966  1.00  0.00     0.000 HD 
ENDBRANCH  38  41
ENDBRANCH  37  38
ENDBRANCH  34  37
ENDBRANCH  25  28
ENDBRANCH  21  25
ENDBRANCH  17  21
ENDBRANCH  11  15
ENDBRANCH   6   7
ENDBRANCH   5   6
ENDBRANCH   4   5
ENDBRANCH   3   4
ENDBRANCH   2   3
TORSDOF 13
ENDMDL
MODEL       99
REMARK 921   NORMALIZED FREE ENERGY PREDICTED BY IDOCK:   -4.15 KCAL/MOL
REMARK 922        TOTAL FREE ENERGY PREDICTED BY IDOCK:   -9.62 KCAL/MOL
REMARK 923 INTER-LIGAND FREE ENERGY PREDICTED BY IDOCK:  -10.11 KCAL/MOL
REMARK 924 INTRA-LIGAND FREE ENERGY PREDICTED BY IDOCK:    0.49 KCAL/MOL
REMARK 927      BINDING AFFINITY PREDICTED BY RF-SCORE:    0.00 PKD
ROOT
HETATM    1  C   UNL     1      -8.403   6.720  67.796  1.00  0.00    -0.119 C  
HETATM    2  O   UNL     1      -7.061   6.707  68.265  1.00  0.00    -0.077 OA 
ENDROOT
BRANCH   2   3
HETATM    3  C   UNL     1      -6.551   8.032  68.399  1.00  0.00    -0.059 C  
BRANCH   3   4
HETATM    4  C   UNL     1      -5.582   8.325  67.261  1.00  0.00    -0.038 C  
BRANCH   4   5
HETATM    5  C   UNL     1      -5.704   9.739  66.692  1.00  0.00    -0.053 C  
BRANCH   5   6
HETATM    6  O   UNL     1      -5.767   9.693  65.270  1.00  0.00    -0.058 OA 
BRANCH   6   7
HETATM    7  C   UNL     1      -6.984   9.672  64.632  1.00  0.00    -0.112 A  
HETATM    8  C   UNL     1      -6.966   9.149  63.321  1.00  0.00    -0.089 A  
HETATM    9  C   UNL     1      -8.120   9.221  62.536  1.00  0.00    -0.145 A  
HETATM   10  C   UNL     1      -8.152  10.258  65.136  1.00  0.00    -0.151 A  
HETATM   11  C   UNL     1      -9.287  10.404  64.316  1.00  0.00    -0.324 A  
HETATM   12  C   UNL     1      -9.261   9.863  63.027  1.00  0.00    -0.284 A  
BRANCH   8  13
HETATM   13  O   UNL     1      -5.775   8.608  62.902  1.00  0.00    -0.073 OA 
HETATM   14  C   UNL     1      -5.723   7.203  62.696  1.00  0.00    -0.041 C  
ENDBRANCH   8  13
BRANCH  11  15
HETATM   15  C   UNL     1     -10.426  11.314  64.726  1.00  0.00    -0.384 C  
HETATM   16  C   UNL     1     -10.326  12.232  65.972  1.00  0.00    -0.273 C  
HETATM   17  C   UNL     1     -11.566  13.205  66.001  1.00  0.00    -0.393 C  
HETATM   18  C   UNL     1     -10.233  11.515  67.354  1.00  0.00    -0.228 C  
HETATM   19  C   UNL     1      -8.898  10.802  67.578  1.00  0.00    -0.128 C  
HETATM   20  C   UNL     1     -11.401  10.569  67.642  1.00  0.00    -0.233 C  
BRANCH  17  21
HETATM   21  C   UNL     1     -11.674  14.185  64.816  1.00  0.00    -0.410 C  
HETATM   22  N   UNL     1     -11.223  13.472  63.615  1.00  0.00    -0.508 NA 
HETATM   23  H1  UNL     1     -11.294  14.120  62.831  1.00  0.00     0.000 HD 
HETATM   24  H2  UNL     1     -11.726  12.599  63.457  1.00  0.00     0.000 HD 
BRANCH  21  25
HETATM   25  C   UNL     1     -10.888  15.535  65.029  1.00  0.00    -0.450 C  
HETATM   26  H   UNL     1     -10.909  17.391  64.330  1.00  0.00     0.000 HD 
HETATM   27  O   UNL     1     -11.383  16.578  64.202  1.00  0.00    -1.060 OA 
BRANCH  25  28
HETATM   28  C   UNL     1     -10.976  15.922  66.519  1.00  0.00    -0.121 C  
HETATM   29  C   UNL     1     -10.062  15.265  67.579  1.00  0.00    -0.232 C  
HETATM   30  C   UNL     1     -10.547  15.864  68.915  1.00  0.00    -0.244 C  
HETATM   31  C   UNL     1      -8.534  15.482  67.380  1.00  0.00    -0.199 C  
HETATM   32  C   UNL     1      -7.671  14.722  68.397  1.00  0.00    -0.122 C  
HETATM   33  O   UNL     1     -10.881  17.040  69.046  1.00  0.00    -0.304 OA 
HETATM   34  N   UNL     1     -10.573  14.984  69.975  1.00  0.00    -0.437 N  
HETATM   35  C   UNL     1      -8.131  16.961  67.334  1.00  0.00    -0.193 C  
HETATM   36  H   UNL     1     -10.205  14.040  69.859  1.00  0.00     0.000 HD 
BRANCH  34  37
HETATM   37  C   UNL     1     -11.121  15.392  71.256  1.00  0.00    -0.286 C  
BRANCH  37  38
HETATM   38  C   UNL     1     -12.507  14.795  71.551  1.00  0.00    -0.403 C  
HETATM   39  C   UNL     1     -13.514  15.269  70.482  1.00  0.00    -0.128 C  
HETATM   40  C   UNL     1     -12.451  13.258  71.548  1.00  0.00    -0.224 C  
BRANCH  38  41
HETATM   41  C   UNL     1     -12.982  15.294  72.923  1.00  0.00    -0.463 C  
HETATM   42  N   UNL     1     -12.211  14.988  74.000  1.00  0.00    -0.561 N  
HETATM   43  O   UNL     1     -14.005  15.954  73.090  1.00  0.00    -0.500 OA 
HETATM   44  H2  UNL     1     -11.351  14.448  73.901  1.00  0.00     0.000 HD 
HETATM   45  H1  UNL     1     -12.526  15.319  74.911  1.00  0.00     0.000 HD 
ENDBRANCH  38  41
ENDBRANCH  37  38
ENDBRANCH  34  37
ENDBRANCH  25  28
ENDBRANCH  21  25
ENDBRANCH  17  21
ENDBRANCH  11  15
ENDBRANCH   6   7
ENDBRANCH   5   6
ENDBRANCH   4   5
ENDBRANCH   3   4
ENDBRANCH   2   3
TORSDOF 13
ENDMDL
MODEL      100
REMARK 921   NORMALIZED FREE ENERGY PREDICTED BY IDOCK:   -4.12 KCAL/MOL
REMARK 922        TOTAL FREE ENERGY PREDICTED BY IDOCK:   -9.57 KCAL/MOL
REMARK 923 INTER-LIGAND FREE ENERGY PREDICTED BY IDOCK:   -9.11 KCAL/MOL
REMARK 924 INTRA-LIGAND FREE ENERGY PREDICTED BY IDOCK:   -0.46 KCAL/MOL
REMARK 927      BINDING AFFINITY PREDICTED BY RF-SCORE:    0.00 PKD
ROOT
HETATM    1  C   UNL     1      -8.196   4.907  66.150  1.00  0.00    -0.108 C  
HETATM    2  O   UNL     1      -9.303   5.710  66.535  1.00  0.00    -0.140 OA 
ENDROOT
BRANCH   2   3
HETATM    3  C   UNL     1      -9.363   5.856  67.953  1.00  0.00    -0.107 C  
BRANCH   3   4
HETATM    4  C   UNL     1     -10.789   6.184  68.374  1.00  0.00    -0.382 C  
BRANCH   4   5
HETATM    5  C   UNL     1     -11.062   5.965  69.862  1.00  0.00    -0.347 C  
BRANCH   5   6
HETATM    6  O   UNL     1     -10.550   7.055  70.622  1.00  0.00    -0.218 OA 
BRANCH   6   7
HETATM    7  C   UNL     1     -11.101   8.306  70.493  1.00  0.00    -0.249 A  
HETATM    8  C   UNL     1     -12.456   8.409  70.874  1.00  0.00     0.011 A  
HETATM    9  C   UNL     1     -13.148   9.600  70.641  1.00  0.00    -0.010 A  
HETATM   10  C   UNL     1     -10.462   9.394  69.885  1.00  0.00    -0.257 A  
HETATM   11  C   UNL     1     -11.183  10.563  69.576  1.00  0.00    -0.329 A  
HETATM   12  C   UNL     1     -12.518  10.657  69.978  1.00  0.00    -0.294 A  
BRANCH   8  13
HETATM   13  O   UNL     1     -13.009   7.290  71.449  1.00  0.00    -0.371 OA 
HETATM   14  C   UNL     1     -14.365   7.361  71.866  1.00  0.00    -0.373 C  
ENDBRANCH   8  13
BRANCH  11  15
HETATM   15  C   UNL     1     -10.605  11.604  68.638  1.00  0.00    -0.236 C  
HETATM   16  C   UNL     1      -9.839  11.203  67.351  1.00  0.00    -0.195 C  
HETATM   17  C   UNL     1      -9.565  12.493  66.488  1.00  0.00    -0.242 C  
HETATM   18  C   UNL     1      -8.487  10.453  67.555  1.00  0.00    -0.115 C  
HETATM   19  C   UNL     1      -8.659   9.027  68.084  1.00  0.00    -0.130 C  
HETATM   20  C   UNL     1      -7.474  11.222  68.406  1.00  0.00    -0.108 C  
BRANCH  17  21
HETATM   21  C   UNL     1     -10.816  13.229  65.969  1.00  0.00    -0.273 C  
HETATM   22  N   UNL     1     -11.261  12.535  64.754  1.00  0.00    -0.296 NA 
HETATM   23  H1  UNL     1     -12.088  13.022  64.411  1.00  0.00     0.000 HD 
HETATM   24  H2  UNL     1     -11.416  11.538  64.899  1.00  0.00     0.000 HD 
BRANCH  21  25
HETATM   25  C   UNL     1     -10.595  14.769  65.720  1.00  0.00    -0.327 C  
HETATM   26  H   UNL     1     -11.291  16.196  64.531  1.00  0.00     0.000 HD 
HETATM   27  O   UNL     1     -11.425  15.268  64.682  1.00  0.00    -0.406 OA 
BRANCH  25  28
HETATM   28  C   UNL     1     -10.851  15.521  67.042  1.00  0.00    -0.314 C  
HETATM   29  C   UNL     1     -10.138  15.114  68.353  1.00  0.00    -0.225 C  
HETATM   30  C   UNL     1     -10.751  16.047  69.417  1.00  0.00    -0.294 C  
HETATM   31  C   UNL     1      -8.585  15.214  68.335  1.00  0.00    -0.159 C  
HETATM   32  C   UNL     1      -7.926  14.699  69.622  1.00  0.00     0.138 C  
HETATM   33  O   UNL     1     -11.010  17.232  69.208  1.00  0.00    -0.067 OA 
HETATM   34  N   UNL     1     -10.984  15.463  70.642  1.00  0.00    -0.386 N  
HETATM   35  C   UNL     1      -8.070  16.616  67.993  1.00  0.00    -0.181 C  
HETATM   36  H   UNL     1     -10.676  14.506  70.814  1.00  0.00     0.000 HD 
BRANCH  34  37
HETATM   37  C   UNL     1     -11.665  16.201  71.691  1.00  0.00    -0.484 C  
BRANCH  37  38
HETATM   38  C   UNL     1     -12.650  15.345  72.504  1.00  0.00    -0.475 C  
HETATM   39  C   UNL     1     -11.908  14.677  73.682  1.00  0.00    -0.042 C  
HETATM   40  C   UNL     1     -13.799  16.207  73.054  1.00  0.00    -0.231 C  
BRANCH  38  41
HETATM   41  C   UNL     1     -13.217  14.242  71.599  1.00  0.00    -0.356 C  
HETATM   42  N   UNL     1     -13.395  13.011  72.151  1.00  0.00    -0.522 N  
HETATM   43  O   UNL     1     -13.520  14.417  70.421  1.00  0.00    -0.008 OA 
HETATM   44  H2  UNL     1     -13.162  12.829  73.127  1.00  0.00     0.000 HD 
HETATM   45  H1  UNL     1     -13.771  12.279  71.549  1.00  0.00     0.000 HD 
ENDBRANCH  38  41
ENDBRANCH  37  38
ENDBRANCH  34  37
ENDBRANCH  25  28
ENDBRANCH  21  25
ENDBRANCH  17  21
ENDBRANCH  11  15
ENDBRANCH   6   7
ENDBRANCH   5   6
ENDBRANCH   4   5
ENDBRANCH   3   4
ENDBRANCH   2   3
TORSDOF 13
ENDMDL
MODEL      101
REMARK 921   NORMALIZED FREE ENERGY PREDICTED BY IDOCK:   -4.11 KCAL/MOL
REMARK 922        TOTAL FREE ENERGY PREDICTED BY IDOCK:   -9.54 KCAL/MOL
REMARK 923 INTER-LIGAND FREE ENERGY PREDICTED BY IDOCK:   -7.68 KCAL/MOL
REMARK 924 INTRA-LIGAND FREE ENERGY PREDICTED BY IDOCK:   -1.86 KCAL/MOL
REMARK 927      BINDING AFFINITY PREDICTED BY RF-SCORE:    0.00 PKD
ROOT
HETATM    1  C   UNL     1     -13.858  15.248  71.379  1.00  0.00    -0.515 C  
HETATM    2  O   UNL     1     -12.762  15.733  70.616  1.00  0.00    -0.439 OA 
ENDROOT
BRANCH   2   3
HETATM    3  C   UNL     1     -12.153  14.684  69.866  1.00  0.00    -0.335 C  
BRANCH   3   4
HETATM    4  C   UNL     1     -11.102  15.266  68.931  1.00  0.00    -0.269 C  
BRANCH   4   5
HETATM    5  C   UNL     1     -10.151  14.224  68.342  1.00  0.00    -0.243 C  
BRANCH   5   6
HETATM    6  O   UNL     1     -10.556  13.880  67.020  1.00  0.00    -0.276 OA 
BRANCH   6   7
HETATM    7  C   UNL     1     -10.034  12.769  66.404  1.00  0.00    -0.265 A  
HETATM    8  C   UNL     1     -10.848  12.199  65.402  1.00  0.00    -0.294 A  
HETATM    9  C   UNL     1     -10.475  10.983  64.822  1.00  0.00    -0.384 A  
HETATM   10  C   UNL     1      -8.864  12.115  66.811  1.00  0.00    -0.198 A  
HETATM   11  C   UNL     1      -8.534  10.851  66.285  1.00  0.00    -0.166 A  
HETATM   12  C   UNL     1      -9.339  10.310  65.278  1.00  0.00    -0.267 A  
BRANCH   8  13
HETATM   13  O   UNL     1     -11.985  12.899  65.076  1.00  0.00    -0.356 OA 
HETATM   14  C   UNL     1     -12.324  13.007  63.701  1.00  0.00    -0.417 C  
ENDBRANCH   8  13
BRANCH  11  15
HETATM   15  C   UNL     1      -7.470   9.994  66.940  1.00  0.00    -0.095 C  
HETATM   16  C   UNL     1      -7.830   8.914  67.993  1.00  0.00    -0.102 C  
HETATM   17  C   UNL     1      -6.549   8.054  68.313  1.00  0.00    -0.056 C  
HETATM   18  C   UNL     1      -8.422   9.432  69.340  1.00  0.00    -0.142 C  
HETATM   19  C   UNL     1      -9.838   9.994  69.203  1.00  0.00    -0.213 C  
HETATM   20  C   UNL     1      -7.519  10.427  70.073  1.00  0.00    -0.088 C  
BRANCH  17  21
HETATM   21  C   UNL     1      -5.970   7.251  67.130  1.00  0.00    -0.041 C  
HETATM   22  N   UNL     1      -5.174   8.179  66.318  1.00  0.00    -0.025 NA 
HETATM   23  H1  UNL     1      -4.792   7.648  65.536  1.00  0.00     0.000 HD 
HETATM   24  H2  UNL     1      -4.459   8.667  66.857  1.00  0.00     0.000 HD 
BRANCH  21  25
HETATM   25  C   UNL     1      -7.059   6.503  66.272  1.00  0.00    -0.067 C  
HETATM   26  H   UNL     1      -7.207   5.624  64.500  1.00  0.00     0.000 HD 
HETATM   27  O   UNL     1      -6.550   6.075  65.018  1.00  0.00    -0.041 OA 
BRANCH  25  28
HETATM   28  C   UNL     1      -7.592   5.309  67.090  1.00  0.00    -0.092 C  
HETATM   29  C   UNL     1      -8.737   5.479  68.115  1.00  0.00    -0.102 C  
HETATM   30  C   UNL     1      -8.876   4.083  68.756  1.00  0.00    -0.106 C  
HETATM   31  C   UNL     1     -10.093   5.977  67.535  1.00  0.00    -0.190 C  
HETATM   32  C   UNL     1     -11.160   6.229  68.610  1.00  0.00    -0.409 C  
HETATM   33  O   UNL     1      -8.782   3.035  68.119  1.00  0.00    -0.090 OA 
HETATM   34  N   UNL     1      -9.129   4.084  70.110  1.00  0.00    -0.104 N  
HETATM   35  C   UNL     1     -10.649   5.074  66.429  1.00  0.00    -0.317 C  
HETATM   36  H   UNL     1      -9.292   4.966  70.594  1.00  0.00     0.000 HD 
BRANCH  34  37
HETATM   37  C   UNL     1      -9.164   2.836  70.852  1.00  0.00    -0.136 C  
BRANCH  37  38
HETATM   38  C   UNL     1      -9.712   2.986  72.281  1.00  0.00    -0.225 C  
HETATM   39  C   UNL     1     -10.430   4.346  72.421  1.00  0.00    -0.219 C  
HETATM   40  C   UNL     1     -10.701   1.856  72.609  1.00  0.00    -0.188 C  
BRANCH  38  41
HETATM   41  C   UNL     1      -8.538   2.952  73.270  1.00  0.00    -0.079 C  
HETATM   42  N   UNL     1      -7.865   4.115  73.481  1.00  0.00    -0.084 N  
HETATM   43  O   UNL     1      -8.188   1.942  73.877  1.00  0.00    -0.049 OA 
HETATM   44  H2  UNL     1      -8.130   4.976  73.002  1.00  0.00     0.000 HD 
HETATM   45  H1  UNL     1      -7.086   4.092  74.138  1.00  0.00     0.000 HD 
ENDBRANCH  38  41
ENDBRANCH  37  38
ENDBRANCH  34  37
ENDBRANCH  25  28
ENDBRANCH  21  25
ENDBRANCH  17  21
ENDBRANCH  11  15
ENDBRANCH   6   7
ENDBRANCH   5   6
ENDBRANCH   4   5
ENDBRANCH   3   4
ENDBRANCH   2   3
TORSDOF 13
ENDMDL
MODEL      102
REMARK 921   NORMALIZED FREE ENERGY PREDICTED BY IDOCK:   -4.10 KCAL/MOL
REMARK 922        TOTAL FREE ENERGY PREDICTED BY IDOCK:   -9.52 KCAL/MOL
REMARK 923 INTER-LIGAND FREE ENERGY PREDICTED BY IDOCK:   -8.38 KCAL/MOL
REMARK 924 INTRA-LIGAND FREE ENERGY PREDICTED BY IDOCK:   -1.14 KCAL/MOL
REMARK 927      BINDING AFFINITY PREDICTED BY RF-SCORE:    0.00 PKD
ROOT
HETATM    1  C   UNL     1     -14.085  15.551  72.398  1.00  0.00    -0.536 C  
HETATM    2  O   UNL     1     -13.511  14.391  72.985  1.00  0.00    -0.615 OA 
ENDROOT
BRANCH   2   3
HETATM    3  C   UNL     1     -14.030  13.203  72.389  1.00  0.00    -0.397 C  
BRANCH   3   4
HETATM    4  C   UNL     1     -12.953  12.546  71.536  1.00  0.00    -0.379 C  
BRANCH   4   5
HETATM    5  C   UNL     1     -13.018  11.019  71.524  1.00  0.00    -0.448 C  
BRANCH   5   6
HETATM    6  O   UNL     1     -12.669  10.521  70.236  1.00  0.00    -0.310 OA 
BRANCH   6   7
HETATM    7  C   UNL     1     -11.406  10.037  70.001  1.00  0.00    -0.275 A  
HETATM    8  C   UNL     1     -10.948  10.170  68.672  1.00  0.00    -0.230 A  
HETATM    9  C   UNL     1      -9.739   9.577  68.298  1.00  0.00    -0.163 A  
HETATM   10  C   UNL     1     -10.650   9.313  70.931  1.00  0.00    -0.366 A  
HETATM   11  C   UNL     1      -9.475   8.647  70.532  1.00  0.00    -0.206 A  
HETATM   12  C   UNL     1      -9.025   8.806  69.218  1.00  0.00    -0.144 A  
BRANCH   8  13
HETATM   13  O   UNL     1     -11.760  10.883  67.822  1.00  0.00    -0.569 OA 
HETATM   14  C   UNL     1     -11.244  11.219  66.542  1.00  0.00    -0.152 C  
ENDBRANCH   8  13
BRANCH  11  15
HETATM   15  C   UNL     1      -8.833   7.607  71.427  1.00  0.00    -0.141 C  
HETATM   16  C   UNL     1      -9.048   6.089  71.194  1.00  0.00    -0.153 C  
HETATM   17  C   UNL     1      -8.082   5.277  72.138  1.00  0.00    -0.114 C  
HETATM   18  C   UNL     1     -10.499   5.556  71.401  1.00  0.00    -0.305 C  
HETATM   19  C   UNL     1     -11.475   6.019  70.318  1.00  0.00    -0.245 C  
HETATM   20  C   UNL     1     -11.070   5.836  72.793  1.00  0.00    -0.327 C  
BRANCH  17  21
HETATM   21  C   UNL     1      -6.574   5.488  71.893  1.00  0.00    -0.056 C  
HETATM   22  N   UNL     1      -6.351   6.932  71.753  1.00  0.00    -0.041 NA 
HETATM   23  H1  UNL     1      -5.354   7.071  71.591  1.00  0.00     0.000 HD 
HETATM   24  H2  UNL     1      -6.705   7.469  72.545  1.00  0.00     0.000 HD 
BRANCH  21  25
HETATM   25  C   UNL     1      -6.008   4.682  70.663  1.00  0.00    -0.017 C  
HETATM   26  H   UNL     1      -5.646   2.798  70.161  1.00  0.00     0.000 HD 
HETATM   27  O   UNL     1      -5.988   3.283  70.903  1.00  0.00    -0.016 OA 
BRANCH  25  28
HETATM   28  C   UNL     1      -6.861   5.019  69.423  1.00  0.00    -0.053 C  
HETATM   29  C   UNL     1      -7.078   3.989  68.289  1.00  0.00    -0.055 C  
HETATM   30  C   UNL     1      -7.890   4.763  67.231  1.00  0.00    -0.094 C  
HETATM   31  C   UNL     1      -7.793   2.670  68.704  1.00  0.00    -0.058 C  
HETATM   32  C   UNL     1      -7.887   1.644  67.567  1.00  0.00    -0.059 C  
HETATM   33  O   UNL     1      -8.789   5.553  67.515  1.00  0.00    -0.108 OA 
HETATM   34  N   UNL     1      -7.547   4.501  65.924  1.00  0.00    -0.085 N  
HETATM   35  C   UNL     1      -9.171   2.899  69.335  1.00  0.00    -0.212 C  
HETATM   36  H   UNL     1      -6.861   3.775  65.716  1.00  0.00     0.000 HD 
BRANCH  34  37
HETATM   37  C   UNL     1      -8.154   5.251  64.839  1.00  0.00    -0.122 C  
BRANCH  37  38
HETATM   38  C   UNL     1      -8.689   4.364  63.702  1.00  0.00    -0.129 C  
HETATM   39  C   UNL     1      -8.625   5.137  62.367  1.00  0.00    -0.114 C  
HETATM   40  C   UNL     1      -7.861   3.074  63.580  1.00  0.00    -0.073 C  
BRANCH  38  41
HETATM   41  C   UNL     1     -10.155   4.014  63.992  1.00  0.00    -0.153 C  
HETATM   42  N   UNL     1     -10.727   4.580  65.089  1.00  0.00    -0.630 N  
HETATM   43  O   UNL     1     -10.829   3.266  63.287  1.00  0.00    -0.227 OA 
HETATM   44  H2  UNL     1     -10.203   5.211  65.694  1.00  0.00     0.000 HD 
HETATM   45  H1  UNL     1     -11.701   4.347  65.281  1.00  0.00     0.000 HD 
ENDBRANCH  38  41
ENDBRANCH  37  38
ENDBRANCH  34  37
ENDBRANCH  25  28
ENDBRANCH  21  25
ENDBRANCH  17  21
ENDBRANCH  11  15
ENDBRANCH   6   7
ENDBRANCH   5   6
ENDBRANCH   4   5
ENDBRANCH   3   4
ENDBRANCH   2   3
TORSDOF 13
ENDMDL
MODEL      103
REMARK 921   NORMALIZED FREE ENERGY PREDICTED BY IDOCK:   -4.04 KCAL/MOL
REMARK 922        TOTAL FREE ENERGY PREDICTED BY IDOCK:   -9.43 KCAL/MOL
REMARK 923 INTER-LIGAND FREE ENERGY PREDICTED BY IDOCK:   -7.81 KCAL/MOL
REMARK 924 INTRA-LIGAND FREE ENERGY PREDICTED BY IDOCK:   -1.62 KCAL/MOL
REMARK 927      BINDING AFFINITY PREDICTED BY RF-SCORE:    0.00 PKD
ROOT
HETATM    1  C   UNL     1     -12.899  13.974  65.568  1.00  0.00    -0.419 C  
HETATM    2  O   UNL     1     -13.091  12.812  64.773  1.00  0.00    -0.813 OA 
ENDROOT
BRANCH   2   3
HETATM    3  C   UNL     1     -12.489  12.963  63.488  1.00  0.00    -0.338 C  
BRANCH   3   4
HETATM    4  C   UNL     1     -11.475  11.850  63.264  1.00  0.00    -0.376 C  
BRANCH   4   5
HETATM    5  C   UNL     1     -10.036  12.247  63.593  1.00  0.00    -0.344 C  
BRANCH   5   6
HETATM    6  O   UNL     1      -9.720  11.884  64.934  1.00  0.00    -0.223 OA 
BRANCH   6   7
HETATM    7  C   UNL     1      -9.771  10.568  65.325  1.00  0.00    -0.270 A  
HETATM    8  C   UNL     1     -10.437  10.329  66.546  1.00  0.00    -0.173 A  
HETATM    9  C   UNL     1     -10.414   9.048  67.103  1.00  0.00    -0.333 A  
HETATM   10  C   UNL     1      -9.093   9.525  64.683  1.00  0.00    -0.263 A  
HETATM   11  C   UNL     1      -9.001   8.256  65.286  1.00  0.00    -0.007 A  
HETATM   12  C   UNL     1      -9.683   8.030  66.484  1.00  0.00    -0.297 A  
BRANCH   8  13
HETATM   13  O   UNL     1     -11.063  11.412  67.115  1.00  0.00    -0.276 OA 
HETATM   14  C   UNL     1     -10.657  11.800  68.420  1.00  0.00    -0.216 C  
ENDBRANCH   8  13
BRANCH  11  15
HETATM   15  C   UNL     1      -8.012   7.227  64.777  1.00  0.00    -0.122 C  
HETATM   16  C   UNL     1      -6.779   6.800  65.614  1.00  0.00    -0.051 C  
HETATM   17  C   UNL     1      -6.081   5.569  64.920  1.00  0.00    -0.022 C  
HETATM   18  C   UNL     1      -5.700   7.897  65.866  1.00  0.00    -0.037 C  
HETATM   19  C   UNL     1      -6.166   8.996  66.825  1.00  0.00    -0.062 C  
HETATM   20  C   UNL     1      -5.127   8.510  64.586  1.00  0.00    -0.035 C  
BRANCH  17  21
HETATM   21  C   UNL     1      -6.932   4.287  64.819  1.00  0.00    -0.050 C  
HETATM   22  N   UNL     1      -8.223   4.664  64.230  1.00  0.00    -0.107 NA 
HETATM   23  H1  UNL     1      -8.786   3.817  64.163  1.00  0.00     0.000 HD 
HETATM   24  H2  UNL     1      -8.128   5.151  63.338  1.00  0.00     0.000 HD 
BRANCH  21  25
HETATM   25  C   UNL     1      -7.109   3.528  66.188  1.00  0.00    -0.063 C  
HETATM   26  H   UNL     1      -6.049   2.347  67.379  1.00  0.00     0.000 HD 
HETATM   27  O   UNL     1      -5.943   2.806  66.554  1.00  0.00    -0.022 OA 
BRANCH  25  28
HETATM   28  C   UNL     1      -7.486   4.556  67.273  1.00  0.00    -0.078 C  
HETATM   29  C   UNL     1      -8.559   4.245  68.342  1.00  0.00    -0.109 C  
HETATM   30  C   UNL     1      -8.681   5.558  69.143  1.00  0.00    -0.103 C  
HETATM   31  C   UNL     1      -8.252   3.037  69.274  1.00  0.00    -0.077 C  
HETATM   32  C   UNL     1      -9.396   2.708  70.244  1.00  0.00    -0.201 C  
HETATM   33  O   UNL     1      -7.717   6.262  69.437  1.00  0.00    -0.096 OA 
HETATM   34  N   UNL     1      -9.962   5.893  69.524  1.00  0.00    -0.173 N  
HETATM   35  C   UNL     1      -6.929   3.176  70.034  1.00  0.00    -0.034 C  
HETATM   36  H   UNL     1     -10.729   5.246  69.345  1.00  0.00     0.000 HD 
BRANCH  34  37
HETATM   37  C   UNL     1     -10.226   7.161  70.179  1.00  0.00    -0.195 C  
BRANCH  37  38
HETATM   38  C   UNL     1     -10.682   7.015  71.641  1.00  0.00    -0.244 C  
HETATM   39  C   UNL     1      -9.835   5.931  72.342  1.00  0.00    -0.182 C  
HETATM   40  C   UNL     1     -10.527   8.346  72.397  1.00  0.00    -0.402 C  
BRANCH  38  41
HETATM   41  C   UNL     1     -12.152   6.574  71.662  1.00  0.00    -0.328 C  
HETATM   42  N   UNL     1     -12.536   5.732  72.658  1.00  0.00    -0.412 N  
HETATM   43  O   UNL     1     -12.987   6.947  70.841  1.00  0.00    -0.256 OA 
HETATM   44  H2  UNL     1     -11.875   5.406  73.363  1.00  0.00     0.000 HD 
HETATM   45  H1  UNL     1     -13.513   5.439  72.673  1.00  0.00     0.000 HD 
ENDBRANCH  38  41
ENDBRANCH  37  38
ENDBRANCH  34  37
ENDBRANCH  25  28
ENDBRANCH  21  25
ENDBRANCH  17  21
ENDBRANCH  11  15
ENDBRANCH   6   7
ENDBRANCH   5   6
ENDBRANCH   4   5
ENDBRANCH   3   4
ENDBRANCH   2   3
TORSDOF 13
ENDMDL
MODEL      104
REMARK 921   NORMALIZED FREE ENERGY PREDICTED BY IDOCK:   -4.04 KCAL/MOL
REMARK 922        TOTAL FREE ENERGY PREDICTED BY IDOCK:   -9.42 KCAL/MOL
REMARK 923 INTER-LIGAND FREE ENERGY PREDICTED BY IDOCK:   -8.61 KCAL/MOL
REMARK 924 INTRA-LIGAND FREE ENERGY PREDICTED BY IDOCK:   -0.81 KCAL/MOL
REMARK 927      BINDING AFFINITY PREDICTED BY RF-SCORE:    0.00 PKD
ROOT
HETATM    1  C   UNL     1      -6.731  14.111  68.963  1.00  0.00    -0.107 C  
HETATM    2  O   UNL     1      -5.841  14.462  67.911  1.00  0.00    -0.136 OA 
ENDROOT
BRANCH   2   3
HETATM    3  C   UNL     1      -5.656  15.875  67.845  1.00  0.00    -0.136 C  
BRANCH   3   4
HETATM    4  C   UNL     1      -6.930  16.535  67.336  1.00  0.00    -0.186 C  
BRANCH   4   5
HETATM    5  C   UNL     1      -7.622  17.424  68.369  1.00  0.00    -0.255 C  
BRANCH   5   6
HETATM    6  O   UNL     1      -9.035  17.372  68.195  1.00  0.00    -0.245 OA 
BRANCH   6   7
HETATM    7  C   UNL     1      -9.595  16.431  67.366  1.00  0.00    -0.231 A  
HETATM    8  C   UNL     1     -10.038  16.917  66.117  1.00  0.00    -0.333 A  
HETATM    9  C   UNL     1     -10.754  16.073  65.264  1.00  0.00    -0.417 A  
HETATM   10  C   UNL     1      -9.877  15.112  67.741  1.00  0.00    -0.223 A  
HETATM   11  C   UNL     1     -10.669  14.289  66.918  1.00  0.00    -0.290 A  
HETATM   12  C   UNL     1     -11.082  14.778  65.676  1.00  0.00    -0.342 A  
BRANCH   8  13
HETATM   13  O   UNL     1      -9.732  18.228  65.835  1.00  0.00    -0.516 OA 
HETATM   14  C   UNL     1     -10.782  19.182  65.907  1.00  0.00    -0.351 C  
ENDBRANCH   8  13
BRANCH  11  15
HETATM   15  C   UNL     1     -11.251  12.994  67.448  1.00  0.00    -0.325 C  
HETATM   16  C   UNL     1     -10.351  11.884  68.049  1.00  0.00    -0.209 C  
HETATM   17  C   UNL     1     -11.261  10.778  68.707  1.00  0.00    -0.331 C  
HETATM   18  C   UNL     1      -9.364  11.184  67.064  1.00  0.00    -0.182 C  
HETATM   19  C   UNL     1      -8.215  12.089  66.614  1.00  0.00    -0.056 C  
HETATM   20  C   UNL     1     -10.046  10.542  65.854  1.00  0.00    -0.323 C  
BRANCH  17  21
HETATM   21  C   UNL     1     -12.128  11.245  69.893  1.00  0.00    -0.341 C  
HETATM   22  N   UNL     1     -11.684  12.596  70.255  1.00  0.00    -0.552 NA 
HETATM   23  H1  UNL     1     -12.257  12.905  71.040  1.00  0.00     0.000 HD 
HETATM   24  H2  UNL     1     -11.700  13.246  69.469  1.00  0.00     0.000 HD 
BRANCH  21  25
HETATM   25  C   UNL     1     -12.104  10.266  71.127  1.00  0.00    -0.395 C  
HETATM   26  H   UNL     1     -13.320   8.986  72.032  1.00  0.00     0.000 HD 
HETATM   27  O   UNL     1     -13.334   9.576  71.287  1.00  0.00    -0.363 OA 
BRANCH  25  28
HETATM   28  C   UNL     1     -10.935   9.277  70.945  1.00  0.00    -0.368 C  
HETATM   29  C   UNL     1     -10.923   7.902  71.652  1.00  0.00    -0.280 C  
HETATM   30  C   UNL     1      -9.554   7.299  71.275  1.00  0.00    -0.162 C  
HETATM   31  C   UNL     1     -12.090   6.942  71.278  1.00  0.00    -0.419 C  
HETATM   32  C   UNL     1     -12.089   5.636  72.085  1.00  0.00     0.114 C  
HETATM   33  O   UNL     1      -9.050   7.413  70.159  1.00  0.00    -0.148 OA 
HETATM   34  N   UNL     1      -8.925   6.602  72.284  1.00  0.00    -0.134 N  
HETATM   35  C   UNL     1     -12.174   6.644  69.777  1.00  0.00     0.447 C  
HETATM   36  H   UNL     1      -9.407   6.447  73.169  1.00  0.00     0.000 HD 
BRANCH  34  37
HETATM   37  C   UNL     1      -7.581   6.088  72.094  1.00  0.00    -0.097 C  
BRANCH  37  38
HETATM   38  C   UNL     1      -6.523   6.801  72.952  1.00  0.00    -0.062 C  
HETATM   39  C   UNL     1      -6.456   6.142  74.347  1.00  0.00    -0.071 C  
HETATM   40  C   UNL     1      -5.138   6.723  72.288  1.00  0.00    -0.032 C  
BRANCH  38  41
HETATM   41  C   UNL     1      -6.932   8.270  73.128  1.00  0.00    -0.107 C  
HETATM   42  N   UNL     1      -7.344   8.660  74.364  1.00  0.00    -0.133 N  
HETATM   43  O   UNL     1      -6.898   9.100  72.222  1.00  0.00    -0.312 OA 
HETATM   44  H2  UNL     1      -7.380   8.003  75.143  1.00  0.00     0.000 HD 
HETATM   45  H1  UNL     1      -7.616   9.635  74.481  1.00  0.00     0.000 HD 
ENDBRANCH  38  41
ENDBRANCH  37  38
ENDBRANCH  34  37
ENDBRANCH  25  28
ENDBRANCH  21  25
ENDBRANCH  17  21
ENDBRANCH  11  15
ENDBRANCH   6   7
ENDBRANCH   5   6
ENDBRANCH   4   5
ENDBRANCH   3   4
ENDBRANCH   2   3
TORSDOF 13
ENDMDL
MODEL      105
REMARK 921   NORMALIZED FREE ENERGY PREDICTED BY IDOCK:   -4.01 KCAL/MOL
REMARK 922        TOTAL FREE ENERGY PREDICTED BY IDOCK:   -9.36 KCAL/MOL
REMARK 923 INTER-LIGAND FREE ENERGY PREDICTED BY IDOCK:   -7.71 KCAL/MOL
REMARK 924 INTRA-LIGAND FREE ENERGY PREDICTED BY IDOCK:   -1.65 KCAL/MOL
REMARK 927      BINDING AFFINITY PREDICTED BY RF-SCORE:    0.00 PKD
ROOT
HETATM    1  C   UNL     1     -12.609  13.611  71.317  1.00  0.00    -0.351 C  
HETATM    2  O   UNL     1     -11.937  12.633  70.536  1.00  0.00    -0.325 OA 
ENDROOT
BRANCH   2   3
HETATM    3  C   UNL     1     -12.273  11.314  70.964  1.00  0.00    -0.311 C  
BRANCH   3   4
HETATM    4  C   UNL     1     -11.185  10.341  70.529  1.00  0.00    -0.408 C  
BRANCH   4   5
HETATM    5  C   UNL     1     -11.416   8.905  70.997  1.00  0.00    -0.294 C  
BRANCH   5   6
HETATM    6  O   UNL     1     -10.173   8.285  71.314  1.00  0.00    -0.190 OA 
BRANCH   6   7
HETATM    7  C   UNL     1      -9.755   7.178  70.616  1.00  0.00    -0.175 A  
HETATM    8  C   UNL     1      -9.732   5.975  71.354  1.00  0.00    -0.164 A  
HETATM    9  C   UNL     1      -9.182   4.826  70.779  1.00  0.00    -0.195 A  
HETATM   10  C   UNL     1      -9.227   7.213  69.319  1.00  0.00    -0.140 A  
HETATM   11  C   UNL     1      -8.600   6.077  68.774  1.00  0.00    -0.112 A  
HETATM   12  C   UNL     1      -8.603   4.888  69.508  1.00  0.00    -0.101 A  
BRANCH   8  13
HETATM   13  O   UNL     1     -10.255   6.034  72.623  1.00  0.00    -0.177 OA 
HETATM   14  C   UNL     1     -11.160   5.012  73.014  1.00  0.00    -0.308 C  
ENDBRANCH   8  13
BRANCH  11  15
HETATM   15  C   UNL     1      -7.746   6.188  67.527  1.00  0.00    -0.097 C  
HETATM   16  C   UNL     1      -8.370   6.478  66.137  1.00  0.00    -0.129 C  
HETATM   17  C   UNL     1      -7.217   6.754  65.098  1.00  0.00    -0.074 C  
HETATM   18  C   UNL     1      -9.303   5.373  65.553  1.00  0.00    -0.055 C  
HETATM   19  C   UNL     1     -10.633   5.248  66.298  1.00  0.00    -0.308 C  
HETATM   20  C   UNL     1      -8.633   4.004  65.418  1.00  0.00    -0.114 C  
BRANCH  17  21
HETATM   21  C   UNL     1      -6.340   7.989  65.384  1.00  0.00    -0.048 C  
HETATM   22  N   UNL     1      -6.398   8.241  66.829  1.00  0.00    -0.055 NA 
HETATM   23  H1  UNL     1      -5.818   9.059  67.019  1.00  0.00     0.000 HD 
HETATM   24  H2  UNL     1      -6.135   7.428  67.387  1.00  0.00     0.000 HD 
BRANCH  21  25
HETATM   25  C   UNL     1      -6.739   9.264  64.548  1.00  0.00    -0.085 C  
HETATM   26  H   UNL     1      -7.860   9.717  62.976  1.00  0.00     0.000 HD 
HETATM   27  O   UNL     1      -7.621   8.949  63.481  1.00  0.00    -0.109 OA 
BRANCH  25  28
HETATM   28  C   UNL     1      -7.371  10.297  65.502  1.00  0.00    -0.149 C  
HETATM   29  C   UNL     1      -8.740  10.949  65.192  1.00  0.00    -0.130 C  
HETATM   30  C   UNL     1      -8.935  11.967  66.335  1.00  0.00    -0.180 C  
HETATM   31  C   UNL     1      -9.945   9.970  65.090  1.00  0.00    -0.350 C  
HETATM   32  C   UNL     1     -11.255  10.656  64.678  1.00  0.00     0.807 C  
HETATM   33  O   UNL     1      -8.619  11.742  67.502  1.00  0.00    -0.146 OA 
HETATM   34  N   UNL     1      -9.508  13.162  65.960  1.00  0.00    -0.464 N  
HETATM   35  C   UNL     1     -10.155   9.129  66.355  1.00  0.00    -0.345 C  
HETATM   36  H   UNL     1      -9.842  13.286  65.005  1.00  0.00     0.000 HD 
BRANCH  34  37
HETATM   37  C   UNL     1      -9.637  14.247  66.916  1.00  0.00    -0.262 C  
BRANCH  37  38
HETATM   38  C   UNL     1     -10.994  14.968  66.848  1.00  0.00    -0.324 C  
HETATM   39  C   UNL     1     -12.056  14.146  67.611  1.00  0.00    -0.337 C  
HETATM   40  C   UNL     1     -10.899  16.372  67.468  1.00  0.00    -0.249 C  
BRANCH  38  41
HETATM   41  C   UNL     1     -11.427  15.077  65.380  1.00  0.00    -0.287 C  
HETATM   42  N   UNL     1     -10.833  16.038  64.623  1.00  0.00    -0.557 N  
HETATM   43  O   UNL     1     -12.265  14.343  64.860  1.00  0.00    -0.413 OA 
HETATM   44  H2  UNL     1     -10.128  16.662  65.016  1.00  0.00     0.000 HD 
HETATM   45  H1  UNL     1     -11.120  16.111  63.648  1.00  0.00     0.000 HD 
ENDBRANCH  38  41
ENDBRANCH  37  38
ENDBRANCH  34  37
ENDBRANCH  25  28
ENDBRANCH  21  25
ENDBRANCH  17  21
ENDBRANCH  11  15
ENDBRANCH   6   7
ENDBRANCH   5   6
ENDBRANCH   4   5
ENDBRANCH   3   4
ENDBRANCH   2   3
TORSDOF 13
ENDMDL
MODEL      106
REMARK 921   NORMALIZED FREE ENERGY PREDICTED BY IDOCK:   -3.97 KCAL/MOL
REMARK 922        TOTAL FREE ENERGY PREDICTED BY IDOCK:   -9.30 KCAL/MOL
REMARK 923 INTER-LIGAND FREE ENERGY PREDICTED BY IDOCK:   -6.75 KCAL/MOL
REMARK 924 INTRA-LIGAND FREE ENERGY PREDICTED BY IDOCK:   -2.55 KCAL/MOL
REMARK 927      BINDING AFFINITY PREDICTED BY RF-SCORE:    0.00 PKD
ROOT
HETATM    1  C   UNL     1      -6.255  10.390  64.208  1.00  0.00    -0.063 C  
HETATM    2  O   UNL     1      -7.073   9.229  64.214  1.00  0.00    -0.094 OA 
ENDROOT
BRANCH   2   3
HETATM    3  C   UNL     1      -7.086   8.603  62.932  1.00  0.00    -0.090 C  
BRANCH   3   4
HETATM    4  C   UNL     1      -6.413   7.240  63.021  1.00  0.00    -0.053 C  
BRANCH   4   5
HETATM    5  C   UNL     1      -7.207   6.112  62.363  1.00  0.00    -0.048 C  
BRANCH   5   6
HETATM    6  O   UNL     1      -7.170   4.944  63.177  1.00  0.00    -0.045 OA 
BRANCH   6   7
HETATM    7  C   UNL     1      -7.816   4.924  64.388  1.00  0.00    -0.088 A  
HETATM    8  C   UNL     1      -9.059   4.254  64.396  1.00  0.00    -0.150 A  
HETATM    9  C   UNL     1      -9.862   4.306  65.538  1.00  0.00    -0.221 A  
HETATM   10  C   UNL     1      -7.399   5.635  65.520  1.00  0.00    -0.073 A  
HETATM   11  C   UNL     1      -8.245   5.755  66.639  1.00  0.00    -0.106 A  
HETATM   12  C   UNL     1      -9.463   5.069  66.639  1.00  0.00    -0.148 A  
BRANCH   8  13
HETATM   13  O   UNL     1      -9.397   3.595  63.238  1.00  0.00    -0.100 OA 
HETATM   14  C   UNL     1     -10.631   3.933  62.621  1.00  0.00    -0.188 C  
ENDBRANCH   8  13
BRANCH  11  15
HETATM   15  C   UNL     1      -7.956   6.776  67.722  1.00  0.00    -0.113 C  
HETATM   16  C   UNL     1      -6.599   6.805  68.470  1.00  0.00    -0.058 C  
HETATM   17  C   UNL     1      -6.527   8.103  69.363  1.00  0.00    -0.035 C  
HETATM   18  C   UNL     1      -6.278   5.573  69.370  1.00  0.00    -0.029 C  
HETATM   19  C   UNL     1      -5.988   4.300  68.573  1.00  0.00    -0.027 C  
HETATM   20  C   UNL     1      -7.329   5.302  70.449  1.00  0.00    -0.063 C  
BRANCH  17  21
HETATM   21  C   UNL     1      -6.567   9.442  68.600  1.00  0.00    -0.053 C  
HETATM   22  N   UNL     1      -5.283   9.588  67.904  1.00  0.00    -0.037 NA 
HETATM   23  H1  UNL     1      -5.310  10.474  67.399  1.00  0.00     0.000 HD 
HETATM   24  H2  UNL     1      -5.062   8.794  67.303  1.00  0.00     0.000 HD 
BRANCH  21  25
HETATM   25  C   UNL     1      -6.888  10.687  69.510  1.00  0.00    -0.109 C  
HETATM   26  H   UNL     1      -5.989  12.342  70.134  1.00  0.00     0.000 HD 
HETATM   27  O   UNL     1      -5.796  11.591  69.585  1.00  0.00    -0.067 OA 
BRANCH  25  28
HETATM   28  C   UNL     1      -8.148  11.385  68.958  1.00  0.00    -0.005 C  
HETATM   29  C   UNL     1      -9.254  10.592  68.225  1.00  0.00    -0.153 C  
HETATM   30  C   UNL     1     -10.252  11.677  67.769  1.00  0.00    -0.186 C  
HETATM   31  C   UNL     1      -9.959   9.486  69.062  1.00  0.00    -0.185 C  
HETATM   32  C   UNL     1     -10.972   8.662  68.255  1.00  0.00     0.122 C  
HETATM   33  O   UNL     1     -10.556  12.648  68.459  1.00  0.00    -0.236 OA 
HETATM   34  N   UNL     1     -10.799  11.480  66.520  1.00  0.00    -0.278 N  
HETATM   35  C   UNL     1     -10.603  10.016  70.349  1.00  0.00    -0.343 C  
HETATM   36  H   UNL     1     -10.598  10.621  66.009  1.00  0.00     0.000 HD 
BRANCH  34  37
HETATM   37  C   UNL     1     -11.660  12.487  65.927  1.00  0.00    -0.405 C  
BRANCH  37  38
HETATM   38  C   UNL     1     -11.002  13.254  64.768  1.00  0.00    -0.365 C  
HETATM   39  C   UNL     1     -10.218  14.463  65.324  1.00  0.00    -0.416 C  
HETATM   40  C   UNL     1     -10.040  12.344  63.987  1.00  0.00    -0.342 C  
BRANCH  38  41
HETATM   41  C   UNL     1     -12.099  13.776  63.830  1.00  0.00    -0.336 C  
HETATM   42  N   UNL     1     -12.443  15.087  63.939  1.00  0.00    -1.043 N  
HETATM   43  O   UNL     1     -12.667  13.079  62.992  1.00  0.00    -0.522 OA 
HETATM   44  H2  UNL     1     -11.989  15.700  64.617  1.00  0.00     0.000 HD 
HETATM   45  H1  UNL     1     -13.172  15.434  63.317  1.00  0.00     0.000 HD 
ENDBRANCH  38  41
ENDBRANCH  37  38
ENDBRANCH  34  37
ENDBRANCH  25  28
ENDBRANCH  21  25
ENDBRANCH  17  21
ENDBRANCH  11  15
ENDBRANCH   6   7
ENDBRANCH   5   6
ENDBRANCH   4   5
ENDBRANCH   3   4
ENDBRANCH   2   3
TORSDOF 13
ENDMDL
MODEL      107
REMARK 921   NORMALIZED FREE ENERGY PREDICTED BY IDOCK:   -3.93 KCAL/MOL
REMARK 922        TOTAL FREE ENERGY PREDICTED BY IDOCK:   -9.22 KCAL/MOL
REMARK 923 INTER-LIGAND FREE ENERGY PREDICTED BY IDOCK:   -7.96 KCAL/MOL
REMARK 924 INTRA-LIGAND FREE ENERGY PREDICTED BY IDOCK:   -1.26 KCAL/MOL
REMARK 927      BINDING AFFINITY PREDICTED BY RF-SCORE:    0.00 PKD
ROOT
HETATM    1  C   UNL     1     -10.886   4.248  64.673  1.00  0.00    -0.064 C  
HETATM    2  O   UNL     1     -10.181   4.118  65.900  1.00  0.00    -0.193 OA 
ENDROOT
BRANCH   2   3
HETATM    3  C   UNL     1      -8.805   3.816  65.673  1.00  0.00    -0.123 C  
BRANCH   3   4
HETATM    4  C   UNL     1      -8.224   3.124  66.899  1.00  0.00    -0.088 C  
BRANCH   4   5
HETATM    5  C   UNL     1      -9.254   2.348  67.720  1.00  0.00    -0.192 C  
BRANCH   5   6
HETATM    6  O   UNL     1      -9.572   3.060  68.911  1.00  0.00    -0.147 OA 
BRANCH   6   7
HETATM    7  C   UNL     1      -8.769   4.089  69.337  1.00  0.00    -0.085 A  
HETATM    8  C   UNL     1      -7.887   3.767  70.391  1.00  0.00    -0.047 A  
HETATM    9  C   UNL     1      -7.136   4.780  70.994  1.00  0.00    -0.047 A  
HETATM   10  C   UNL     1      -8.886   5.416  68.905  1.00  0.00    -0.105 A  
HETATM   11  C   UNL     1      -8.191   6.446  69.568  1.00  0.00    -0.118 A  
HETATM   12  C   UNL     1      -7.307   6.108  70.596  1.00  0.00    -0.086 A  
BRANCH   8  13
HETATM   13  O   UNL     1      -7.846   2.444  70.762  1.00  0.00    -0.042 OA 
HETATM   14  C   UNL     1      -8.208   2.120  72.097  1.00  0.00    -0.053 C  
ENDBRANCH   8  13
BRANCH  11  15
HETATM   15  C   UNL     1      -8.553   7.899  69.333  1.00  0.00    -0.137 C  
HETATM   16  C   UNL     1      -8.763   8.885  70.511  1.00  0.00    -0.213 C  
HETATM   17  C   UNL     1      -8.905  10.349  69.943  1.00  0.00     0.140 C  
HETATM   18  C   UNL     1      -9.982   8.601  71.442  1.00  0.00    -0.324 C  
HETATM   19  C   UNL     1      -9.801   7.356  72.313  1.00  0.00    -0.203 C  
HETATM   20  C   UNL     1     -11.324   8.553  70.710  1.00  0.00    -0.296 C  
BRANCH  17  21
HETATM   21  C   UNL     1      -7.669  10.901  69.204  1.00  0.00    -0.127 C  
HETATM   22  N   UNL     1      -6.909  11.709  70.165  1.00  0.00    -0.443 NA 
HETATM   23  H1  UNL     1      -6.092  12.074  69.676  1.00  0.00     0.000 HD 
HETATM   24  H2  UNL     1      -6.669  11.198  71.014  1.00  0.00     0.000 HD 
BRANCH  21  25
HETATM   25  C   UNL     1      -8.015  11.711  67.897  1.00  0.00    -0.132 C  
HETATM   26  H   UNL     1      -8.981  11.429  66.187  1.00  0.00     0.000 HD 
HETATM   27  O   UNL     1      -8.773  10.940  66.975  1.00  0.00    -0.138 OA 
BRANCH  25  28
HETATM   28  C   UNL     1      -8.773  12.991  68.301  1.00  0.00    -0.173 C  
HETATM   29  C   UNL     1      -9.390  13.933  67.240  1.00  0.00    -0.231 C  
HETATM   30  C   UNL     1      -9.951  15.109  68.065  1.00  0.00    -0.221 C  
HETATM   31  C   UNL     1     -10.485  13.301  66.333  1.00  0.00    -0.286 C  
HETATM   32  C   UNL     1     -10.985  14.247  65.232  1.00  0.00    -0.347 C  
HETATM   33  O   UNL     1     -10.512  14.966  69.151  1.00  0.00    -0.233 OA 
HETATM   34  N   UNL     1      -9.791  16.352  67.494  1.00  0.00    -0.236 N  
HETATM   35  C   UNL     1     -11.666  12.721  67.119  1.00  0.00    -0.443 C  
HETATM   36  H   UNL     1      -9.404  16.432  66.554  1.00  0.00     0.000 HD 
BRANCH  34  37
HETATM   37  C   UNL     1     -10.169  17.550  68.222  1.00  0.00    -0.365 C  
BRANCH  37  38
HETATM   38  C   UNL     1      -9.736  18.853  67.530  1.00  0.00    -0.360 C  
HETATM   39  C   UNL     1     -10.448  18.977  66.165  1.00  0.00    -0.541 C  
HETATM   40  C   UNL     1     -10.087  20.075  68.395  1.00  0.00    -0.513 C  
BRANCH  38  41
HETATM   41  C   UNL     1      -8.221  18.808  67.286  1.00  0.00    -0.263 C  
HETATM   42  N   UNL     1      -7.694  19.747  66.456  1.00  0.00    -0.274 N  
HETATM   43  O   UNL     1      -7.473  17.982  67.803  1.00  0.00    -0.206 OA 
HETATM   44  H2  UNL     1      -8.281  20.454  66.014  1.00  0.00     0.000 HD 
HETATM   45  H1  UNL     1      -6.688  19.717  66.294  1.00  0.00     0.000 HD 
ENDBRANCH  38  41
ENDBRANCH  37  38
ENDBRANCH  34  37
ENDBRANCH  25  28
ENDBRANCH  21  25
ENDBRANCH  17  21
ENDBRANCH  11  15
ENDBRANCH   6   7
ENDBRANCH   5   6
ENDBRANCH   4   5
ENDBRANCH   3   4
ENDBRANCH   2   3
TORSDOF 13
ENDMDL
MODEL      108
REMARK 921   NORMALIZED FREE ENERGY PREDICTED BY IDOCK:   -3.92 KCAL/MOL
REMARK 922        TOTAL FREE ENERGY PREDICTED BY IDOCK:   -9.21 KCAL/MOL
REMARK 923 INTER-LIGAND FREE ENERGY PREDICTED BY IDOCK:   -7.65 KCAL/MOL
REMARK 924 INTRA-LIGAND FREE ENERGY PREDICTED BY IDOCK:   -1.55 KCAL/MOL
REMARK 927      BINDING AFFINITY PREDICTED BY RF-SCORE:    0.00 PKD
ROOT
HETATM    1  C   UNL     1     -12.163   6.120  71.841  1.00  0.00    -0.095 C  
HETATM    2  O   UNL     1     -11.641   5.240  72.826  1.00  0.00    -0.284 OA 
ENDROOT
BRANCH   2   3
HETATM    3  C   UNL     1     -10.484   5.794  73.450  1.00  0.00    -0.244 C  
BRANCH   3   4
HETATM    4  C   UNL     1      -9.243   5.040  72.989  1.00  0.00    -0.130 C  
BRANCH   4   5
HETATM    5  C   UNL     1      -9.219   4.743  71.490  1.00  0.00    -0.142 C  
BRANCH   5   6
HETATM    6  O   UNL     1      -8.082   5.352  70.886  1.00  0.00    -0.107 OA 
BRANCH   6   7
HETATM    7  C   UNL     1      -8.079   5.627  69.540  1.00  0.00    -0.103 A  
HETATM    8  C   UNL     1      -7.463   4.650  68.728  1.00  0.00    -0.064 A  
HETATM    9  C   UNL     1      -7.276   4.905  67.367  1.00  0.00    -0.074 A  
HETATM   10  C   UNL     1      -8.497   6.840  68.979  1.00  0.00    -0.128 A  
HETATM   11  C   UNL     1      -8.233   7.128  67.626  1.00  0.00    -0.114 A  
HETATM   12  C   UNL     1      -7.641   6.143  66.831  1.00  0.00    -0.099 A  
BRANCH   8  13
HETATM   13  O   UNL     1      -7.070   3.496  69.363  1.00  0.00    -0.041 OA 
HETATM   14  C   UNL     1      -5.690   3.158  69.326  1.00  0.00    -0.022 C  
ENDBRANCH   8  13
BRANCH  11  15
HETATM   15  C   UNL     1      -8.378   8.539  67.093  1.00  0.00    -0.111 C  
HETATM   16  C   UNL     1      -7.210   9.260  66.373  1.00  0.00    -0.088 C  
HETATM   17  C   UNL     1      -7.738  10.607  65.748  1.00  0.00    -0.130 C  
HETATM   18  C   UNL     1      -5.954   9.582  67.241  1.00  0.00    -0.048 C  
HETATM   19  C   UNL     1      -5.153   8.338  67.630  1.00  0.00    -0.033 C  
HETATM   20  C   UNL     1      -6.256  10.434  68.476  1.00  0.00    -0.047 C  
BRANCH  17  21
HETATM   21  C   UNL     1      -8.820  10.460  64.660  1.00  0.00    -0.198 C  
HETATM   22  N   UNL     1      -8.302  11.091  63.439  1.00  0.00    -0.377 NA 
HETATM   23  H1  UNL     1      -9.018  10.994  62.719  1.00  0.00     0.000 HD 
HETATM   24  H2  UNL     1      -7.396  10.720  63.153  1.00  0.00     0.000 HD 
BRANCH  21  25
HETATM   25  C   UNL     1     -10.225  11.042  65.072  1.00  0.00    -0.299 C  
HETATM   26  H   UNL     1     -11.830  10.469  66.087  1.00  0.00     0.000 HD 
HETATM   27  O   UNL     1     -10.983  10.118  65.839  1.00  0.00     0.169 OA 
BRANCH  25  28
HETATM   28  C   UNL     1     -10.002  12.355  65.851  1.00  0.00    -0.271 C  
HETATM   29  C   UNL     1     -10.312  13.731  65.217  1.00  0.00    -0.378 C  
HETATM   30  C   UNL     1      -9.859  14.746  66.288  1.00  0.00    -0.296 C  
HETATM   31  C   UNL     1     -11.794  13.965  64.803  1.00  0.00    -0.414 C  
HETATM   32  C   UNL     1     -12.023  15.302  64.085  1.00  0.00    -0.145 C  
HETATM   33  O   UNL     1     -10.033  14.578  67.494  1.00  0.00    -0.222 OA 
HETATM   34  N   UNL     1      -9.245  15.877  65.798  1.00  0.00    -0.283 N  
HETATM   35  C   UNL     1     -12.782  13.803  65.963  1.00  0.00    -0.407 C  
HETATM   36  H   UNL     1      -9.195  16.031  64.791  1.00  0.00     0.000 HD 
BRANCH  34  37
HETATM   37  C   UNL     1      -8.668  16.852  66.706  1.00  0.00    -0.232 C  
BRANCH  37  38
HETATM   38  C   UNL     1      -9.449  18.176  66.763  1.00  0.00    -0.294 C  
HETATM   39  C   UNL     1     -10.601  18.144  65.735  1.00  0.00    -0.186 C  
HETATM   40  C   UNL     1     -10.031  18.407  68.168  1.00  0.00    -0.388 C  
BRANCH  38  41
HETATM   41  C   UNL     1      -8.503  19.328  66.398  1.00  0.00    -0.333 C  
HETATM   42  N   UNL     1      -8.727  20.532  66.990  1.00  0.00    -0.533 N  
HETATM   43  O   UNL     1      -7.562  19.215  65.615  1.00  0.00    -0.459 OA 
HETATM   44  H2  UNL     1      -9.493  20.664  67.651  1.00  0.00     0.000 HD 
HETATM   45  H1  UNL     1      -8.098  21.297  66.748  1.00  0.00     0.000 HD 
ENDBRANCH  38  41
ENDBRANCH  37  38
ENDBRANCH  34  37
ENDBRANCH  25  28
ENDBRANCH  21  25
ENDBRANCH  17  21
ENDBRANCH  11  15
ENDBRANCH   6   7
ENDBRANCH   5   6
ENDBRANCH   4   5
ENDBRANCH   3   4
ENDBRANCH   2   3
TORSDOF 13
ENDMDL
MODEL      109
REMARK 921   NORMALIZED FREE ENERGY PREDICTED BY IDOCK:   -3.91 KCAL/MOL
REMARK 922        TOTAL FREE ENERGY PREDICTED BY IDOCK:   -9.19 KCAL/MOL
REMARK 923 INTER-LIGAND FREE ENERGY PREDICTED BY IDOCK:   -8.12 KCAL/MOL
REMARK 924 INTRA-LIGAND FREE ENERGY PREDICTED BY IDOCK:   -1.07 KCAL/MOL
REMARK 927      BINDING AFFINITY PREDICTED BY RF-SCORE:    0.00 PKD
ROOT
HETATM    1  C   UNL     1     -12.534  15.971  74.096  1.00  0.00    -0.620 C  
HETATM    2  O   UNL     1     -12.884  14.680  73.617  1.00  0.00    -0.508 OA 
ENDROOT
BRANCH   2   3
HETATM    3  C   UNL     1     -12.373  14.464  72.302  1.00  0.00    -0.184 C  
BRANCH   3   4
HETATM    4  C   UNL     1     -12.064  15.804  71.647  1.00  0.00    -0.522 C  
BRANCH   4   5
HETATM    5  C   UNL     1     -12.346  15.838  70.145  1.00  0.00    -0.279 C  
BRANCH   5   6
HETATM    6  O   UNL     1     -11.298  16.520  69.463  1.00  0.00    -0.246 OA 
BRANCH   6   7
HETATM    7  C   UNL     1     -10.475  15.836  68.601  1.00  0.00    -0.231 A  
HETATM    8  C   UNL     1     -10.245  16.467  67.360  1.00  0.00    -0.287 A  
HETATM    9  C   UNL     1      -9.545  15.786  66.360  1.00  0.00    -0.311 A  
HETATM   10  C   UNL     1     -10.003  14.536  68.822  1.00  0.00    -0.232 A  
HETATM   11  C   UNL     1      -9.371  13.821  67.787  1.00  0.00    -0.213 A  
HETATM   12  C   UNL     1      -9.133  14.467  66.570  1.00  0.00    -0.248 A  
BRANCH   8  13
HETATM   13  O   UNL     1     -10.757  17.736  67.223  1.00  0.00    -0.334 OA 
HETATM   14  C   UNL     1     -10.288  18.525  66.139  1.00  0.00    -0.426 C  
ENDBRANCH   8  13
BRANCH  11  15
HETATM   15  C   UNL     1      -9.154  12.326  67.899  1.00  0.00    -0.190 C  
HETATM   16  C   UNL     1      -7.819  11.735  68.422  1.00  0.00    -0.141 C  
HETATM   17  C   UNL     1      -7.985  10.181  68.629  1.00  0.00    -0.103 C  
HETATM   18  C   UNL     1      -6.560  11.978  67.534  1.00  0.00    -0.123 C  
HETATM   19  C   UNL     1      -6.094  13.436  67.530  1.00  0.00    -0.074 C  
HETATM   20  C   UNL     1      -6.700  11.457  66.102  1.00  0.00     0.140 C  
BRANCH  17  21
HETATM   21  C   UNL     1      -9.026   9.756  69.685  1.00  0.00    -0.215 C  
HETATM   22  N   UNL     1      -8.321   8.963  70.699  1.00  0.00    -0.148 NA 
HETATM   23  H1  UNL     1      -9.009   8.681  71.397  1.00  0.00     0.000 HD 
HETATM   24  H2  UNL     1      -7.521   9.450  71.102  1.00  0.00     0.000 HD 
BRANCH  21  25
HETATM   25  C   UNL     1     -10.263   8.984  69.088  1.00  0.00    -0.205 C  
HETATM   26  H   UNL     1     -11.072   8.622  67.314  1.00  0.00     0.000 HD 
HETATM   27  O   UNL     1     -10.326   9.087  67.673  1.00  0.00    -0.226 OA 
BRANCH  25  28
HETATM   28  C   UNL     1     -10.181   7.509  69.532  1.00  0.00    -0.207 C  
HETATM   29  C   UNL     1     -10.106   7.120  71.027  1.00  0.00    -0.199 C  
HETATM   30  C   UNL     1      -9.940   5.586  71.006  1.00  0.00    -0.194 C  
HETATM   31  C   UNL     1     -11.322   7.549  71.898  1.00  0.00    -0.298 C  
HETATM   32  C   UNL     1     -11.148   7.231  73.389  1.00  0.00    -0.185 C  
HETATM   33  O   UNL     1     -10.534   4.854  70.216  1.00  0.00    -0.234 OA 
HETATM   34  N   UNL     1      -9.079   5.078  71.953  1.00  0.00    -0.135 N  
HETATM   35  C   UNL     1     -12.659   7.002  71.386  1.00  0.00    -0.428 C  
HETATM   36  H   UNL     1      -8.671   5.699  72.652  1.00  0.00     0.000 HD 
BRANCH  34  37
HETATM   37  C   UNL     1      -8.746   3.665  71.962  1.00  0.00    -0.091 C  
BRANCH  37  38
HETATM   38  C   UNL     1      -7.337   3.361  71.426  1.00  0.00    -0.036 C  
HETATM   39  C   UNL     1      -6.378   4.510  71.808  1.00  0.00    -0.022 C  
HETATM   40  C   UNL     1      -6.804   2.042  72.009  1.00  0.00    -0.018 C  
BRANCH  38  41
HETATM   41  C   UNL     1      -7.396   3.266  69.895  1.00  0.00    -0.044 C  
HETATM   42  N   UNL     1      -8.419   2.552  69.353  1.00  0.00    -0.058 N  
HETATM   43  O   UNL     1      -6.581   3.802  69.148  1.00  0.00    -0.038 OA 
HETATM   44  H2  UNL     1      -9.119   2.098  69.940  1.00  0.00     0.000 HD 
HETATM   45  H1  UNL     1      -8.458   2.488  68.336  1.00  0.00     0.000 HD 
ENDBRANCH  38  41
ENDBRANCH  37  38
ENDBRANCH  34  37
ENDBRANCH  25  28
ENDBRANCH  21  25
ENDBRANCH  17  21
ENDBRANCH  11  15
ENDBRANCH   6   7
ENDBRANCH   5   6
ENDBRANCH   4   5
ENDBRANCH   3   4
ENDBRANCH   2   3
TORSDOF 13
ENDMDL
MODEL      110
REMARK 921   NORMALIZED FREE ENERGY PREDICTED BY IDOCK:   -3.89 KCAL/MOL
REMARK 922        TOTAL FREE ENERGY PREDICTED BY IDOCK:   -9.16 KCAL/MOL
REMARK 923 INTER-LIGAND FREE ENERGY PREDICTED BY IDOCK:   -9.44 KCAL/MOL
REMARK 924 INTRA-LIGAND FREE ENERGY PREDICTED BY IDOCK:    0.28 KCAL/MOL
REMARK 927      BINDING AFFINITY PREDICTED BY RF-SCORE:    0.00 PKD
ROOT
HETATM    1  C   UNL     1      -9.807   4.524  62.398  1.00  0.00    -0.034 C  
HETATM    2  O   UNL     1      -8.696   5.385  62.609  1.00  0.00    -0.107 OA 
ENDROOT
BRANCH   2   3
HETATM    3  C   UNL     1      -7.681   4.736  63.372  1.00  0.00    -0.070 C  
BRANCH   3   4
HETATM    4  C   UNL     1      -8.323   3.887  64.462  1.00  0.00    -0.098 C  
BRANCH   4   5
HETATM    5  C   UNL     1      -8.421   4.589  65.816  1.00  0.00    -0.115 C  
BRANCH   5   6
HETATM    6  O   UNL     1      -9.546   4.103  66.542  1.00  0.00    -0.179 OA 
BRANCH   6   7
HETATM    7  C   UNL     1      -9.523   4.074  67.915  1.00  0.00    -0.173 A  
HETATM    8  C   UNL     1      -9.237   2.815  68.485  1.00  0.00    -0.183 A  
HETATM    9  C   UNL     1      -9.336   2.647  69.869  1.00  0.00    -0.191 A  
HETATM   10  C   UNL     1      -9.904   5.142  68.736  1.00  0.00    -0.235 A  
HETATM   11  C   UNL     1     -10.083   4.950  70.119  1.00  0.00    -0.332 A  
HETATM   12  C   UNL     1      -9.776   3.704  70.671  1.00  0.00    -0.215 A  
BRANCH   8  13
HETATM   13  O   UNL     1      -8.888   1.818  67.605  1.00  0.00    -0.099 OA 
HETATM   14  C   UNL     1      -7.504   1.580  67.392  1.00  0.00    -0.058 C  
ENDBRANCH   8  13
BRANCH  11  15
HETATM   15  C   UNL     1     -10.800   5.989  70.958  1.00  0.00    -0.345 C  
HETATM   16  C   UNL     1     -10.047   6.851  72.004  1.00  0.00    -0.201 C  
HETATM   17  C   UNL     1     -11.013   7.975  72.541  1.00  0.00    -0.430 C  
HETATM   18  C   UNL     1      -9.451   6.090  73.228  1.00  0.00    -0.142 C  
HETATM   19  C   UNL     1      -8.256   5.205  72.867  1.00  0.00    -0.109 C  
HETATM   20  C   UNL     1     -10.486   5.296  74.028  1.00  0.00    -0.318 C  
BRANCH  17  21
HETATM   21  C   UNL     1     -11.502   8.994  71.492  1.00  0.00    -0.337 C  
HETATM   22  N   UNL     1     -12.280   8.253  70.492  1.00  0.00    -0.469 NA 
HETATM   23  H1  UNL     1     -12.604   8.926  69.798  1.00  0.00     0.000 HD 
HETATM   24  H2  UNL     1     -13.038   7.706  70.901  1.00  0.00     0.000 HD 
BRANCH  21  25
HETATM   25  C   UNL     1     -10.347   9.838  70.833  1.00  0.00    -0.175 C  
HETATM   26  H   UNL     1      -8.490   9.565  70.189  1.00  0.00     0.000 HD 
HETATM   27  O   UNL     1      -9.187   9.056  70.586  1.00  0.00    -0.190 OA 
BRANCH  25  28
HETATM   28  C   UNL     1     -10.880  10.463  69.528  1.00  0.00    -0.295 C  
HETATM   29  C   UNL     1     -10.053  11.501  68.734  1.00  0.00    -0.191 C  
HETATM   30  C   UNL     1     -10.989  11.921  67.581  1.00  0.00    -0.235 C  
HETATM   31  C   UNL     1      -8.679  11.003  68.200  1.00  0.00    -0.141 C  
HETATM   32  C   UNL     1      -7.857  12.102  67.512  1.00  0.00    -0.162 C  
HETATM   33  O   UNL     1     -11.714  11.131  66.978  1.00  0.00    -0.460 OA 
HETATM   34  N   UNL     1     -10.952  13.259  67.257  1.00  0.00    -0.264 N  
HETATM   35  C   UNL     1      -8.789   9.771  67.294  1.00  0.00    -0.139 C  
HETATM   36  H   UNL     1     -10.276  13.872  67.712  1.00  0.00     0.000 HD 
BRANCH  34  37
HETATM   37  C   UNL     1     -11.869  13.802  66.271  1.00  0.00    -0.398 C  
BRANCH  37  38
HETATM   38  C   UNL     1     -11.195  14.159  64.935  1.00  0.00    -0.373 C  
HETATM   39  C   UNL     1     -10.324  15.421  65.115  1.00  0.00    -0.405 C  
HETATM   40  C   UNL     1     -10.312  13.001  64.442  1.00  0.00    -0.397 C  
BRANCH  38  41
HETATM   41  C   UNL     1     -12.282  14.462  63.895  1.00  0.00    -0.139 C  
HETATM   42  N   UNL     1     -12.758  15.735  63.841  1.00  0.00    -0.304 N  
HETATM   43  O   UNL     1     -12.730  13.625  63.114  1.00  0.00    -0.737 OA 
HETATM   44  H2  UNL     1     -12.406  16.460  64.467  1.00  0.00     0.000 HD 
HETATM   45  H1  UNL     1     -13.480  15.937  63.150  1.00  0.00     0.000 HD 
ENDBRANCH  38  41
ENDBRANCH  37  38
ENDBRANCH  34  37
ENDBRANCH  25  28
ENDBRANCH  21  25
ENDBRANCH  17  21
ENDBRANCH  11  15
ENDBRANCH   6   7
ENDBRANCH   5   6
ENDBRANCH   4   5
ENDBRANCH   3   4
ENDBRANCH   2   3
TORSDOF 13
ENDMDL
MODEL      111
REMARK 921   NORMALIZED FREE ENERGY PREDICTED BY IDOCK:   -3.89 KCAL/MOL
REMARK 922        TOTAL FREE ENERGY PREDICTED BY IDOCK:   -9.16 KCAL/MOL
REMARK 923 INTER-LIGAND FREE ENERGY PREDICTED BY IDOCK:   -7.45 KCAL/MOL
REMARK 924 INTRA-LIGAND FREE ENERGY PREDICTED BY IDOCK:   -1.70 KCAL/MOL
REMARK 927      BINDING AFFINITY PREDICTED BY RF-SCORE:    0.00 PKD
ROOT
HETATM    1  C   UNL     1      -8.038   7.158  65.766  1.00  0.00    -0.130 C  
HETATM    2  O   UNL     1      -7.910   5.830  65.277  1.00  0.00    -0.095 OA 
ENDROOT
BRANCH   2   3
HETATM    3  C   UNL     1      -7.127   5.030  66.162  1.00  0.00    -0.072 C  
BRANCH   3   4
HETATM    4  C   UNL     1      -7.761   5.027  67.546  1.00  0.00    -0.091 C  
BRANCH   4   5
HETATM    5  C   UNL     1      -6.758   5.193  68.687  1.00  0.00    -0.050 C  
BRANCH   5   6
HETATM    6  O   UNL     1      -7.441   5.286  69.934  1.00  0.00    -0.062 OA 
BRANCH   6   7
HETATM    7  C   UNL     1      -7.726   6.515  70.476  1.00  0.00    -0.105 A  
HETATM    8  C   UNL     1      -7.110   6.781  71.719  1.00  0.00    -0.075 A  
HETATM    9  C   UNL     1      -7.453   7.939  72.422  1.00  0.00    -0.108 A  
HETATM   10  C   UNL     1      -8.673   7.408  69.960  1.00  0.00    -0.140 A  
HETATM   11  C   UNL     1      -9.077   8.531  70.708  1.00  0.00    -0.196 A  
HETATM   12  C   UNL     1      -8.443   8.791  71.926  1.00  0.00    -0.151 A  
BRANCH   8  13
HETATM   13  O   UNL     1      -6.206   5.844  72.158  1.00  0.00    -0.039 OA 
HETATM   14  C   UNL     1      -6.324   5.388  73.498  1.00  0.00    -0.062 C  
ENDBRANCH   8  13
BRANCH  11  15
HETATM   15  C   UNL     1     -10.315   9.313  70.322  1.00  0.00    -0.272 C  
HETATM   16  C   UNL     1     -11.423   9.645  71.354  1.00  0.00    -0.455 C  
HETATM   17  C   UNL     1     -12.453  10.646  70.706  1.00  0.00    -0.480 C  
HETATM   18  C   UNL     1     -12.215   8.432  71.933  1.00  0.00    -0.395 C  
HETATM   19  C   UNL     1     -11.383   7.558  72.873  1.00  0.00    -0.355 C  
HETATM   20  C   UNL     1     -12.900   7.573  70.867  1.00  0.00    -0.082 C  
BRANCH  17  21
HETATM   21  C   UNL     1     -11.886  12.023  70.305  1.00  0.00    -0.270 C  
HETATM   22  N   UNL     1     -12.933  13.019  70.561  1.00  0.00     0.098 NA 
HETATM   23  H1  UNL     1     -12.558  13.930  70.296  1.00  0.00     0.000 HD 
HETATM   24  H2  UNL     1     -13.281  12.995  71.520  1.00  0.00     0.000 HD 
BRANCH  21  25
HETATM   25  C   UNL     1     -11.360  12.090  68.822  1.00  0.00    -0.278 C  
HETATM   26  H   UNL     1     -12.023  12.636  67.034  1.00  0.00     0.000 HD 
HETATM   27  O   UNL     1     -12.340  12.596  67.928  1.00  0.00    -0.218 OA 
BRANCH  25  28
HETATM   28  C   UNL     1     -10.085  12.957  68.793  1.00  0.00    -0.058 C  
HETATM   29  C   UNL     1     -10.109  14.410  68.263  1.00  0.00    -0.239 C  
HETATM   30  C   UNL     1      -8.634  14.855  68.326  1.00  0.00    -0.160 C  
HETATM   31  C   UNL     1     -11.034  15.394  69.037  1.00  0.00    -0.252 C  
HETATM   32  C   UNL     1     -11.101  16.792  68.406  1.00  0.00    -0.266 C  
HETATM   33  O   UNL     1      -7.876  14.557  69.248  1.00  0.00    -0.115 OA 
HETATM   34  N   UNL     1      -8.213  15.632  67.269  1.00  0.00    -0.174 N  
HETATM   35  C   UNL     1     -10.700  15.496  70.529  1.00  0.00    -0.309 C  
HETATM   36  H   UNL     1      -8.885  15.938  66.566  1.00  0.00     0.000 HD 
BRANCH  34  37
HETATM   37  C   UNL     1      -6.818  16.017  67.149  1.00  0.00    -0.188 C  
BRANCH  37  38
HETATM   38  C   UNL     1      -6.586  17.532  67.267  1.00  0.00    -0.184 C  
HETATM   39  C   UNL     1      -6.244  17.892  68.729  1.00  0.00    -0.205 C  
HETATM   40  C   UNL     1      -5.434  17.982  66.352  1.00  0.00    -0.205 C  
BRANCH  38  41
HETATM   41  C   UNL     1      -7.876  18.265  66.875  1.00  0.00    -0.230 C  
HETATM   42  N   UNL     1      -8.482  19.018  67.832  1.00  0.00    -0.289 N  
HETATM   43  O   UNL     1      -8.376  18.213  65.753  1.00  0.00    -0.499 OA 
HETATM   44  H2  UNL     1      -8.095  19.092  68.773  1.00  0.00     0.000 HD 
HETATM   45  H1  UNL     1      -9.340  19.505  67.572  1.00  0.00     0.000 HD 
ENDBRANCH  38  41
ENDBRANCH  37  38
ENDBRANCH  34  37
ENDBRANCH  25  28
ENDBRANCH  21  25
ENDBRANCH  17  21
ENDBRANCH  11  15
ENDBRANCH   6   7
ENDBRANCH   5   6
ENDBRANCH   4   5
ENDBRANCH   3   4
ENDBRANCH   2   3
TORSDOF 13
ENDMDL
MODEL      112
REMARK 921   NORMALIZED FREE ENERGY PREDICTED BY IDOCK:   -3.88 KCAL/MOL
REMARK 922        TOTAL FREE ENERGY PREDICTED BY IDOCK:   -9.15 KCAL/MOL
REMARK 923 INTER-LIGAND FREE ENERGY PREDICTED BY IDOCK:   -6.62 KCAL/MOL
REMARK 924 INTRA-LIGAND FREE ENERGY PREDICTED BY IDOCK:   -2.53 KCAL/MOL
REMARK 927      BINDING AFFINITY PREDICTED BY RF-SCORE:    0.00 PKD
ROOT
HETATM    1  C   UNL     1     -10.760   3.523  64.328  1.00  0.00    -0.115 C  
HETATM    2  O   UNL     1      -9.865   2.423  64.410  1.00  0.00    -0.122 OA 
ENDROOT
BRANCH   2   3
HETATM    3  C   UNL     1      -9.260   2.348  65.700  1.00  0.00    -0.044 C  
BRANCH   3   4
HETATM    4  C   UNL     1      -8.795   3.733  66.129  1.00  0.00    -0.127 C  
BRANCH   4   5
HETATM    5  C   UNL     1      -9.457   4.241  67.409  1.00  0.00    -0.180 C  
BRANCH   5   6
HETATM    6  O   UNL     1      -8.471   4.493  68.407  1.00  0.00    -0.092 OA 
BRANCH   6   7
HETATM    7  C   UNL     1      -8.020   5.772  68.625  1.00  0.00    -0.101 A  
HETATM    8  C   UNL     1      -7.548   6.028  69.930  1.00  0.00    -0.081 A  
HETATM    9  C   UNL     1      -7.208   7.334  70.295  1.00  0.00    -0.067 A  
HETATM   10  C   UNL     1      -8.146   6.823  67.708  1.00  0.00    -0.113 A  
HETATM   11  C   UNL     1      -7.882   8.149  68.102  1.00  0.00    -0.122 A  
HETATM   12  C   UNL     1      -7.396   8.383  69.391  1.00  0.00    -0.070 A  
BRANCH   8  13
HETATM   13  O   UNL     1      -7.472   4.943  70.770  1.00  0.00    -0.061 OA 
HETATM   14  C   UNL     1      -8.416   4.856  71.827  1.00  0.00    -0.123 C  
ENDBRANCH   8  13
BRANCH  11  15
HETATM   15  C   UNL     1      -8.321   9.314  67.240  1.00  0.00    -0.125 C  
HETATM   16  C   UNL     1      -7.589   9.672  65.921  1.00  0.00    -0.103 C  
HETATM   17  C   UNL     1      -8.412  10.776  65.154  1.00  0.00    -0.102 C  
HETATM   18  C   UNL     1      -6.116  10.166  66.059  1.00  0.00    -0.083 C  
HETATM   19  C   UNL     1      -5.145   9.062  66.482  1.00  0.00    -0.033 C  
HETATM   20  C   UNL     1      -5.955  11.395  66.957  1.00  0.00    -0.112 C  
BRANCH  17  21
HETATM   21  C   UNL     1      -9.826  10.362  64.701  1.00  0.00    -0.338 C  
HETATM   22  N   UNL     1      -9.752  10.043  63.270  1.00  0.00    -0.525 NA 
HETATM   23  H1  UNL     1     -10.687   9.769  62.970  1.00  0.00     0.000 HD 
HETATM   24  H2  UNL     1      -9.043   9.343  63.053  1.00  0.00     0.000 HD 
BRANCH  21  25
HETATM   25  C   UNL     1     -10.937  11.437  65.008  1.00  0.00    -0.204 C  
HETATM   26  H   UNL     1     -12.677  12.028  64.263  1.00  0.00     0.000 HD 
HETATM   27  O   UNL     1     -12.008  11.380  64.078  1.00  0.00    -0.127 OA 
BRANCH  25  28
HETATM   28  C   UNL     1     -11.443  11.220  66.448  1.00  0.00     0.043 C  
HETATM   29  C   UNL     1     -10.708  11.835  67.663  1.00  0.00    -0.254 C  
HETATM   30  C   UNL     1     -11.483  11.294  68.882  1.00  0.00    -0.297 C  
HETATM   31  C   UNL     1     -10.625  13.389  67.685  1.00  0.00    -0.249 C  
HETATM   32  C   UNL     1      -9.796  13.939  68.854  1.00  0.00    -0.041 C  
HETATM   33  O   UNL     1     -12.708  11.179  68.907  1.00  0.00    -0.202 OA 
HETATM   34  N   UNL     1     -10.704  10.952  69.965  1.00  0.00    -0.463 N  
HETATM   35  C   UNL     1     -11.996  14.072  67.632  1.00  0.00    -0.404 C  
HETATM   36  H   UNL     1      -9.703  11.143  69.949  1.00  0.00     0.000 HD 
BRANCH  34  37
HETATM   37  C   UNL     1     -11.300  10.322  71.129  1.00  0.00    -0.146 C  
BRANCH  37  38
HETATM   38  C   UNL     1     -11.407   8.792  71.014  1.00  0.00    -0.332 C  
HETATM   39  C   UNL     1     -12.893   8.374  71.019  1.00  0.00     0.020 C  
HETATM   40  C   UNL     1     -10.746   8.295  69.718  1.00  0.00    -0.221 C  
BRANCH  38  41
HETATM   41  C   UNL     1     -10.717   8.152  72.227  1.00  0.00    -0.313 C  
HETATM   42  N   UNL     1      -9.449   8.554  72.508  1.00  0.00    -0.281 N  
HETATM   43  O   UNL     1     -11.251   7.314  72.950  1.00  0.00    -0.310 OA 
HETATM   44  H2  UNL     1      -8.974   9.253  71.936  1.00  0.00     0.000 HD 
HETATM   45  H1  UNL     1      -8.990   8.129  73.313  1.00  0.00     0.000 HD 
ENDBRANCH  38  41
ENDBRANCH  37  38
ENDBRANCH  34  37
ENDBRANCH  25  28
ENDBRANCH  21  25
ENDBRANCH  17  21
ENDBRANCH  11  15
ENDBRANCH   6   7
ENDBRANCH   5   6
ENDBRANCH   4   5
ENDBRANCH   3   4
ENDBRANCH   2   3
TORSDOF 13
ENDMDL
MODEL      113
REMARK 921   NORMALIZED FREE ENERGY PREDICTED BY IDOCK:   -3.86 KCAL/MOL
REMARK 922        TOTAL FREE ENERGY PREDICTED BY IDOCK:   -9.10 KCAL/MOL
REMARK 923 INTER-LIGAND FREE ENERGY PREDICTED BY IDOCK:   -8.18 KCAL/MOL
REMARK 924 INTRA-LIGAND FREE ENERGY PREDICTED BY IDOCK:   -0.92 KCAL/MOL
REMARK 927      BINDING AFFINITY PREDICTED BY RF-SCORE:    0.00 PKD
ROOT
HETATM    1  C   UNL     1     -13.768  13.612  72.273  1.00  0.00    -0.589 C  
HETATM    2  O   UNL     1     -13.160  14.249  71.158  1.00  0.00    -0.335 OA 
ENDROOT
BRANCH   2   3
HETATM    3  C   UNL     1     -11.924  13.621  70.818  1.00  0.00    -0.206 C  
BRANCH   3   4
HETATM    4  C   UNL     1     -11.737  13.643  69.307  1.00  0.00    -0.376 C  
BRANCH   4   5
HETATM    5  C   UNL     1     -10.953  12.449  68.762  1.00  0.00    -0.246 C  
BRANCH   5   6
HETATM    6  O   UNL     1     -10.085  12.867  67.714  1.00  0.00    -0.218 OA 
BRANCH   6   7
HETATM    7  C   UNL     1      -9.958  12.107  66.577  1.00  0.00    -0.213 A  
HETATM    8  C   UNL     1     -10.852  12.433  65.534  1.00  0.00    -0.281 A  
HETATM    9  C   UNL     1     -10.905  11.624  64.395  1.00  0.00    -0.399 A  
HETATM   10  C   UNL     1      -9.135  10.980  66.465  1.00  0.00    -0.186 A  
HETATM   11  C   UNL     1      -9.248  10.121  65.355  1.00  0.00    -0.249 A  
HETATM   12  C   UNL     1     -10.122  10.468  64.322  1.00  0.00    -0.380 A  
BRANCH   8  13
HETATM   13  O   UNL     1     -11.634  13.545  65.733  1.00  0.00    -0.315 OA 
HETATM   14  C   UNL     1     -11.549  14.594  64.779  1.00  0.00    -0.418 C  
ENDBRANCH   8  13
BRANCH  11  15
HETATM   15  C   UNL     1      -8.613   8.746  65.374  1.00  0.00    -0.203 C  
HETATM   16  C   UNL     1      -7.218   8.485  64.750  1.00  0.00    -0.085 C  
HETATM   17  C   UNL     1      -6.746   7.028  65.124  1.00  0.00    -0.047 C  
HETATM   18  C   UNL     1      -7.110   8.652  63.203  1.00  0.00    -0.090 C  
HETATM   19  C   UNL     1      -7.217  10.108  62.743  1.00  0.00    -0.135 C  
HETATM   20  C   UNL     1      -8.078   7.768  62.414  1.00  0.00    -0.154 C  
BRANCH  17  21
HETATM   21  C   UNL     1      -6.544   6.757  66.629  1.00  0.00    -0.044 C  
HETATM   22  N   UNL     1      -7.857   6.421  67.193  1.00  0.00    -0.106 NA 
HETATM   23  H1  UNL     1      -7.724   6.242  68.188  1.00  0.00     0.000 HD 
HETATM   24  H2  UNL     1      -8.315   5.650  66.707  1.00  0.00     0.000 HD 
BRANCH  21  25
HETATM   25  C   UNL     1      -5.855   7.942  67.405  1.00  0.00    -0.038 C  
HETATM   26  H   UNL     1      -4.933   9.650  66.993  1.00  0.00     0.000 HD 
HETATM   27  O   UNL     1      -5.349   8.936  66.525  1.00  0.00    -0.034 OA 
BRANCH  25  28
HETATM   28  C   UNL     1      -6.879   8.545  68.388  1.00  0.00    -0.065 C  
HETATM   29  C   UNL     1      -6.771   8.306  69.913  1.00  0.00    -0.043 C  
HETATM   30  C   UNL     1      -8.027   8.993  70.489  1.00  0.00    -0.139 C  
HETATM   31  C   UNL     1      -5.473   8.837  70.587  1.00  0.00    -0.027 C  
HETATM   32  C   UNL     1      -5.370   8.481  72.077  1.00  0.00    -0.040 C  
HETATM   33  O   UNL     1      -8.463  10.064  70.070  1.00  0.00    -0.187 OA 
HETATM   34  N   UNL     1      -8.634   8.323  71.528  1.00  0.00    -0.141 N  
HETATM   35  C   UNL     1      -5.249  10.339  70.378  1.00  0.00    -0.049 C  
HETATM   36  H   UNL     1      -8.199   7.485  71.913  1.00  0.00     0.000 HD 
BRANCH  34  37
HETATM   37  C   UNL     1      -9.889   8.803  72.078  1.00  0.00    -0.306 C  
BRANCH  37  38
HETATM   38  C   UNL     1     -11.128   8.254  71.353  1.00  0.00    -0.302 C  
HETATM   39  C   UNL     1     -12.076   9.419  70.991  1.00  0.00    -0.373 C  
HETATM   40  C   UNL     1     -10.726   7.512  70.068  1.00  0.00    -0.248 C  
BRANCH  38  41
HETATM   41  C   UNL     1     -11.872   7.296  72.294  1.00  0.00    -0.248 C  
HETATM   42  N   UNL     1     -11.159   6.740  73.310  1.00  0.00    -0.503 N  
HETATM   43  O   UNL     1     -13.064   7.019  72.181  1.00  0.00    -0.160 OA 
HETATM   44  H2  UNL     1     -10.170   6.951  73.441  1.00  0.00     0.000 HD 
HETATM   45  H1  UNL     1     -11.653   6.104  73.935  1.00  0.00     0.000 HD 
ENDBRANCH  38  41
ENDBRANCH  37  38
ENDBRANCH  34  37
ENDBRANCH  25  28
ENDBRANCH  21  25
ENDBRANCH  17  21
ENDBRANCH  11  15
ENDBRANCH   6   7
ENDBRANCH   5   6
ENDBRANCH   4   5
ENDBRANCH   3   4
ENDBRANCH   2   3
TORSDOF 13
ENDMDL
MODEL      114
REMARK 921   NORMALIZED FREE ENERGY PREDICTED BY IDOCK:   -3.82 KCAL/MOL
REMARK 922        TOTAL FREE ENERGY PREDICTED BY IDOCK:   -9.03 KCAL/MOL
REMARK 923 INTER-LIGAND FREE ENERGY PREDICTED BY IDOCK:   -6.81 KCAL/MOL
REMARK 924 INTRA-LIGAND FREE ENERGY PREDICTED BY IDOCK:   -2.21 KCAL/MOL
REMARK 927      BINDING AFFINITY PREDICTED BY RF-SCORE:    0.00 PKD
ROOT
HETATM    1  C   UNL     1      -5.625   1.602  69.917  1.00  0.00    -0.017 C  
HETATM    2  O   UNL     1      -5.819   2.863  70.541  1.00  0.00    -0.016 OA 
ENDROOT
BRANCH   2   3
HETATM    3  C   UNL     1      -6.573   3.740  69.705  1.00  0.00    -0.033 C  
BRANCH   3   4
HETATM    4  C   UNL     1      -5.656   4.809  69.127  1.00  0.00    -0.012 C  
BRANCH   4   5
HETATM    5  C   UNL     1      -5.985   6.227  69.594  1.00  0.00    -0.018 C  
BRANCH   5   6
HETATM    6  O   UNL     1      -6.127   6.258  71.011  1.00  0.00    -0.029 OA 
BRANCH   6   7
HETATM    7  C   UNL     1      -7.197   6.902  71.584  1.00  0.00    -0.079 A  
HETATM    8  C   UNL     1      -7.868   6.174  72.591  1.00  0.00    -0.103 A  
HETATM    9  C   UNL     1      -9.054   6.679  73.129  1.00  0.00    -0.141 A  
HETATM   10  C   UNL     1      -7.723   8.119  71.133  1.00  0.00    -0.092 A  
HETATM   11  C   UNL     1      -8.960   8.584  71.618  1.00  0.00    -0.285 A  
HETATM   12  C   UNL     1      -9.602   7.863  72.628  1.00  0.00    -0.290 A  
BRANCH   8  13
HETATM   13  O   UNL     1      -7.291   4.983  72.962  1.00  0.00    -0.083 OA 
HETATM   14  C   UNL     1      -8.154   3.904  73.291  1.00  0.00    -0.088 C  
ENDBRANCH   8  13
BRANCH  11  15
HETATM   15  C   UNL     1      -9.692   9.709  70.915  1.00  0.00    -0.125 C  
HETATM   16  C   UNL     1     -10.957   9.446  70.058  1.00  0.00    -0.267 C  
HETATM   17  C   UNL     1     -11.605  10.824  69.652  1.00  0.00    -0.388 C  
HETATM   18  C   UNL     1     -10.751   8.601  68.762  1.00  0.00    -0.098 C  
HETATM   19  C   UNL     1     -10.444   7.129  69.042  1.00  0.00    -0.221 C  
HETATM   20  C   UNL     1      -9.722   9.190  67.795  1.00  0.00    -0.188 C  
BRANCH  17  21
HETATM   21  C   UNL     1     -12.115  11.692  70.820  1.00  0.00    -0.283 C  
HETATM   22  N   UNL     1     -12.933  10.830  71.682  1.00  0.00    -0.464 NA 
HETATM   23  H1  UNL     1     -13.270  11.405  72.455  1.00  0.00     0.000 HD 
HETATM   24  H2  UNL     1     -12.439   9.994  71.993  1.00  0.00     0.000 HD 
BRANCH  21  25
HETATM   25  C   UNL     1     -12.897  12.982  70.365  1.00  0.00     0.154 C  
HETATM   26  H   UNL     1     -14.344  14.158  71.042  1.00  0.00     0.000 HD 
HETATM   27  O   UNL     1     -13.872  13.381  71.317  1.00  0.00     0.026 OA 
BRANCH  25  28
HETATM   28  C   UNL     1     -11.876  14.110  70.113  1.00  0.00    -0.382 C  
HETATM   29  C   UNL     1     -10.659  13.904  69.181  1.00  0.00    -0.124 C  
HETATM   30  C   UNL     1      -9.871  15.225  69.296  1.00  0.00    -0.255 C  
HETATM   31  C   UNL     1     -10.993  13.567  67.699  1.00  0.00    -0.280 C  
HETATM   32  C   UNL     1      -9.752  13.269  66.846  1.00  0.00    -0.248 C  
HETATM   33  O   UNL     1     -10.410  16.329  69.357  1.00  0.00    -0.245 OA 
HETATM   34  N   UNL     1      -8.501  15.089  69.316  1.00  0.00    -0.324 N  
HETATM   35  C   UNL     1     -11.869  14.625  67.018  1.00  0.00    -0.358 C  
HETATM   36  H   UNL     1      -8.081  14.171  69.174  1.00  0.00     0.000 HD 
BRANCH  34  37
HETATM   37  C   UNL     1      -7.651  16.245  69.539  1.00  0.00    -0.004 C  
BRANCH  37  38
HETATM   38  C   UNL     1      -7.229  16.958  68.244  1.00  0.00    -0.186 C  
HETATM   39  C   UNL     1      -5.799  17.517  68.401  1.00  0.00    -0.160 C  
HETATM   40  C   UNL     1      -7.265  15.989  67.050  1.00  0.00    -0.249 C  
BRANCH  38  41
HETATM   41  C   UNL     1      -8.185  18.131  67.988  1.00  0.00    -0.260 C  
HETATM   42  N   UNL     1      -9.159  17.952  67.056  1.00  0.00    -0.248 N  
HETATM   43  O   UNL     1      -8.119  19.205  68.582  1.00  0.00    -0.349 OA 
HETATM   44  H2  UNL     1      -9.252  17.072  66.547  1.00  0.00     0.000 HD 
HETATM   45  H1  UNL     1      -9.794  18.731  66.886  1.00  0.00     0.000 HD 
ENDBRANCH  38  41
ENDBRANCH  37  38
ENDBRANCH  34  37
ENDBRANCH  25  28
ENDBRANCH  21  25
ENDBRANCH  17  21
ENDBRANCH  11  15
ENDBRANCH   6   7
ENDBRANCH   5   6
ENDBRANCH   4   5
ENDBRANCH   3   4
ENDBRANCH   2   3
TORSDOF 13
ENDMDL
MODEL      115
REMARK 921   NORMALIZED FREE ENERGY PREDICTED BY IDOCK:   -3.81 KCAL/MOL
REMARK 922        TOTAL FREE ENERGY PREDICTED BY IDOCK:   -9.01 KCAL/MOL
REMARK 923 INTER-LIGAND FREE ENERGY PREDICTED BY IDOCK:   -6.19 KCAL/MOL
REMARK 924 INTRA-LIGAND FREE ENERGY PREDICTED BY IDOCK:   -2.82 KCAL/MOL
REMARK 927      BINDING AFFINITY PREDICTED BY RF-SCORE:    0.00 PKD
ROOT
HETATM    1  C   UNL     1     -10.726   3.701  63.858  1.00  0.00    -0.255 C  
HETATM    2  O   UNL     1      -9.497   3.106  64.250  1.00  0.00    -0.130 OA 
ENDROOT
BRANCH   2   3
HETATM    3  C   UNL     1      -9.035   3.648  65.486  1.00  0.00    -0.138 C  
BRANCH   3   4
HETATM    4  C   UNL     1      -8.935   5.164  65.376  1.00  0.00    -0.157 C  
BRANCH   4   5
HETATM    5  C   UNL     1      -9.462   5.911  66.600  1.00  0.00    -0.151 C  
BRANCH   5   6
HETATM    6  O   UNL     1      -8.667   5.608  67.742  1.00  0.00    -0.109 OA 
BRANCH   6   7
HETATM    7  C   UNL     1      -8.341   6.595  68.639  1.00  0.00    -0.123 A  
HETATM    8  C   UNL     1      -8.174   6.165  69.973  1.00  0.00    -0.124 A  
HETATM    9  C   UNL     1      -7.989   7.112  70.984  1.00  0.00    -0.103 A  
HETATM   10  C   UNL     1      -8.321   7.963  68.339  1.00  0.00    -0.124 A  
HETATM   11  C   UNL     1      -8.217   8.918  69.368  1.00  0.00    -0.107 A  
HETATM   12  C   UNL     1      -8.032   8.476  70.680  1.00  0.00    -0.104 A  
BRANCH   8  13
HETATM   13  O   UNL     1      -8.223   4.807  70.181  1.00  0.00    -0.068 OA 
HETATM   14  C   UNL     1      -9.414   4.265  70.734  1.00  0.00    -0.171 C  
ENDBRANCH   8  13
BRANCH  11  15
HETATM   15  C   UNL     1      -8.521  10.378  69.102  1.00  0.00    -0.168 C  
HETATM   16  C   UNL     1      -7.636  11.235  68.160  1.00  0.00    -0.105 C  
HETATM   17  C   UNL     1      -8.333  12.628  67.917  1.00  0.00    -0.172 C  
HETATM   18  C   UNL     1      -6.173  11.496  68.634  1.00  0.00    -0.052 C  
HETATM   19  C   UNL     1      -5.289  10.247  68.584  1.00  0.00    -0.038 C  
HETATM   20  C   UNL     1      -6.074  12.168  70.004  1.00  0.00    -0.138 C  
BRANCH  17  21
HETATM   21  C   UNL     1      -9.701  12.576  67.207  1.00  0.00    -0.202 C  
HETATM   22  N   UNL     1      -9.496  13.039  65.829  1.00  0.00    -0.470 NA 
HETATM   23  H1  UNL     1     -10.400  13.005  65.359  1.00  0.00     0.000 HD 
HETATM   24  H2  UNL     1      -8.771  12.518  65.337  1.00  0.00     0.000 HD 
BRANCH  21  25
HETATM   25  C   UNL     1     -10.833  13.390  67.940  1.00  0.00    -0.247 C  
HETATM   26  H   UNL     1     -12.305  14.636  67.474  1.00  0.00     0.000 HD 
HETATM   27  O   UNL     1     -11.622  14.145  67.032  1.00  0.00    -0.343 OA 
BRANCH  25  28
HETATM   28  C   UNL     1     -11.705  12.403  68.742  1.00  0.00    -0.379 C  
HETATM   29  C   UNL     1     -11.786  12.469  70.285  1.00  0.00    -0.305 C  
HETATM   30  C   UNL     1     -12.672  11.264  70.664  1.00  0.00    -0.227 C  
HETATM   31  C   UNL     1     -12.348  13.795  70.875  1.00  0.00    -0.456 C  
HETATM   32  C   UNL     1     -12.308  13.846  72.408  1.00  0.00     0.051 C  
HETATM   33  O   UNL     1     -13.660  10.921  70.017  1.00  0.00     0.493 OA 
HETATM   34  N   UNL     1     -12.284  10.589  71.801  1.00  0.00    -0.192 N  
HETATM   35  C   UNL     1     -13.751  14.142  70.363  1.00  0.00     0.808 C  
HETATM   36  H   UNL     1     -11.516  10.949  72.367  1.00  0.00     0.000 HD 
BRANCH  34  37
HETATM   37  C   UNL     1     -12.963   9.368  72.199  1.00  0.00    -0.421 C  
BRANCH  37  38
HETATM   38  C   UNL     1     -12.310   8.092  71.641  1.00  0.00    -0.347 C  
HETATM   39  C   UNL     1     -13.399   7.034  71.360  1.00  0.00    -0.335 C  
HETATM   40  C   UNL     1     -11.548   8.392  70.339  1.00  0.00    -0.066 C  
BRANCH  38  41
HETATM   41  C   UNL     1     -11.343   7.528  72.690  1.00  0.00    -0.344 C  
HETATM   42  N   UNL     1     -11.490   6.221  73.036  1.00  0.00    -0.478 N  
HETATM   43  O   UNL     1     -10.451   8.188  73.218  1.00  0.00    -0.199 OA 
HETATM   44  H2  UNL     1     -12.214   5.639  72.615  1.00  0.00     0.000 HD 
HETATM   45  H1  UNL     1     -10.847   5.846  73.733  1.00  0.00     0.000 HD 
ENDBRANCH  38  41
ENDBRANCH  37  38
ENDBRANCH  34  37
ENDBRANCH  25  28
ENDBRANCH  21  25
ENDBRANCH  17  21
ENDBRANCH  11  15
ENDBRANCH   6   7
ENDBRANCH   5   6
ENDBRANCH   4   5
ENDBRANCH   3   4
ENDBRANCH   2   3
TORSDOF 13
ENDMDL
MODEL      116
REMARK 921   NORMALIZED FREE ENERGY PREDICTED BY IDOCK:   -3.77 KCAL/MOL
REMARK 922        TOTAL FREE ENERGY PREDICTED BY IDOCK:   -8.95 KCAL/MOL
REMARK 923 INTER-LIGAND FREE ENERGY PREDICTED BY IDOCK:   -6.97 KCAL/MOL
REMARK 924 INTRA-LIGAND FREE ENERGY PREDICTED BY IDOCK:   -1.97 KCAL/MOL
REMARK 927      BINDING AFFINITY PREDICTED BY RF-SCORE:    0.00 PKD
ROOT
HETATM    1  C   UNL     1      -7.466   8.066  64.930  1.00  0.00    -0.089 C  
HETATM    2  O   UNL     1      -8.261   8.012  63.754  1.00  0.00    -0.131 OA 
ENDROOT
BRANCH   2   3
HETATM    3  C   UNL     1      -8.636   9.320  63.326  1.00  0.00    -0.201 C  
BRANCH   3   4
HETATM    4  C   UNL     1      -8.892  10.202  64.540  1.00  0.00    -0.228 C  
BRANCH   4   5
HETATM    5  C   UNL     1      -9.773  11.417  64.249  1.00  0.00    -0.230 C  
BRANCH   5   6
HETATM    6  O   UNL     1     -11.085  11.208  64.760  1.00  0.00    -0.208 OA 
BRANCH   6   7
HETATM    7  C   UNL     1     -11.415  11.649  66.019  1.00  0.00    -0.125 A  
HETATM    8  C   UNL     1     -11.960  12.950  66.077  1.00  0.00    -0.446 A  
HETATM    9  C   UNL     1     -12.189  13.545  67.320  1.00  0.00    -0.305 A  
HETATM   10  C   UNL     1     -11.107  10.967  67.202  1.00  0.00    -0.333 A  
HETATM   11  C   UNL     1     -11.261  11.600  68.451  1.00  0.00    -0.307 A  
HETATM   12  C   UNL     1     -11.821  12.880  68.492  1.00  0.00    -0.350 A  
BRANCH   8  13
HETATM   13  O   UNL     1     -12.217  13.552  64.868  1.00  0.00    -0.375 OA 
HETATM   14  C   UNL     1     -11.847  14.915  64.716  1.00  0.00    -0.384 C  
ENDBRANCH   8  13
BRANCH  11  15
HETATM   15  C   UNL     1     -10.634  11.012  69.699  1.00  0.00    -0.132 C  
HETATM   16  C   UNL     1     -11.210   9.744  70.379  1.00  0.00    -0.362 C  
HETATM   17  C   UNL     1     -10.218   9.262  71.504  1.00  0.00    -0.338 C  
HETATM   18  C   UNL     1     -12.632   9.881  71.005  1.00  0.00    -0.431 C  
HETATM   19  C   UNL     1     -13.743  10.016  69.961  1.00  0.00     1.277 C  
HETATM   20  C   UNL     1     -12.744  10.989  72.054  1.00  0.00    -0.177 C  
BRANCH  17  21
HETATM   21  C   UNL     1      -8.819   8.829  71.022  1.00  0.00    -0.211 C  
HETATM   22  N   UNL     1      -8.894   8.650  69.567  1.00  0.00    -0.142 NA 
HETATM   23  H1  UNL     1      -7.969   8.363  69.247  1.00  0.00     0.000 HD 
HETATM   24  H2  UNL     1      -9.246   9.475  69.081  1.00  0.00     0.000 HD 
BRANCH  21  25
HETATM   25  C   UNL     1      -8.262   7.545  71.745  1.00  0.00    -0.106 C  
HETATM   26  H   UNL     1      -8.353   6.690  73.533  1.00  0.00     0.000 HD 
HETATM   27  O   UNL     1      -8.690   7.464  73.096  1.00  0.00    -0.127 OA 
BRANCH  25  28
HETATM   28  C   UNL     1      -8.708   6.302  70.948  1.00  0.00    -0.136 C  
HETATM   29  C   UNL     1      -7.678   5.321  70.340  1.00  0.00    -0.076 C  
HETATM   30  C   UNL     1      -8.542   4.305  69.565  1.00  0.00    -0.076 C  
HETATM   31  C   UNL     1      -6.739   4.611  71.358  1.00  0.00    -0.031 C  
HETATM   32  C   UNL     1      -5.671   3.733  70.693  1.00  0.00    -0.013 C  
HETATM   33  O   UNL     1      -9.617   3.877  69.981  1.00  0.00    -0.183 OA 
HETATM   34  N   UNL     1      -8.019   3.892  68.360  1.00  0.00    -0.075 N  
HETATM   35  C   UNL     1      -7.495   3.817  72.429  1.00  0.00    -0.055 C  
HETATM   36  H   UNL     1      -7.085   4.194  68.083  1.00  0.00     0.000 HD 
BRANCH  34  37
HETATM   37  C   UNL     1      -8.788   3.029  67.482  1.00  0.00    -0.139 C  
BRANCH  37  38
HETATM   38  C   UNL     1      -8.998   3.613  66.075  1.00  0.00    -0.144 C  
HETATM   39  C   UNL     1      -7.798   4.511  65.702  1.00  0.00    -0.094 C  
HETATM   40  C   UNL     1      -9.134   2.491  65.031  1.00  0.00    -0.137 C  
BRANCH  38  41
HETATM   41  C   UNL     1     -10.268   4.475  66.078  1.00  0.00    -0.260 C  
HETATM   42  N   UNL     1     -11.118   4.339  65.026  1.00  0.00    -0.847 N  
HETATM   43  O   UNL     1     -10.553   5.264  66.976  1.00  0.00    -0.244 OA 
HETATM   44  H2  UNL     1     -10.920   3.689  64.264  1.00  0.00     0.000 HD 
HETATM   45  H1  UNL     1     -11.962   4.911  65.028  1.00  0.00     0.000 HD 
ENDBRANCH  38  41
ENDBRANCH  37  38
ENDBRANCH  34  37
ENDBRANCH  25  28
ENDBRANCH  21  25
ENDBRANCH  17  21
ENDBRANCH  11  15
ENDBRANCH   6   7
ENDBRANCH   5   6
ENDBRANCH   4   5
ENDBRANCH   3   4
ENDBRANCH   2   3
TORSDOF 13
ENDMDL
MODEL      117
REMARK 921   NORMALIZED FREE ENERGY PREDICTED BY IDOCK:   -3.75 KCAL/MOL
REMARK 922        TOTAL FREE ENERGY PREDICTED BY IDOCK:   -8.91 KCAL/MOL
REMARK 923 INTER-LIGAND FREE ENERGY PREDICTED BY IDOCK:   -7.65 KCAL/MOL
REMARK 924 INTRA-LIGAND FREE ENERGY PREDICTED BY IDOCK:   -1.27 KCAL/MOL
REMARK 927      BINDING AFFINITY PREDICTED BY RF-SCORE:    0.00 PKD
ROOT
HETATM    1  C   UNL     1      -7.776  16.730  68.283  1.00  0.00    -0.187 C  
HETATM    2  O   UNL     1      -8.284  17.351  67.110  1.00  0.00    -0.200 OA 
ENDROOT
BRANCH   2   3
HETATM    3  C   UNL     1      -8.585  16.384  66.106  1.00  0.00    -0.308 C  
BRANCH   3   4
HETATM    4  C   UNL     1     -10.094  16.212  65.996  1.00  0.00    -0.372 C  
BRANCH   4   5
HETATM    5  C   UNL     1     -10.586  14.811  66.357  1.00  0.00    -0.300 C  
BRANCH   5   6
HETATM    6  O   UNL     1     -11.548  14.883  67.406  1.00  0.00    -0.355 OA 
BRANCH   6   7
HETATM    7  C   UNL     1     -11.766  13.797  68.218  1.00  0.00    -0.359 A  
HETATM    8  C   UNL     1     -11.971  14.097  69.582  1.00  0.00    -0.336 A  
HETATM    9  C   UNL     1     -12.053  13.057  70.511  1.00  0.00    -0.373 A  
HETATM   10  C   UNL     1     -11.646  12.464  67.807  1.00  0.00    -0.413 A  
HETATM   11  C   UNL     1     -11.646  11.422  68.755  1.00  0.00    -0.378 A  
HETATM   12  C   UNL     1     -11.870  11.735  70.098  1.00  0.00    -0.408 A  
BRANCH   8  13
HETATM   13  O   UNL     1     -12.061  15.432  69.900  1.00  0.00    -0.330 OA 
HETATM   14  C   UNL     1     -12.859  15.793  71.018  1.00  0.00    -0.369 C  
ENDBRANCH   8  13
BRANCH  11  15
HETATM   15  C   UNL     1     -11.194  10.028  68.372  1.00  0.00    -0.187 C  
HETATM   16  C   UNL     1      -9.764   9.520  68.689  1.00  0.00    -0.163 C  
HETATM   17  C   UNL     1      -9.677   7.979  68.372  1.00  0.00    -0.168 C  
HETATM   18  C   UNL     1      -8.594  10.239  67.948  1.00  0.00    -0.118 C  
HETATM   19  C   UNL     1      -8.362  11.672  68.432  1.00  0.00    -0.157 C  
HETATM   20  C   UNL     1      -8.708  10.199  66.423  1.00  0.00    -0.140 C  
BRANCH  17  21
HETATM   21  C   UNL     1     -10.596   7.070  69.213  1.00  0.00    -0.224 C  
HETATM   22  N   UNL     1     -11.271   7.924  70.199  1.00  0.00    -0.408 NA 
HETATM   23  H1  UNL     1     -11.878   7.323  70.756  1.00  0.00     0.000 HD 
HETATM   24  H2  UNL     1     -11.765   8.708  69.776  1.00  0.00     0.000 HD 
BRANCH  21  25
HETATM   25  C   UNL     1      -9.850   5.861  69.894  1.00  0.00    -0.174 C  
HETATM   26  H   UNL     1     -10.141   4.587  71.387  1.00  0.00     0.000 HD 
HETATM   27  O   UNL     1     -10.591   5.316  70.976  1.00  0.00    -0.228 OA 
BRANCH  25  28
HETATM   28  C   UNL     1      -9.573   4.790  68.820  1.00  0.00    -0.227 C  
HETATM   29  C   UNL     1      -8.153   4.572  68.245  1.00  0.00    -0.083 C  
HETATM   30  C   UNL     1      -8.352   3.498  67.156  1.00  0.00    -0.092 C  
HETATM   31  C   UNL     1      -7.068   4.144  69.275  1.00  0.00    -0.050 C  
HETATM   32  C   UNL     1      -5.660   4.044  68.672  1.00  0.00    -0.013 C  
HETATM   33  O   UNL     1      -9.110   2.538  67.284  1.00  0.00    -0.150 OA 
HETATM   34  N   UNL     1      -7.604   3.679  66.014  1.00  0.00    -0.080 N  
HETATM   35  C   UNL     1      -7.419   2.857  70.030  1.00  0.00    -0.044 C  
HETATM   36  H   UNL     1      -6.918   4.432  65.972  1.00  0.00     0.000 HD 
BRANCH  34  37
HETATM   37  C   UNL     1      -7.786   2.806  64.869  1.00  0.00    -0.081 C  
BRANCH  37  38
HETATM   38  C   UNL     1      -6.837   3.117  63.700  1.00  0.00    -0.039 C  
HETATM   39  C   UNL     1      -5.602   2.192  63.774  1.00  0.00    -0.009 C  
HETATM   40  C   UNL     1      -7.545   2.909  62.350  1.00  0.00    -0.053 C  
BRANCH  38  41
HETATM   41  C   UNL     1      -6.363   4.572  63.818  1.00  0.00    -0.026 C  
HETATM   42  N   UNL     1      -6.842   5.461  62.906  1.00  0.00    -0.032 N  
HETATM   43  O   UNL     1      -5.590   4.968  64.687  1.00  0.00    -0.013 OA 
HETATM   44  H2  UNL     1      -7.490   5.172  62.174  1.00  0.00     0.000 HD 
HETATM   45  H1  UNL     1      -6.527   6.427  62.985  1.00  0.00     0.000 HD 
ENDBRANCH  38  41
ENDBRANCH  37  38
ENDBRANCH  34  37
ENDBRANCH  25  28
ENDBRANCH  21  25
ENDBRANCH  17  21
ENDBRANCH  11  15
ENDBRANCH   6   7
ENDBRANCH   5   6
ENDBRANCH   4   5
ENDBRANCH   3   4
ENDBRANCH   2   3
TORSDOF 13
ENDMDL
MODEL      118
REMARK 921   NORMALIZED FREE ENERGY PREDICTED BY IDOCK:   -3.65 KCAL/MOL
REMARK 922        TOTAL FREE ENERGY PREDICTED BY IDOCK:   -8.73 KCAL/MOL
REMARK 923 INTER-LIGAND FREE ENERGY PREDICTED BY IDOCK:   -6.46 KCAL/MOL
REMARK 924 INTRA-LIGAND FREE ENERGY PREDICTED BY IDOCK:   -2.27 KCAL/MOL
REMARK 927      BINDING AFFINITY PREDICTED BY RF-SCORE:    0.00 PKD
ROOT
HETATM    1  C   UNL     1      -7.948  17.111  68.435  1.00  0.00    -0.250 C  
HETATM    2  O   UNL     1      -7.461  16.903  67.117  1.00  0.00    -0.150 OA 
ENDROOT
BRANCH   2   3
HETATM    3  C   UNL     1      -8.414  16.198  66.323  1.00  0.00    -0.322 C  
BRANCH   3   4
HETATM    4  C   UNL     1      -9.530  15.667  67.212  1.00  0.00    -0.221 C  
BRANCH   4   5
HETATM    5  C   UNL     1     -10.702  15.061  66.441  1.00  0.00    -0.322 C  
BRANCH   5   6
HETATM    6  O   UNL     1     -11.138  13.860  67.071  1.00  0.00    -0.291 OA 
BRANCH   6   7
HETATM    7  C   UNL     1     -10.605  12.651  66.696  1.00  0.00    -0.248 A  
HETATM    8  C   UNL     1     -11.237  12.030  65.596  1.00  0.00    -0.327 A  
HETATM    9  C   UNL     1     -10.867  10.733  65.232  1.00  0.00    -0.064 A  
HETATM   10  C   UNL     1      -9.617  11.964  67.413  1.00  0.00    -0.176 A  
HETATM   11  C   UNL     1      -9.305  10.628  67.097  1.00  0.00    -0.172 A  
HETATM   12  C   UNL     1      -9.924  10.035  65.993  1.00  0.00    -0.334 A  
BRANCH   8  13
HETATM   13  O   UNL     1     -12.205  12.769  64.960  1.00  0.00    -0.419 OA 
HETATM   14  C   UNL     1     -11.934  13.220  63.641  1.00  0.00    -0.486 C  
ENDBRANCH   8  13
BRANCH  11  15
HETATM   15  C   UNL     1      -8.493   9.777  68.051  1.00  0.00    -0.118 C  
HETATM   16  C   UNL     1      -6.953   9.919  68.159  1.00  0.00    -0.076 C  
HETATM   17  C   UNL     1      -6.437   9.068  69.381  1.00  0.00    -0.044 C  
HETATM   18  C   UNL     1      -6.130   9.512  66.897  1.00  0.00    -0.064 C  
HETATM   19  C   UNL     1      -6.295  10.485  65.728  1.00  0.00    -0.129 C  
HETATM   20  C   UNL     1      -6.373   8.074  66.436  1.00  0.00    -0.047 C  
BRANCH  17  21
HETATM   21  C   UNL     1      -6.955   9.505  70.766  1.00  0.00    -0.102 C  
HETATM   22  N   UNL     1      -6.338  10.801  71.074  1.00  0.00    -0.372 NA 
HETATM   23  H1  UNL     1      -6.680  11.091  71.990  1.00  0.00     0.000 HD 
HETATM   24  H2  UNL     1      -6.498  11.501  70.350  1.00  0.00     0.000 HD 
BRANCH  21  25
HETATM   25  C   UNL     1      -6.703   8.448  71.907  1.00  0.00    -0.081 C  
HETATM   26  H   UNL     1      -6.875   8.321  73.879  1.00  0.00     0.000 HD 
HETATM   27  O   UNL     1      -7.027   8.959  73.191  1.00  0.00    -0.333 OA 
BRANCH  25  28
HETATM   28  C   UNL     1      -7.526   7.183  71.591  1.00  0.00    -0.086 C  
HETATM   29  C   UNL     1      -6.907   5.769  71.698  1.00  0.00    -0.067 C  
HETATM   30  C   UNL     1      -8.030   4.831  71.209  1.00  0.00    -0.096 C  
HETATM   31  C   UNL     1      -6.398   5.360  73.111  1.00  0.00    -0.060 C  
HETATM   32  C   UNL     1      -5.699   3.994  73.136  1.00  0.00    -0.003 C  
HETATM   33  O   UNL     1      -9.217   4.997  71.486  1.00  0.00    -0.140 OA 
HETATM   34  N   UNL     1      -7.610   3.770  70.438  1.00  0.00    -0.044 N  
HETATM   35  C   UNL     1      -7.484   5.427  74.190  1.00  0.00    -0.090 C  
HETATM   36  H   UNL     1      -6.613   3.607  70.300  1.00  0.00     0.000 HD 
BRANCH  34  37
HETATM   37  C   UNL     1      -8.578   2.882  69.819  1.00  0.00    -0.066 C  
BRANCH  37  38
HETATM   38  C   UNL     1      -8.582   2.951  68.283  1.00  0.00    -0.115 C  
HETATM   39  C   UNL     1      -9.039   1.595  67.704  1.00  0.00    -0.177 C  
HETATM   40  C   UNL     1      -9.529   4.057  67.788  1.00  0.00    -0.228 C  
BRANCH  38  41
HETATM   41  C   UNL     1      -7.154   3.232  67.794  1.00  0.00    -0.050 C  
HETATM   42  N   UNL     1      -6.991   4.232  66.885  1.00  0.00    -0.058 N  
HETATM   43  O   UNL     1      -6.167   2.614  68.183  1.00  0.00    -0.027 OA 
HETATM   44  H2  UNL     1      -7.785   4.773  66.543  1.00  0.00     0.000 HD 
HETATM   45  H1  UNL     1      -6.043   4.419  66.560  1.00  0.00     0.000 HD 
ENDBRANCH  38  41
ENDBRANCH  37  38
ENDBRANCH  34  37
ENDBRANCH  25  28
ENDBRANCH  21  25
ENDBRANCH  17  21
ENDBRANCH  11  15
ENDBRANCH   6   7
ENDBRANCH   5   6
ENDBRANCH   4   5
ENDBRANCH   3   4
ENDBRANCH   2   3
TORSDOF 13
ENDMDL
MODEL      119
REMARK 921   NORMALIZED FREE ENERGY PREDICTED BY IDOCK:   -3.64 KCAL/MOL
REMARK 922        TOTAL FREE ENERGY PREDICTED BY IDOCK:   -8.72 KCAL/MOL
REMARK 923 INTER-LIGAND FREE ENERGY PREDICTED BY IDOCK:   -7.25 KCAL/MOL
REMARK 924 INTRA-LIGAND FREE ENERGY PREDICTED BY IDOCK:   -1.47 KCAL/MOL
REMARK 927      BINDING AFFINITY PREDICTED BY RF-SCORE:    0.00 PKD
ROOT
HETATM    1  C   UNL     1     -10.350  12.084  63.222  1.00  0.00    -0.359 C  
HETATM    2  O   UNL     1     -10.214  10.776  63.761  1.00  0.00    -0.339 OA 
ENDROOT
BRANCH   2   3
HETATM    3  C   UNL     1      -8.925  10.235  63.477  1.00  0.00    -0.242 C  
BRANCH   3   4
HETATM    4  C   UNL     1      -8.872   8.780  63.924  1.00  0.00     0.127 C  
BRANCH   4   5
HETATM    5  C   UNL     1      -7.705   8.461  64.859  1.00  0.00    -0.106 C  
BRANCH   5   6
HETATM    6  O   UNL     1      -7.461   7.058  64.881  1.00  0.00    -0.081 OA 
BRANCH   6   7
HETATM    7  C   UNL     1      -8.214   6.238  65.686  1.00  0.00    -0.143 A  
HETATM    8  C   UNL     1      -8.767   5.109  65.045  1.00  0.00    -0.148 A  
HETATM    9  C   UNL     1      -9.668   4.296  65.738  1.00  0.00    -0.208 A  
HETATM   10  C   UNL     1      -8.572   6.537  67.007  1.00  0.00    -0.113 A  
HETATM   11  C   UNL     1      -9.541   5.764  67.675  1.00  0.00    -0.119 A  
HETATM   12  C   UNL     1     -10.064   4.638  67.034  1.00  0.00    -0.207 A  
BRANCH   8  13
HETATM   13  O   UNL     1      -8.374   4.900  63.744  1.00  0.00    -0.116 OA 
HETATM   14  C   UNL     1      -8.043   3.574  63.358  1.00  0.00    -0.088 C  
ENDBRANCH   8  13
BRANCH  11  15
HETATM   15  C   UNL     1     -10.172   6.259  68.960  1.00  0.00    -0.224 C  
HETATM   16  C   UNL     1      -9.402   6.236  70.306  1.00  0.00    -0.170 C  
HETATM   17  C   UNL     1     -10.237   7.012  71.395  1.00  0.00    -0.208 C  
HETATM   18  C   UNL     1      -9.044   4.828  70.875  1.00  0.00    -0.181 C  
HETATM   19  C   UNL     1      -7.966   4.105  70.066  1.00  0.00    -0.055 C  
HETATM   20  C   UNL     1     -10.256   3.918  71.087  1.00  0.00     0.075 C  
BRANCH  17  21
HETATM   21  C   UNL     1     -10.468   8.511  71.117  1.00  0.00    -0.221 C  
HETATM   22  N   UNL     1     -11.493   8.609  70.071  1.00  0.00    -0.459 NA 
HETATM   23  H1  UNL     1     -11.646   9.601  69.886  1.00  0.00     0.000 HD 
HETATM   24  H2  UNL     1     -12.352   8.110  70.306  1.00  0.00     0.000 HD 
BRANCH  21  25
HETATM   25  C   UNL     1      -9.159   9.300  70.733  1.00  0.00    -0.244 C  
HETATM   26  H   UNL     1      -7.223   8.937  70.493  1.00  0.00     0.000 HD 
HETATM   27  O   UNL     1      -8.013   8.461  70.723  1.00  0.00    -0.091 OA 
BRANCH  25  28
HETATM   28  C   UNL     1      -9.371   9.962  69.357  1.00  0.00    -0.226 C  
HETATM   29  C   UNL     1      -8.663  11.284  68.980  1.00  0.00     0.026 C  
HETATM   30  C   UNL     1      -9.227  11.626  67.585  1.00  0.00    -0.178 C  
HETATM   31  C   UNL     1      -7.108  11.237  68.969  1.00  0.00    -0.116 C  
HETATM   32  C   UNL     1      -6.458  12.600  68.692  1.00  0.00    -0.079 C  
HETATM   33  O   UNL     1      -9.439  10.781  66.717  1.00  0.00    -0.169 OA 
HETATM   34  N   UNL     1      -9.472  12.963  67.366  1.00  0.00    -0.193 N  
HETATM   35  C   UNL     1      -6.539  10.171  68.027  1.00  0.00    -0.058 C  
HETATM   36  H   UNL     1      -9.202  13.650  68.069  1.00  0.00     0.000 HD 
BRANCH  34  37
HETATM   37  C   UNL     1     -10.112  13.401  66.139  1.00  0.00    -0.302 C  
BRANCH  37  38
HETATM   38  C   UNL     1     -11.240  14.423  66.364  1.00  0.00    -0.345 C  
HETATM   39  C   UNL     1     -11.191  15.501  65.259  1.00  0.00    -0.278 C  
HETATM   40  C   UNL     1     -12.614  13.734  66.339  1.00  0.00    -0.309 C  
BRANCH  38  41
HETATM   41  C   UNL     1     -11.027  15.107  67.721  1.00  0.00    -0.306 C  
HETATM   42  N   UNL     1     -12.069  15.097  68.596  1.00  0.00    -0.586 N  
HETATM   43  O   UNL     1      -9.975  15.648  68.054  1.00  0.00    -0.220 OA 
HETATM   44  H2  UNL     1     -12.956  14.652  68.359  1.00  0.00     0.000 HD 
HETATM   45  H1  UNL     1     -11.928  15.552  69.497  1.00  0.00     0.000 HD 
ENDBRANCH  38  41
ENDBRANCH  37  38
ENDBRANCH  34  37
ENDBRANCH  25  28
ENDBRANCH  21  25
ENDBRANCH  17  21
ENDBRANCH  11  15
ENDBRANCH   6   7
ENDBRANCH   5   6
ENDBRANCH   4   5
ENDBRANCH   3   4
ENDBRANCH   2   3
TORSDOF 13
ENDMDL
MODEL      120
REMARK 921   NORMALIZED FREE ENERGY PREDICTED BY IDOCK:   -3.64 KCAL/MOL
REMARK 922        TOTAL FREE ENERGY PREDICTED BY IDOCK:   -8.72 KCAL/MOL
REMARK 923 INTER-LIGAND FREE ENERGY PREDICTED BY IDOCK:   -8.07 KCAL/MOL
REMARK 924 INTRA-LIGAND FREE ENERGY PREDICTED BY IDOCK:   -0.65 KCAL/MOL
REMARK 927      BINDING AFFINITY PREDICTED BY RF-SCORE:    0.00 PKD
ROOT
HETATM    1  C   UNL     1      -9.539  19.071  68.461  1.00  0.00    -0.386 C  
HETATM    2  O   UNL     1      -8.871  19.241  67.218  1.00  0.00    -0.284 OA 
ENDROOT
BRANCH   2   3
HETATM    3  C   UNL     1      -7.537  18.739  67.279  1.00  0.00    -0.223 C  
BRANCH   3   4
HETATM    4  C   UNL     1      -7.497  17.322  66.724  1.00  0.00    -0.258 C  
BRANCH   4   5
HETATM    5  C   UNL     1      -6.090  16.826  66.390  1.00  0.00     0.195 C  
BRANCH   5   6
HETATM    6  O   UNL     1      -5.632  15.928  67.396  1.00  0.00    -0.251 OA 
BRANCH   6   7
HETATM    7  C   UNL     1      -6.526  15.133  68.071  1.00  0.00    -0.144 A  
HETATM    8  C   UNL     1      -6.380  13.746  67.855  1.00  0.00    -0.157 A  
HETATM    9  C   UNL     1      -7.330  12.864  68.377  1.00  0.00    -0.119 A  
HETATM   10  C   UNL     1      -7.619  15.615  68.802  1.00  0.00    -0.162 A  
HETATM   11  C   UNL     1      -8.619  14.733  69.255  1.00  0.00    -0.036 A  
HETATM   12  C   UNL     1      -8.449  13.361  69.052  1.00  0.00     0.365 A  
BRANCH   8  13
HETATM   13  O   UNL     1      -5.288  13.361  67.114  1.00  0.00    -0.313 OA 
HETATM   14  C   UNL     1      -5.278  12.043  66.585  1.00  0.00     0.101 C  
ENDBRANCH   8  13
BRANCH  11  15
HETATM   15  C   UNL     1      -9.950  15.261  69.750  1.00  0.00    -0.210 C  
HETATM   16  C   UNL     1     -11.295  14.687  69.235  1.00  0.00    -0.313 C  
HETATM   17  C   UNL     1     -12.476  15.281  70.094  1.00  0.00    -0.374 C  
HETATM   18  C   UNL     1     -11.617  14.928  67.728  1.00  0.00    -0.358 C  
HETATM   19  C   UNL     1     -10.729  14.116  66.782  1.00  0.00    -0.286 C  
HETATM   20  C   UNL     1     -11.624  16.403  67.322  1.00  0.00     0.536 C  
BRANCH  17  21
HETATM   21  C   UNL     1     -12.459  14.918  71.593  1.00  0.00    -0.331 C  
HETATM   22  N   UNL     1     -11.182  15.386  72.143  1.00  0.00    -0.403 NA 
HETATM   23  H1  UNL     1     -11.171  15.146  73.134  1.00  0.00     0.000 HD 
HETATM   24  H2  UNL     1     -11.013  16.377  71.971  1.00  0.00     0.000 HD 
BRANCH  21  25
HETATM   25  C   UNL     1     -12.700  13.388  71.883  1.00  0.00    -0.176 C  
HETATM   26  H   UNL     1     -14.164  12.209  72.518  1.00  0.00     0.000 HD 
HETATM   27  O   UNL     1     -14.019  13.131  72.342  1.00  0.00    -0.586 OA 
BRANCH  25  28
HETATM   28  C   UNL     1     -12.398  12.592  70.597  1.00  0.00    -0.375 C  
HETATM   29  C   UNL     1     -11.579  11.281  70.633  1.00  0.00    -0.117 C  
HETATM   30  C   UNL     1     -11.439  10.886  69.148  1.00  0.00    -0.303 C  
HETATM   31  C   UNL     1     -12.193  10.124  71.473  1.00  0.00    -0.473 C  
HETATM   32  C   UNL     1     -11.290   8.887  71.561  1.00  0.00    -0.395 C  
HETATM   33  O   UNL     1     -12.346  11.014  68.327  1.00  0.00    -0.479 OA 
HETATM   34  N   UNL     1     -10.215  10.362  68.795  1.00  0.00    -0.177 N  
HETATM   35  C   UNL     1     -13.604   9.728  71.022  1.00  0.00    -0.170 C  
HETATM   36  H   UNL     1      -9.514  10.184  69.514  1.00  0.00     0.000 HD 
BRANCH  34  37
HETATM   37  C   UNL     1      -9.917  10.061  67.407  1.00  0.00    -0.197 C  
BRANCH  37  38
HETATM   38  C   UNL     1      -9.037   8.814  67.223  1.00  0.00    -0.151 C  
HETATM   39  C   UNL     1      -9.037   8.393  65.737  1.00  0.00    -0.195 C  
HETATM   40  C   UNL     1      -7.592   9.092  67.670  1.00  0.00    -0.085 C  
BRANCH  38  41
HETATM   41  C   UNL     1      -9.624   7.664  68.054  1.00  0.00    -0.145 C  
HETATM   42  N   UNL     1     -10.917   7.316  67.812  1.00  0.00    -0.502 N  
HETATM   43  O   UNL     1      -8.990   7.046  68.906  1.00  0.00    -0.130 OA 
HETATM   44  H2  UNL     1     -11.474   7.800  67.108  1.00  0.00     0.000 HD 
HETATM   45  H1  UNL     1     -11.307   6.553  68.364  1.00  0.00     0.000 HD 
ENDBRANCH  38  41
ENDBRANCH  37  38
ENDBRANCH  34  37
ENDBRANCH  25  28
ENDBRANCH  21  25
ENDBRANCH  17  21
ENDBRANCH  11  15
ENDBRANCH   6   7
ENDBRANCH   5   6
ENDBRANCH   4   5
ENDBRANCH   3   4
ENDBRANCH   2   3
TORSDOF 13
ENDMDL
MODEL      121
REMARK 921   NORMALIZED FREE ENERGY PREDICTED BY IDOCK:   -3.62 KCAL/MOL
REMARK 922        TOTAL FREE ENERGY PREDICTED BY IDOCK:   -8.68 KCAL/MOL
REMARK 923 INTER-LIGAND FREE ENERGY PREDICTED BY IDOCK:   -8.24 KCAL/MOL
REMARK 924 INTRA-LIGAND FREE ENERGY PREDICTED BY IDOCK:   -0.43 KCAL/MOL
REMARK 927      BINDING AFFINITY PREDICTED BY RF-SCORE:    0.00 PKD
ROOT
HETATM    1  C   UNL     1     -11.002  13.714  65.336  1.00  0.00    -0.298 C  
HETATM    2  O   UNL     1     -11.564  12.418  65.178  1.00  0.00    -0.336 OA 
ENDROOT
BRANCH   2   3
HETATM    3  C   UNL     1     -10.654  11.408  65.612  1.00  0.00    -0.258 C  
BRANCH   3   4
HETATM    4  C   UNL     1     -10.957  11.032  67.056  1.00  0.00    -0.333 C  
BRANCH   4   5
HETATM    5  C   UNL     1     -10.358   9.694  67.487  1.00  0.00    -0.241 C  
BRANCH   5   6
HETATM    6  O   UNL     1     -10.251   9.636  68.906  1.00  0.00    -0.186 OA 
BRANCH   6   7
HETATM    7  C   UNL     1     -10.968  10.507  69.689  1.00  0.00    -0.283 A  
HETATM    8  C   UNL     1     -11.963   9.912  70.495  1.00  0.00    -0.239 A  
HETATM    9  C   UNL     1     -12.844  10.724  71.213  1.00  0.00    -0.540 A  
HETATM   10  C   UNL     1     -10.872  11.902  69.614  1.00  0.00     0.099 A  
HETATM   11  C   UNL     1     -11.812  12.718  70.273  1.00  0.00    -0.292 A  
HETATM   12  C   UNL     1     -12.778  12.114  71.082  1.00  0.00    -0.351 A  
BRANCH   8  13
HETATM   13  O   UNL     1     -11.997   8.538  70.497  1.00  0.00    -0.122 OA 
HETATM   14  C   UNL     1     -11.482   7.865  71.637  1.00  0.00    -0.263 C  
ENDBRANCH   8  13
BRANCH  11  15
HETATM   15  C   UNL     1     -11.922  14.192  69.942  1.00  0.00    -0.398 C  
HETATM   16  C   UNL     1     -11.839  15.282  71.043  1.00  0.00    -0.394 C  
HETATM   17  C   UNL     1     -11.763  16.702  70.363  1.00  0.00     0.490 C  
HETATM   18  C   UNL     1     -12.998  15.300  72.087  1.00  0.00    -0.452 C  
HETATM   19  C   UNL     1     -12.968  14.107  73.045  1.00  0.00    -0.432 C  
HETATM   20  C   UNL     1     -14.389  15.455  71.467  1.00  0.00    -0.572 C  
BRANCH  17  21
HETATM   21  C   UNL     1     -10.521  16.956  69.485  1.00  0.00    -0.228 C  
HETATM   22  N   UNL     1     -10.604  18.340  69.001  1.00  0.00    -0.309 NA 
HETATM   23  H1  UNL     1      -9.783  18.508  68.420  1.00  0.00     0.000 HD 
HETATM   24  H2  UNL     1     -10.706  19.020  69.754  1.00  0.00     0.000 HD 
BRANCH  21  25
HETATM   25  C   UNL     1     -10.352  15.928  68.303  1.00  0.00    -0.242 C  
HETATM   26  H   UNL     1     -10.142  15.955  66.330  1.00  0.00     0.000 HD 
HETATM   27  O   UNL     1     -10.244  16.575  67.043  1.00  0.00    -0.277 OA 
BRANCH  25  28
HETATM   28  C   UNL     1      -9.112  15.057  68.586  1.00  0.00    -0.191 C  
HETATM   29  C   UNL     1      -7.824  15.187  67.739  1.00  0.00    -0.161 C  
HETATM   30  C   UNL     1      -6.899  14.084  68.293  1.00  0.00    -0.108 C  
HETATM   31  C   UNL     1      -7.132  16.580  67.773  1.00  0.00    -0.154 C  
HETATM   32  C   UNL     1      -5.922  16.684  66.834  1.00  0.00    -0.152 C  
HETATM   33  O   UNL     1      -6.815  13.811  69.490  1.00  0.00    -0.089 OA 
HETATM   34  N   UNL     1      -6.151  13.419  67.347  1.00  0.00    -0.097 N  
HETATM   35  C   UNL     1      -6.755  17.037  69.186  1.00  0.00    -0.241 C  
HETATM   36  H   UNL     1      -6.174  13.726  66.375  1.00  0.00     0.000 HD 
BRANCH  34  37
HETATM   37  C   UNL     1      -5.330  12.282  67.725  1.00  0.00    -0.082 C  
BRANCH  37  38
HETATM   38  C   UNL     1      -6.034  10.927  67.539  1.00  0.00    -0.045 C  
HETATM   39  C   UNL     1      -7.388  11.139  66.829  1.00  0.00    -0.146 C  
HETATM   40  C   UNL     1      -5.167   9.971  66.702  1.00  0.00    -0.040 C  
BRANCH  38  41
HETATM   41  C   UNL     1      -6.299  10.311  68.920  1.00  0.00    -0.047 C  
HETATM   42  N   UNL     1      -7.443  10.679  69.558  1.00  0.00    -0.200 N  
HETATM   43  O   UNL     1      -5.545   9.508  69.465  1.00  0.00    -0.034 OA 
HETATM   44  H2  UNL     1      -8.098  11.337  69.137  1.00  0.00     0.000 HD 
HETATM   45  H1  UNL     1      -7.619  10.270  70.476  1.00  0.00     0.000 HD 
ENDBRANCH  38  41
ENDBRANCH  37  38
ENDBRANCH  34  37
ENDBRANCH  25  28
ENDBRANCH  21  25
ENDBRANCH  17  21
ENDBRANCH  11  15
ENDBRANCH   6   7
ENDBRANCH   5   6
ENDBRANCH   4   5
ENDBRANCH   3   4
ENDBRANCH   2   3
TORSDOF 13
ENDMDL
MODEL      122
REMARK 921   NORMALIZED FREE ENERGY PREDICTED BY IDOCK:   -3.61 KCAL/MOL
REMARK 922        TOTAL FREE ENERGY PREDICTED BY IDOCK:   -8.67 KCAL/MOL
REMARK 923 INTER-LIGAND FREE ENERGY PREDICTED BY IDOCK:   -8.08 KCAL/MOL
REMARK 924 INTRA-LIGAND FREE ENERGY PREDICTED BY IDOCK:   -0.59 KCAL/MOL
REMARK 927      BINDING AFFINITY PREDICTED BY RF-SCORE:    0.00 PKD
ROOT
HETATM    1  C   UNL     1     -12.618  11.975  63.471  1.00  0.00    -0.507 C  
HETATM    2  O   UNL     1     -12.744  13.070  64.368  1.00  0.00    -0.652 OA 
ENDROOT
BRANCH   2   3
HETATM    3  C   UNL     1     -11.556  13.241  65.140  1.00  0.00    -0.308 C  
BRANCH   3   4
HETATM    4  C   UNL     1     -11.603  12.331  66.360  1.00  0.00    -0.445 C  
BRANCH   4   5
HETATM    5  C   UNL     1     -11.743  13.079  67.686  1.00  0.00    -0.366 C  
BRANCH   5   6
HETATM    6  O   UNL     1     -10.813  12.573  68.638  1.00  0.00    -0.235 OA 
BRANCH   6   7
HETATM    7  C   UNL     1     -11.196  11.600  69.528  1.00  0.00    -0.213 A  
HETATM    8  C   UNL     1     -12.282  11.942  70.363  1.00  0.00    -0.314 A  
HETATM    9  C   UNL     1     -12.650  11.081  71.400  1.00  0.00    -0.498 A  
HETATM   10  C   UNL     1     -10.497  10.406  69.745  1.00  0.00    -0.284 A  
HETATM   11  C   UNL     1     -10.817   9.581  70.841  1.00  0.00    -0.407 A  
HETATM   12  C   UNL     1     -11.907   9.923  71.645  1.00  0.00    -0.374 A  
BRANCH   8  13
HETATM   13  O   UNL     1     -12.900  13.138  70.090  1.00  0.00     0.053 OA 
HETATM   14  C   UNL     1     -12.832  14.159  71.076  1.00  0.00    -0.351 C  
ENDBRANCH   8  13
BRANCH  11  15
HETATM   15  C   UNL     1      -9.877   8.476  71.278  1.00  0.00    -0.279 C  
HETATM   16  C   UNL     1      -9.822   7.115  70.538  1.00  0.00    -0.181 C  
HETATM   17  C   UNL     1      -8.604   6.276  71.085  1.00  0.00    -0.125 C  
HETATM   18  C   UNL     1     -11.104   6.230  70.623  1.00  0.00    -0.389 C  
HETATM   19  C   UNL     1     -12.282   6.793  69.825  1.00  0.00     0.388 C  
HETATM   20  C   UNL     1     -11.535   5.897  72.053  1.00  0.00    -0.311 C  
BRANCH  17  21
HETATM   21  C   UNL     1      -7.210   6.890  70.848  1.00  0.00    -0.072 C  
HETATM   22  N   UNL     1      -6.877   7.689  72.034  1.00  0.00    -0.061 NA 
HETATM   23  H1  UNL     1      -5.955   8.095  71.878  1.00  0.00     0.000 HD 
HETATM   24  H2  UNL     1      -6.937   7.157  72.903  1.00  0.00     0.000 HD 
BRANCH  21  25
HETATM   25  C   UNL     1      -7.099   7.732  69.521  1.00  0.00    -0.063 C  
HETATM   26  H   UNL     1      -5.684   8.411  68.308  1.00  0.00     0.000 HD 
HETATM   27  O   UNL     1      -5.751   7.903  69.108  1.00  0.00    -0.029 OA 
BRANCH  25  28
HETATM   28  C   UNL     1      -7.928   7.031  68.426  1.00  0.00    -0.123 C  
HETATM   29  C   UNL     1      -7.296   5.979  67.485  1.00  0.00    -0.077 C  
HETATM   30  C   UNL     1      -8.434   5.622  66.506  1.00  0.00    -0.114 C  
HETATM   31  C   UNL     1      -6.724   4.710  68.179  1.00  0.00    -0.054 C  
HETATM   32  C   UNL     1      -6.016   3.751  67.211  1.00  0.00    -0.024 C  
HETATM   33  O   UNL     1      -9.609   5.502  66.851  1.00  0.00    -0.127 OA 
HETATM   34  N   UNL     1      -8.043   5.431  65.199  1.00  0.00    -0.115 N  
HETATM   35  C   UNL     1      -7.761   3.956  69.018  1.00  0.00    -0.053 C  
HETATM   36  H   UNL     1      -7.052   5.448  64.960  1.00  0.00     0.000 HD 
BRANCH  34  37
HETATM   37  C   UNL     1      -9.033   5.207  64.161  1.00  0.00     0.067 C  
BRANCH  37  38
HETATM   38  C   UNL     1      -9.276   3.720  63.854  1.00  0.00    -0.131 C  
HETATM   39  C   UNL     1      -8.806   3.403  62.418  1.00  0.00    -0.084 C  
HETATM   40  C   UNL     1      -8.512   2.825  64.845  1.00  0.00    -0.094 C  
BRANCH  38  41
HETATM   41  C   UNL     1     -10.781   3.432  63.949  1.00  0.00    -0.218 C  
HETATM   42  N   UNL     1     -11.525   4.251  64.740  1.00  0.00    -0.596 N  
HETATM   43  O   UNL     1     -11.338   2.517  63.347  1.00  0.00    -0.313 OA 
HETATM   44  H2  UNL     1     -11.100   5.025  65.250  1.00  0.00     0.000 HD 
HETATM   45  H1  UNL     1     -12.524   4.060  64.803  1.00  0.00     0.000 HD 
ENDBRANCH  38  41
ENDBRANCH  37  38
ENDBRANCH  34  37
ENDBRANCH  25  28
ENDBRANCH  21  25
ENDBRANCH  17  21
ENDBRANCH  11  15
ENDBRANCH   6   7
ENDBRANCH   5   6
ENDBRANCH   4   5
ENDBRANCH   3   4
ENDBRANCH   2   3
TORSDOF 13
ENDMDL
MODEL      123
REMARK 921   NORMALIZED FREE ENERGY PREDICTED BY IDOCK:   -3.57 KCAL/MOL
REMARK 922        TOTAL FREE ENERGY PREDICTED BY IDOCK:   -8.60 KCAL/MOL
REMARK 923 INTER-LIGAND FREE ENERGY PREDICTED BY IDOCK:   -7.96 KCAL/MOL
REMARK 924 INTRA-LIGAND FREE ENERGY PREDICTED BY IDOCK:   -0.64 KCAL/MOL
REMARK 927      BINDING AFFINITY PREDICTED BY RF-SCORE:    0.00 PKD
ROOT
HETATM    1  C   UNL     1     -10.500  17.365  68.136  1.00  0.00    -0.389 C  
HETATM    2  O   UNL     1     -10.488  16.007  67.717  1.00  0.00    -0.281 OA 
ENDROOT
BRANCH   2   3
HETATM    3  C   UNL     1     -11.750  15.385  67.956  1.00  0.00    -0.221 C  
BRANCH   3   4
HETATM    4  C   UNL     1     -11.607  14.345  69.060  1.00  0.00    -0.330 C  
BRANCH   4   5
HETATM    5  C   UNL     1     -11.893  12.915  68.604  1.00  0.00    -0.312 C  
BRANCH   5   6
HETATM    6  O   UNL     1     -11.878  12.838  67.182  1.00  0.00    -0.365 OA 
BRANCH   6   7
HETATM    7  C   UNL     1     -10.831  12.229  66.534  1.00  0.00    -0.259 A  
HETATM    8  C   UNL     1     -11.137  11.701  65.261  1.00  0.00    -0.236 A  
HETATM    9  C   UNL     1     -10.183  10.934  64.587  1.00  0.00    -0.411 A  
HETATM   10  C   UNL     1      -9.579  11.981  67.111  1.00  0.00    -0.195 A  
HETATM   11  C   UNL     1      -8.651  11.140  66.467  1.00  0.00    -0.169 A  
HETATM   12  C   UNL     1      -8.961  10.642  65.199  1.00  0.00    -0.217 A  
BRANCH   8  13
HETATM   13  O   UNL     1     -12.393  11.979  64.778  1.00  0.00    -0.334 OA 
HETATM   14  C   UNL     1     -12.491  12.816  63.633  1.00  0.00    -0.389 C  
ENDBRANCH   8  13
BRANCH  11  15
HETATM   15  C   UNL     1      -7.447  10.603  67.213  1.00  0.00    -0.099 C  
HETATM   16  C   UNL     1      -7.039  11.153  68.604  1.00  0.00    -0.090 C  
HETATM   17  C   UNL     1      -5.898  10.248  69.206  1.00  0.00    -0.037 C  
HETATM   18  C   UNL     1      -6.562  12.638  68.648  1.00  0.00    -0.083 C  
HETATM   19  C   UNL     1      -7.690  13.643  68.407  1.00  0.00    -0.138 C  
HETATM   20  C   UNL     1      -5.373  12.935  67.731  1.00  0.00    -0.114 C  
BRANCH  17  21
HETATM   21  C   UNL     1      -6.282   8.780  69.478  1.00  0.00    -0.040 C  
HETATM   22  N   UNL     1      -6.218   8.066  68.197  1.00  0.00    -0.045 NA 
HETATM   23  H1  UNL     1      -6.472   7.095  68.377  1.00  0.00     0.000 HD 
HETATM   24  H2  UNL     1      -5.315   8.162  67.732  1.00  0.00     0.000 HD 
BRANCH  21  25
HETATM   25  C   UNL     1      -7.682   8.605  70.180  1.00  0.00    -0.081 C  
HETATM   26  H   UNL     1      -9.018   9.724  71.129  1.00  0.00     0.000 HD 
HETATM   27  O   UNL     1      -8.174   9.830  70.705  1.00  0.00    -0.246 OA 
BRANCH  25  28
HETATM   28  C   UNL     1      -8.670   8.005  69.159  1.00  0.00    -0.137 C  
HETATM   29  C   UNL     1      -9.103   6.522  69.230  1.00  0.00    -0.137 C  
HETATM   30  C   UNL     1      -9.998   6.334  67.989  1.00  0.00    -0.137 C  
HETATM   31  C   UNL     1      -9.839   6.097  70.533  1.00  0.00    -0.214 C  
HETATM   32  C   UNL     1     -10.151   4.595  70.595  1.00  0.00    -0.261 C  
HETATM   33  O   UNL     1     -10.799   7.182  67.598  1.00  0.00    -0.237 OA 
HETATM   34  N   UNL     1      -9.850   5.128  67.339  1.00  0.00    -0.155 N  
HETATM   35  C   UNL     1     -11.103   6.918  70.813  1.00  0.00    -0.317 C  
HETATM   36  H   UNL     1      -9.247   4.409  67.737  1.00  0.00     0.000 HD 
BRANCH  34  37
HETATM   37  C   UNL     1     -10.548   4.875  66.092  1.00  0.00    -0.271 C  
BRANCH  37  38
HETATM   38  C   UNL     1      -9.772   3.963  65.127  1.00  0.00    -0.191 C  
HETATM   39  C   UNL     1      -9.365   2.664  65.855  1.00  0.00    -0.004 C  
HETATM   40  C   UNL     1     -10.630   3.608  63.900  1.00  0.00    -0.285 C  
BRANCH  38  41
HETATM   41  C   UNL     1      -8.496   4.687  64.675  1.00  0.00    -0.135 C  
HETATM   42  N   UNL     1      -8.589   5.495  63.585  1.00  0.00    -0.324 N  
HETATM   43  O   UNL     1      -7.414   4.581  65.248  1.00  0.00    -0.074 OA 
HETATM   44  H2  UNL     1      -9.471   5.615  63.087  1.00  0.00     0.000 HD 
HETATM   45  H1  UNL     1      -7.742   5.976  63.285  1.00  0.00     0.000 HD 
ENDBRANCH  38  41
ENDBRANCH  37  38
ENDBRANCH  34  37
ENDBRANCH  25  28
ENDBRANCH  21  25
ENDBRANCH  17  21
ENDBRANCH  11  15
ENDBRANCH   6   7
ENDBRANCH   5   6
ENDBRANCH   4   5
ENDBRANCH   3   4
ENDBRANCH   2   3
TORSDOF 13
ENDMDL
MODEL      124
REMARK 921   NORMALIZED FREE ENERGY PREDICTED BY IDOCK:   -3.57 KCAL/MOL
REMARK 922        TOTAL FREE ENERGY PREDICTED BY IDOCK:   -8.60 KCAL/MOL
REMARK 923 INTER-LIGAND FREE ENERGY PREDICTED BY IDOCK:   -8.09 KCAL/MOL
REMARK 924 INTRA-LIGAND FREE ENERGY PREDICTED BY IDOCK:   -0.51 KCAL/MOL
REMARK 927      BINDING AFFINITY PREDICTED BY RF-SCORE:    0.00 PKD
ROOT
HETATM    1  C   UNL     1     -11.617  12.594  63.384  1.00  0.00    -0.469 C  
HETATM    2  O   UNL     1     -10.437  11.986  63.891  1.00  0.00    -0.327 OA 
ENDROOT
BRANCH   2   3
HETATM    3  C   UNL     1     -10.752  10.886  64.744  1.00  0.00    -0.178 C  
BRANCH   3   4
HETATM    4  C   UNL     1      -9.628   9.860  64.692  1.00  0.00    -0.320 C  
BRANCH   4   5
HETATM    5  C   UNL     1      -8.237  10.473  64.523  1.00  0.00    -0.077 C  
BRANCH   5   6
HETATM    6  O   UNL     1      -7.537  10.454  65.763  1.00  0.00    -0.138 OA 
BRANCH   6   7
HETATM    7  C   UNL     1      -7.413  11.604  66.505  1.00  0.00     0.032 A  
HETATM    8  C   UNL     1      -6.125  11.845  67.029  1.00  0.00    -0.149 A  
HETATM    9  C   UNL     1      -5.932  12.906  67.918  1.00  0.00    -0.125 A  
HETATM   10  C   UNL     1      -8.485  12.424  66.878  1.00  0.00    -0.147 A  
HETATM   11  C   UNL     1      -8.305  13.440  67.836  1.00  0.00    -0.166 A  
HETATM   12  C   UNL     1      -7.020  13.680  68.330  1.00  0.00    -0.104 A  
BRANCH   8  13
HETATM   13  O   UNL     1      -5.135  10.983  66.623  1.00  0.00    -0.059 OA 
HETATM   14  C   UNL     1      -5.174   9.651  67.117  1.00  0.00    -0.035 C  
ENDBRANCH   8  13
BRANCH  11  15
HETATM   15  C   UNL     1      -9.499  14.109  68.487  1.00  0.00    -0.202 C  
HETATM   16  C   UNL     1     -10.762  14.491  67.673  1.00  0.00    -0.254 C  
HETATM   17  C   UNL     1     -11.896  14.957  68.663  1.00  0.00    -0.332 C  
HETATM   18  C   UNL     1     -10.577  15.593  66.585  1.00  0.00    -0.307 C  
HETATM   19  C   UNL     1      -9.753  15.126  65.384  1.00  0.00    -0.239 C  
HETATM   20  C   UNL     1     -10.031  16.916  67.129  1.00  0.00    -0.276 C  
BRANCH  17  21
HETATM   21  C   UNL     1     -12.395  13.890  69.658  1.00  0.00    -0.249 C  
HETATM   22  N   UNL     1     -11.420  13.822  70.753  1.00  0.00    -0.417 NA 
HETATM   23  H1  UNL     1     -11.750  13.116  71.411  1.00  0.00     0.000 HD 
HETATM   24  H2  UNL     1     -11.249  14.727  71.191  1.00  0.00     0.000 HD 
BRANCH  21  25
HETATM   25  C   UNL     1     -12.649  12.478  69.007  1.00  0.00     0.732 C  
HETATM   26  H   UNL     1     -12.074  11.456  67.407  1.00  0.00     0.000 HD 
HETATM   27  O   UNL     1     -11.921  12.307  67.800  1.00  0.00    -0.474 OA 
BRANCH  25  28
HETATM   28  C   UNL     1     -12.278  11.391  70.035  1.00  0.00    -0.377 C  
HETATM   29  C   UNL     1     -11.859   9.970  69.592  1.00  0.00    -0.037 C  
HETATM   30  C   UNL     1     -11.677   9.202  70.918  1.00  0.00    -0.284 C  
HETATM   31  C   UNL     1     -10.580   9.889  68.708  1.00  0.00    -0.246 C  
HETATM   32  C   UNL     1     -10.271   8.470  68.210  1.00  0.00    -0.244 C  
HETATM   33  O   UNL     1     -11.171   9.700  71.922  1.00  0.00    -0.242 OA 
HETATM   34  N   UNL     1     -12.117   7.897  70.902  1.00  0.00    -0.468 N  
HETATM   35  C   UNL     1      -9.343  10.506  69.370  1.00  0.00    -0.139 C  
HETATM   36  H   UNL     1     -12.448   7.485  70.031  1.00  0.00     0.000 HD 
BRANCH  34  37
HETATM   37  C   UNL     1     -12.110   7.105  72.118  1.00  0.00    -0.246 C  
BRANCH  37  38
HETATM   38  C   UNL     1     -10.933   6.119  72.205  1.00  0.00    -0.307 C  
HETATM   39  C   UNL     1     -11.355   4.877  73.019  1.00  0.00    -0.354 C  
HETATM   40  C   UNL     1     -10.486   5.677  70.802  1.00  0.00    -0.335 C  
BRANCH  38  41
HETATM   41  C   UNL     1      -9.765   6.803  72.929  1.00  0.00    -0.155 C  
HETATM   42  N   UNL     1      -8.769   7.319  72.160  1.00  0.00    -0.120 N  
HETATM   43  O   UNL     1      -9.691   6.911  74.151  1.00  0.00    -0.254 OA 
HETATM   44  H2  UNL     1      -8.798   7.256  71.142  1.00  0.00     0.000 HD 
HETATM   45  H1  UNL     1      -7.993   7.773  72.641  1.00  0.00     0.000 HD 
ENDBRANCH  38  41
ENDBRANCH  37  38
ENDBRANCH  34  37
ENDBRANCH  25  28
ENDBRANCH  21  25
ENDBRANCH  17  21
ENDBRANCH  11  15
ENDBRANCH   6   7
ENDBRANCH   5   6
ENDBRANCH   4   5
ENDBRANCH   3   4
ENDBRANCH   2   3
TORSDOF 13
ENDMDL
MODEL      125
REMARK 921   NORMALIZED FREE ENERGY PREDICTED BY IDOCK:   -3.55 KCAL/MOL
REMARK 922        TOTAL FREE ENERGY PREDICTED BY IDOCK:   -8.56 KCAL/MOL
REMARK 923 INTER-LIGAND FREE ENERGY PREDICTED BY IDOCK:   -6.35 KCAL/MOL
REMARK 924 INTRA-LIGAND FREE ENERGY PREDICTED BY IDOCK:   -2.22 KCAL/MOL
REMARK 927      BINDING AFFINITY PREDICTED BY RF-SCORE:    0.00 PKD
ROOT
HETATM    1  C   UNL     1     -11.818  11.499  67.197  1.00  0.00     0.086 C  
HETATM    2  O   UNL     1     -11.612  10.574  68.255  1.00  0.00    -0.367 OA 
ENDROOT
BRANCH   2   3
HETATM    3  C   UNL     1     -11.809  11.193  69.525  1.00  0.00    -0.353 C  
BRANCH   3   4
HETATM    4  C   UNL     1     -12.809  10.383  70.340  1.00  0.00    -0.249 C  
BRANCH   4   5
HETATM    5  C   UNL     1     -12.321   8.981  70.703  1.00  0.00     0.083 C  
BRANCH   5   6
HETATM    6  O   UNL     1     -11.059   9.053  71.360  1.00  0.00    -0.274 OA 
BRANCH   6   7
HETATM    7  C   UNL     1      -9.980   8.364  70.862  1.00  0.00    -0.191 A  
HETATM    8  C   UNL     1      -9.042   7.937  71.826  1.00  0.00    -0.147 A  
HETATM    9  C   UNL     1      -7.840   7.359  71.409  1.00  0.00    -0.095 A  
HETATM   10  C   UNL     1      -9.701   8.209  69.498  1.00  0.00    -0.170 A  
HETATM   11  C   UNL     1      -8.455   7.703  69.079  1.00  0.00    -0.132 A  
HETATM   12  C   UNL     1      -7.546   7.266  70.045  1.00  0.00    -0.090 A  
BRANCH   8  13
HETATM   13  O   UNL     1      -9.390   8.142  73.140  1.00  0.00    -0.265 OA 
HETATM   14  C   UNL     1     -10.242   7.186  73.756  1.00  0.00    -0.352 C  
ENDBRANCH   8  13
BRANCH  11  15
HETATM   15  C   UNL     1      -8.014   7.834  67.635  1.00  0.00    -0.124 C  
HETATM   16  C   UNL     1      -9.033   7.804  66.467  1.00  0.00    -0.191 C  
HETATM   17  C   UNL     1      -8.296   8.185  65.126  1.00  0.00    -0.152 C  
HETATM   18  C   UNL     1      -9.791   6.460  66.245  1.00  0.00    -0.049 C  
HETATM   19  C   UNL     1     -10.808   6.149  67.345  1.00  0.00    -0.431 C  
HETATM   20  C   UNL     1      -8.871   5.260  66.010  1.00  0.00    -0.141 C  
BRANCH  17  21
HETATM   21  C   UNL     1      -7.700   9.606  65.071  1.00  0.00    -0.119 C  
HETATM   22  N   UNL     1      -7.917  10.119  63.713  1.00  0.00    -0.154 NA 
HETATM   23  H1  UNL     1      -7.522  11.059  63.676  1.00  0.00     0.000 HD 
HETATM   24  H2  UNL     1      -8.895  10.086  63.425  1.00  0.00     0.000 HD 
BRANCH  21  25
HETATM   25  C   UNL     1      -6.184   9.679  65.494  1.00  0.00    -0.069 C  
HETATM   26  H   UNL     1      -4.397   9.478  64.655  1.00  0.00     0.000 HD 
HETATM   27  O   UNL     1      -5.311   9.434  64.400  1.00  0.00    -0.056 OA 
BRANCH  25  28
HETATM   28  C   UNL     1      -5.916  11.065  66.115  1.00  0.00    -0.132 C  
HETATM   29  C   UNL     1      -6.981  11.783  66.976  1.00  0.00    -0.135 C  
HETATM   30  C   UNL     1      -6.341  13.148  67.301  1.00  0.00     0.106 C  
HETATM   31  C   UNL     1      -7.417  11.036  68.270  1.00  0.00    -0.092 C  
HETATM   32  C   UNL     1      -8.550  11.742  69.029  1.00  0.00     0.228 C  
HETATM   33  O   UNL     1      -5.148  13.289  67.568  1.00  0.00    -0.282 OA 
HETATM   34  N   UNL     1      -7.208  14.219  67.285  1.00  0.00    -0.290 N  
HETATM   35  C   UNL     1      -6.251  10.726  69.215  1.00  0.00    -0.052 C  
HETATM   36  H   UNL     1      -8.206  14.060  67.150  1.00  0.00     0.000 HD 
BRANCH  34  37
HETATM   37  C   UNL     1      -6.709  15.571  67.458  1.00  0.00    -0.190 C  
BRANCH  37  38
HETATM   38  C   UNL     1      -7.623  16.646  66.846  1.00  0.00    -0.262 C  
HETATM   39  C   UNL     1      -6.815  17.509  65.852  1.00  0.00    -0.203 C  
HETATM   40  C   UNL     1      -8.809  16.002  66.110  1.00  0.00    -0.366 C  
BRANCH  38  41
HETATM   41  C   UNL     1      -8.142  17.555  67.969  1.00  0.00    -0.237 C  
HETATM   42  N   UNL     1      -8.951  18.588  67.612  1.00  0.00    -0.269 N  
HETATM   43  O   UNL     1      -7.873  17.392  69.157  1.00  0.00    -0.169 OA 
HETATM   44  H2  UNL     1      -9.204  18.753  66.638  1.00  0.00     0.000 HD 
HETATM   45  H1  UNL     1      -9.296  19.192  68.358  1.00  0.00     0.000 HD 
ENDBRANCH  38  41
ENDBRANCH  37  38
ENDBRANCH  34  37
ENDBRANCH  25  28
ENDBRANCH  21  25
ENDBRANCH  17  21
ENDBRANCH  11  15
ENDBRANCH   6   7
ENDBRANCH   5   6
ENDBRANCH   4   5
ENDBRANCH   3   4
ENDBRANCH   2   3
TORSDOF 13
ENDMDL
MODEL      126
REMARK 921   NORMALIZED FREE ENERGY PREDICTED BY IDOCK:   -3.54 KCAL/MOL
REMARK 922        TOTAL FREE ENERGY PREDICTED BY IDOCK:   -8.54 KCAL/MOL
REMARK 923 INTER-LIGAND FREE ENERGY PREDICTED BY IDOCK:   -7.37 KCAL/MOL
REMARK 924 INTRA-LIGAND FREE ENERGY PREDICTED BY IDOCK:   -1.17 KCAL/MOL
REMARK 927      BINDING AFFINITY PREDICTED BY RF-SCORE:    0.00 PKD
ROOT
HETATM    1  C   UNL     1      -8.059   7.360  63.764  1.00  0.00    -0.017 C  
HETATM    2  O   UNL     1      -8.009   7.906  62.453  1.00  0.00    -0.138 OA 
ENDROOT
BRANCH   2   3
HETATM    3  C   UNL     1      -7.822   9.320  62.493  1.00  0.00    -0.120 C  
BRANCH   3   4
HETATM    4  C   UNL     1      -8.722   9.925  63.562  1.00  0.00    -0.223 C  
BRANCH   4   5
HETATM    5  C   UNL     1      -9.905  10.716  63.002  1.00  0.00    -0.273 C  
BRANCH   5   6
HETATM    6  O   UNL     1     -10.818  11.042  64.045  1.00  0.00    -0.361 OA 
BRANCH   6   7
HETATM    7  C   UNL     1     -10.666  12.206  64.757  1.00  0.00    -0.301 A  
HETATM    8  C   UNL     1     -11.502  13.270  64.354  1.00  0.00    -0.379 A  
HETATM    9  C   UNL     1     -11.321  14.538  64.914  1.00  0.00    -0.394 A  
HETATM   10  C   UNL     1      -9.665  12.427  65.710  1.00  0.00    -0.210 A  
HETATM   11  C   UNL     1      -9.430  13.722  66.212  1.00  0.00    -0.221 A  
HETATM   12  C   UNL     1     -10.279  14.760  65.819  1.00  0.00    -0.359 A  
BRANCH   8  13
HETATM   13  O   UNL     1     -12.447  12.970  63.402  1.00  0.00    -0.710 OA 
HETATM   14  C   UNL     1     -13.385  11.946  63.702  1.00  0.00     0.417 C  
ENDBRANCH   8  13
BRANCH  11  15
HETATM   15  C   UNL     1      -8.162  14.037  66.979  1.00  0.00    -0.078 C  
HETATM   16  C   UNL     1      -8.106  13.954  68.526  1.00  0.00    -0.133 C  
HETATM   17  C   UNL     1      -6.611  14.118  69.000  1.00  0.00    -0.104 C  
HETATM   18  C   UNL     1      -8.983  14.982  69.306  1.00  0.00    -0.158 C  
HETATM   19  C   UNL     1     -10.484  14.707  69.191  1.00  0.00    -0.239 C  
HETATM   20  C   UNL     1      -8.677  16.442  68.967  1.00  0.00    -0.233 C  
BRANCH  17  21
HETATM   21  C   UNL     1      -5.636  13.021  68.527  1.00  0.00    -0.069 C  
HETATM   22  N   UNL     1      -5.909  12.777  67.106  1.00  0.00    -0.432 NA 
HETATM   23  H1  UNL     1      -5.264  12.051  66.793  1.00  0.00     0.000 HD 
HETATM   24  H2  UNL     1      -5.861  13.623  66.539  1.00  0.00     0.000 HD 
BRANCH  21  25
HETATM   25  C   UNL     1      -5.704  11.696  69.377  1.00  0.00    -0.065 C  
HETATM   26  H   UNL     1      -6.375  11.098  71.145  1.00  0.00     0.000 HD 
HETATM   27  O   UNL     1      -6.335  11.897  70.633  1.00  0.00    -0.199 OA 
BRANCH  25  28
HETATM   28  C   UNL     1      -6.445  10.623  68.552  1.00  0.00    -0.054 C  
HETATM   29  C   UNL     1      -7.420   9.624  69.218  1.00  0.00    -0.085 C  
HETATM   30  C   UNL     1      -7.846   8.693  68.064  1.00  0.00    -0.103 C  
HETATM   31  C   UNL     1      -8.654  10.256  69.925  1.00  0.00     0.004 C  
HETATM   32  C   UNL     1      -9.529   9.230  70.657  1.00  0.00    -0.333 C  
HETATM   33  O   UNL     1      -8.069   9.091  66.922  1.00  0.00    -0.110 OA 
HETATM   34  N   UNL     1      -7.974   7.364  68.403  1.00  0.00    -0.122 N  
HETATM   35  C   UNL     1      -9.509  11.124  68.994  1.00  0.00    -0.074 C  
HETATM   36  H   UNL     1      -7.871   7.077  69.376  1.00  0.00     0.000 HD 
BRANCH  34  37
HETATM   37  C   UNL     1      -8.254   6.369  67.384  1.00  0.00    -0.116 C  
BRANCH  37  38
HETATM   38  C   UNL     1      -9.618   5.680  67.555  1.00  0.00    -0.124 C  
HETATM   39  C   UNL     1     -10.728   6.572  66.957  1.00  0.00    -0.434 C  
HETATM   40  C   UNL     1      -9.633   4.313  66.851  1.00  0.00    -0.225 C  
BRANCH  38  41
HETATM   41  C   UNL     1      -9.897   5.495  69.053  1.00  0.00    -0.162 C  
HETATM   42  N   UNL     1     -11.143   5.809  69.500  1.00  0.00    -0.324 N  
HETATM   43  O   UNL     1      -9.065   5.075  69.854  1.00  0.00    -0.112 OA 
HETATM   44  H2  UNL     1     -11.863   6.154  68.865  1.00  0.00     0.000 HD 
HETATM   45  H1  UNL     1     -11.328   5.686  70.495  1.00  0.00     0.000 HD 
ENDBRANCH  38  41
ENDBRANCH  37  38
ENDBRANCH  34  37
ENDBRANCH  25  28
ENDBRANCH  21  25
ENDBRANCH  17  21
ENDBRANCH  11  15
ENDBRANCH   6   7
ENDBRANCH   5   6
ENDBRANCH   4   5
ENDBRANCH   3   4
ENDBRANCH   2   3
TORSDOF 13
ENDMDL
MODEL      127
REMARK 921   NORMALIZED FREE ENERGY PREDICTED BY IDOCK:   -3.50 KCAL/MOL
REMARK 922        TOTAL FREE ENERGY PREDICTED BY IDOCK:   -8.48 KCAL/MOL
REMARK 923 INTER-LIGAND FREE ENERGY PREDICTED BY IDOCK:   -6.99 KCAL/MOL
REMARK 924 INTRA-LIGAND FREE ENERGY PREDICTED BY IDOCK:   -1.49 KCAL/MOL
REMARK 927      BINDING AFFINITY PREDICTED BY RF-SCORE:    0.00 PKD
ROOT
HETATM    1  C   UNL     1      -9.743   6.384  73.169  1.00  0.00    -0.160 C  
HETATM    2  O   UNL     1      -8.460   6.980  73.039  1.00  0.00    -0.113 OA 
ENDROOT
BRANCH   2   3
HETATM    3  C   UNL     1      -7.521   6.377  73.928  1.00  0.00    -0.085 C  
BRANCH   3   4
HETATM    4  C   UNL     1      -6.610   7.448  74.514  1.00  0.00    -0.092 C  
BRANCH   4   5
HETATM    5  C   UNL     1      -6.250   8.561  73.530  1.00  0.00    -0.110 C  
BRANCH   5   6
HETATM    6  O   UNL     1      -5.543   8.025  72.416  1.00  0.00    -0.036 OA 
BRANCH   6   7
HETATM    7  C   UNL     1      -5.987   8.261  71.138  1.00  0.00    -0.034 A  
HETATM    8  C   UNL     1      -6.064   9.622  70.770  1.00  0.00    -0.086 A  
HETATM    9  C   UNL     1      -6.642   9.972  69.547  1.00  0.00    -0.055 A  
HETATM   10  C   UNL     1      -6.489   7.275  70.280  1.00  0.00    -0.042 A  
HETATM   11  C   UNL     1      -7.145   7.635  69.087  1.00  0.00    -0.077 A  
HETATM   12  C   UNL     1      -7.196   8.985  68.727  1.00  0.00    -0.075 A  
BRANCH   8  13
HETATM   13  O   UNL     1      -5.562  10.523  71.678  1.00  0.00    -0.298 OA 
HETATM   14  C   UNL     1      -5.276  11.836  71.218  1.00  0.00    -0.064 C  
ENDBRANCH   8  13
BRANCH  11  15
HETATM   15  C   UNL     1      -7.972   6.621  68.322  1.00  0.00    -0.111 C  
HETATM   16  C   UNL     1      -9.459   6.883  67.970  1.00  0.00    -0.124 C  
HETATM   17  C   UNL     1      -9.967   5.756  66.992  1.00  0.00    -0.193 C  
HETATM   18  C   UNL     1     -10.449   6.972  69.172  1.00  0.00    -0.218 C  
HETATM   19  C   UNL     1     -10.265   8.235  70.016  1.00  0.00    -0.202 C  
HETATM   20  C   UNL     1     -10.458   5.728  70.062  1.00  0.00    -0.353 C  
BRANCH  17  21
HETATM   21  C   UNL     1      -9.260   5.691  65.623  1.00  0.00    -0.055 C  
HETATM   22  N   UNL     1      -8.655   4.358  65.507  1.00  0.00    -0.118 NA 
HETATM   23  H1  UNL     1      -8.187   4.315  64.601  1.00  0.00     0.000 HD 
HETATM   24  H2  UNL     1      -9.325   3.602  65.646  1.00  0.00     0.000 HD 
BRANCH  21  25
HETATM   25  C   UNL     1      -8.206   6.839  65.392  1.00  0.00    -0.134 C  
HETATM   26  H   UNL     1      -6.523   7.128  64.383  1.00  0.00     0.000 HD 
HETATM   27  O   UNL     1      -7.159   6.436  64.522  1.00  0.00    -0.052 OA 
BRANCH  25  28
HETATM   28  C   UNL     1      -8.942   8.075  64.837  1.00  0.00     0.332 C  
HETATM   29  C   UNL     1      -8.746   9.477  65.459  1.00  0.00    -0.180 C  
HETATM   30  C   UNL     1      -9.724  10.375  64.673  1.00  0.00    -0.329 C  
HETATM   31  C   UNL     1      -7.295  10.039  65.412  1.00  0.00    -0.139 C  
HETATM   32  C   UNL     1      -7.138  11.384  66.136  1.00  0.00     0.154 C  
HETATM   33  O   UNL     1      -9.915  10.268  63.463  1.00  0.00    -0.215 OA 
HETATM   34  N   UNL     1     -10.374  11.328  65.425  1.00  0.00    -0.262 N  
HETATM   35  C   UNL     1      -6.722  10.124  63.993  1.00  0.00    -0.107 C  
HETATM   36  H   UNL     1     -10.129  11.453  66.407  1.00  0.00     0.000 HD 
BRANCH  34  37
HETATM   37  C   UNL     1     -11.406  12.157  64.828  1.00  0.00    -0.325 C  
BRANCH  37  38
HETATM   38  C   UNL     1     -11.329  13.634  65.250  1.00  0.00    -0.306 C  
HETATM   39  C   UNL     1     -12.143  13.846  66.545  1.00  0.00    -0.484 C  
HETATM   40  C   UNL     1      -9.871  14.058  65.492  1.00  0.00    -0.229 C  
BRANCH  38  41
HETATM   41  C   UNL     1     -11.944  14.501  64.142  1.00  0.00    -0.321 C  
HETATM   42  N   UNL     1     -11.700  15.838  64.187  1.00  0.00    -0.887 N  
HETATM   43  O   UNL     1     -12.629  14.050  63.226  1.00  0.00    -0.801 OA 
HETATM   44  H2  UNL     1     -11.131  16.249  64.927  1.00  0.00     0.000 HD 
HETATM   45  H1  UNL     1     -12.108  16.413  63.451  1.00  0.00     0.000 HD 
ENDBRANCH  38  41
ENDBRANCH  37  38
ENDBRANCH  34  37
ENDBRANCH  25  28
ENDBRANCH  21  25
ENDBRANCH  17  21
ENDBRANCH  11  15
ENDBRANCH   6   7
ENDBRANCH   5   6
ENDBRANCH   4   5
ENDBRANCH   3   4
ENDBRANCH   2   3
TORSDOF 13
ENDMDL
MODEL      128
REMARK 921   NORMALIZED FREE ENERGY PREDICTED BY IDOCK:   -3.43 KCAL/MOL
REMARK 922        TOTAL FREE ENERGY PREDICTED BY IDOCK:   -8.35 KCAL/MOL
REMARK 923 INTER-LIGAND FREE ENERGY PREDICTED BY IDOCK:   -6.97 KCAL/MOL
REMARK 924 INTRA-LIGAND FREE ENERGY PREDICTED BY IDOCK:   -1.37 KCAL/MOL
REMARK 927      BINDING AFFINITY PREDICTED BY RF-SCORE:    0.00 PKD
ROOT
HETATM    1  C   UNL     1      -8.584  19.802  68.177  1.00  0.00    -0.287 C  
HETATM    2  O   UNL     1      -9.923  19.356  68.342  1.00  0.00    -0.384 OA 
ENDROOT
BRANCH   2   3
HETATM    3  C   UNL     1     -10.086  18.027  67.849  1.00  0.00    -0.355 C  
BRANCH   3   4
HETATM    4  C   UNL     1     -10.254  17.064  69.016  1.00  0.00    -0.313 C  
BRANCH   4   5
HETATM    5  C   UNL     1     -11.351  16.021  68.807  1.00  0.00    -0.380 C  
BRANCH   5   6
HETATM    6  O   UNL     1     -11.130  15.311  67.593  1.00  0.00    -0.307 OA 
BRANCH   6   7
HETATM    7  C   UNL     1     -11.011  13.942  67.604  1.00  0.00    -0.264 A  
HETATM    8  C   UNL     1     -11.673  13.272  66.554  1.00  0.00    -0.377 A  
HETATM    9  C   UNL     1     -11.737  11.876  66.560  1.00  0.00    -0.247 A  
HETATM   10  C   UNL     1     -10.426  13.208  68.643  1.00  0.00    -0.242 A  
HETATM   11  C   UNL     1     -10.562  11.807  68.691  1.00  0.00    -0.250 A  
HETATM   12  C   UNL     1     -11.203  11.157  67.633  1.00  0.00    -0.364 A  
BRANCH   8  13
HETATM   13  O   UNL     1     -12.233  14.070  65.585  1.00  0.00    -0.394 OA 
HETATM   14  C   UNL     1     -12.025  13.708  64.227  1.00  0.00    -0.445 C  
ENDBRANCH   8  13
BRANCH  11  15
HETATM   15  C   UNL     1     -10.228  11.040  69.954  1.00  0.00     0.354 C  
HETATM   16  C   UNL     1     -11.057   9.809  70.402  1.00  0.00    -0.367 C  
HETATM   17  C   UNL     1     -10.333   9.107  71.613  1.00  0.00    -0.388 C  
HETATM   18  C   UNL     1     -12.538  10.083  70.809  1.00  0.00    -0.372 C  
HETATM   19  C   UNL     1     -13.433  10.452  69.625  1.00  0.00     1.587 C  
HETATM   20  C   UNL     1     -12.692  11.106  71.937  1.00  0.00    -0.293 C  
BRANCH  17  21
HETATM   21  C   UNL     1      -8.934   8.531  71.312  1.00  0.00    -0.192 C  
HETATM   22  N   UNL     1      -8.239   8.376  72.595  1.00  0.00    -0.303 NA 
HETATM   23  H1  UNL     1      -7.314   7.995  72.397  1.00  0.00     0.000 HD 
HETATM   24  H2  UNL     1      -8.764   7.816  73.268  1.00  0.00     0.000 HD 
BRANCH  21  25
HETATM   25  C   UNL     1      -8.096   9.388  70.289  1.00  0.00    -0.164 C  
HETATM   26  H   UNL     1      -6.544  10.623  70.308  1.00  0.00     0.000 HD 
HETATM   27  O   UNL     1      -7.048  10.106  70.925  1.00  0.00    -0.325 OA 
BRANCH  25  28
HETATM   28  C   UNL     1      -7.541   8.448  69.201  1.00  0.00    -0.087 C  
HETATM   29  C   UNL     1      -8.255   8.280  67.838  1.00  0.00    -0.128 C  
HETATM   30  C   UNL     1      -7.429   7.196  67.115  1.00  0.00    -0.098 C  
HETATM   31  C   UNL     1      -8.377   9.571  66.978  1.00  0.00    -0.124 C  
HETATM   32  C   UNL     1      -9.184   9.370  65.688  1.00  0.00    -0.285 C  
HETATM   33  O   UNL     1      -6.201   7.133  67.170  1.00  0.00    -0.044 OA 
HETATM   34  N   UNL     1      -8.165   6.294  66.380  1.00  0.00    -0.111 N  
HETATM   35  C   UNL     1      -7.027  10.226  66.669  1.00  0.00    -0.103 C  
HETATM   36  H   UNL     1      -9.171   6.425  66.279  1.00  0.00     0.000 HD 
BRANCH  34  37
HETATM   37  C   UNL     1      -7.518   5.158  65.749  1.00  0.00    -0.082 C  
BRANCH  37  38
HETATM   38  C   UNL     1      -8.436   3.933  65.597  1.00  0.00    -0.110 C  
HETATM   39  C   UNL     1      -7.597   2.704  65.188  1.00  0.00    -0.076 C  
HETATM   40  C   UNL     1      -9.166   3.631  66.916  1.00  0.00    -0.204 C  
BRANCH  38  41
HETATM   41  C   UNL     1      -9.461   4.213  64.489  1.00  0.00    -0.165 C  
HETATM   42  N   UNL     1     -10.549   3.400  64.426  1.00  0.00    -0.458 N  
HETATM   43  O   UNL     1      -9.351   5.128  63.675  1.00  0.00     0.174 OA 
HETATM   44  H2  UNL     1     -10.680   2.635  65.087  1.00  0.00     0.000 HD 
HETATM   45  H1  UNL     1     -11.230   3.586  63.690  1.00  0.00     0.000 HD 
ENDBRANCH  38  41
ENDBRANCH  37  38
ENDBRANCH  34  37
ENDBRANCH  25  28
ENDBRANCH  21  25
ENDBRANCH  17  21
ENDBRANCH  11  15
ENDBRANCH   6   7
ENDBRANCH   5   6
ENDBRANCH   4   5
ENDBRANCH   3   4
ENDBRANCH   2   3
TORSDOF 13
ENDMDL
MODEL      129
REMARK 921   NORMALIZED FREE ENERGY PREDICTED BY IDOCK:   -3.40 KCAL/MOL
REMARK 922        TOTAL FREE ENERGY PREDICTED BY IDOCK:   -8.29 KCAL/MOL
REMARK 923 INTER-LIGAND FREE ENERGY PREDICTED BY IDOCK:   -6.90 KCAL/MOL
REMARK 924 INTRA-LIGAND FREE ENERGY PREDICTED BY IDOCK:   -1.38 KCAL/MOL
REMARK 927      BINDING AFFINITY PREDICTED BY RF-SCORE:    0.00 PKD
ROOT
HETATM    1  C   UNL     1     -13.295  15.344  71.189  1.00  0.00    -0.508 C  
HETATM    2  O   UNL     1     -12.149  14.515  71.322  1.00  0.00    -0.331 OA 
ENDROOT
BRANCH   2   3
HETATM    3  C   UNL     1     -12.138  13.490  70.329  1.00  0.00    -0.355 C  
BRANCH   3   4
HETATM    4  C   UNL     1     -11.780  14.092  68.977  1.00  0.00    -0.368 C  
BRANCH   4   5
HETATM    5  C   UNL     1     -12.027  13.153  67.796  1.00  0.00    -0.307 C  
BRANCH   5   6
HETATM    6  O   UNL     1     -10.856  13.057  66.990  1.00  0.00    -0.256 OA 
BRANCH   6   7
HETATM    7  C   UNL     1     -10.102  11.909  67.001  1.00  0.00    -0.205 A  
HETATM    8  C   UNL     1     -10.253  11.079  65.869  1.00  0.00    -0.254 A  
HETATM    9  C   UNL     1      -9.645   9.821  65.852  1.00  0.00    -0.313 A  
HETATM   10  C   UNL     1      -9.349  11.466  68.096  1.00  0.00    -0.181 A  
HETATM   11  C   UNL     1      -8.807  10.167  68.111  1.00  0.00    -0.126 A  
HETATM   12  C   UNL     1      -8.948   9.366  66.974  1.00  0.00    -0.146 A  
BRANCH   8  13
HETATM   13  O   UNL     1     -11.021  11.585  64.848  1.00  0.00    -0.298 OA 
HETATM   14  C   UNL     1     -10.354  12.026  63.674  1.00  0.00    -0.450 C  
ENDBRANCH   8  13
BRANCH  11  15
HETATM   15  C   UNL     1      -8.281   9.562  69.397  1.00  0.00    -0.126 C  
HETATM   16  C   UNL     1      -8.849   8.236  69.964  1.00  0.00    -0.134 C  
HETATM   17  C   UNL     1      -7.954   7.762  71.172  1.00  0.00    -0.090 C  
HETATM   18  C   UNL     1     -10.335   8.266  70.438  1.00  0.00    -0.214 C  
HETATM   19  C   UNL     1     -11.335   8.383  69.286  1.00  0.00     0.421 C  
HETATM   20  C   UNL     1     -10.624   9.320  71.509  1.00  0.00    -0.405 C  
BRANCH  17  21
HETATM   21  C   UNL     1      -6.488   7.429  70.827  1.00  0.00    -0.039 C  
HETATM   22  N   UNL     1      -5.949   8.564  70.069  1.00  0.00    -0.028 NA 
HETATM   23  H1  UNL     1      -4.979   8.344  69.841  1.00  0.00     0.000 HD 
HETATM   24  H2  UNL     1      -6.051   9.455  70.556  1.00  0.00     0.000 HD 
BRANCH  21  25
HETATM   25  C   UNL     1      -6.306   6.067  70.058  1.00  0.00    -0.031 C  
HETATM   26  H   UNL     1      -6.295   4.124  70.460  1.00  0.00     0.000 HD 
HETATM   27  O   UNL     1      -6.405   4.946  70.924  1.00  0.00    -0.018 OA 
BRANCH  25  28
HETATM   28  C   UNL     1      -7.362   5.993  68.936  1.00  0.00    -0.085 C  
HETATM   29  C   UNL     1      -8.013   4.651  68.527  1.00  0.00    -0.080 C  
HETATM   30  C   UNL     1      -8.913   5.022  67.330  1.00  0.00    -0.110 C  
HETATM   31  C   UNL     1      -8.820   3.927  69.643  1.00  0.00    -0.144 C  
HETATM   32  C   UNL     1      -9.355   2.553  69.215  1.00  0.00    -0.183 C  
HETATM   33  O   UNL     1      -9.572   6.059  67.276  1.00  0.00    -0.111 OA 
HETATM   34  N   UNL     1      -8.941   4.095  66.312  1.00  0.00    -0.118 N  
HETATM   35  C   UNL     1      -9.949   4.782  70.230  1.00  0.00    -0.320 C  
HETATM   36  H   UNL     1      -8.457   3.204  66.424  1.00  0.00     0.000 HD 
BRANCH  34  37
HETATM   37  C   UNL     1      -9.655   4.377  65.080  1.00  0.00    -0.170 C  
BRANCH  37  38
HETATM   38  C   UNL     1      -8.734   4.543  63.859  1.00  0.00    -0.139 C  
HETATM   39  C   UNL     1      -7.571   3.532  63.946  1.00  0.00    -0.074 C  
HETATM   40  C   UNL     1      -9.511   4.310  62.553  1.00  0.00    -0.125 C  
BRANCH  38  41
HETATM   41  C   UNL     1      -8.148   5.962  63.868  1.00  0.00    -0.098 C  
HETATM   42  N   UNL     1      -8.632   6.843  62.952  1.00  0.00    -0.325 N  
HETATM   43  O   UNL     1      -7.282   6.336  64.655  1.00  0.00    -0.058 OA 
HETATM   44  H2  UNL     1      -9.356   6.573  62.286  1.00  0.00     0.000 HD 
HETATM   45  H1  UNL     1      -8.242   7.785  62.957  1.00  0.00     0.000 HD 
ENDBRANCH  38  41
ENDBRANCH  37  38
ENDBRANCH  34  37
ENDBRANCH  25  28
ENDBRANCH  21  25
ENDBRANCH  17  21
ENDBRANCH  11  15
ENDBRANCH   6   7
ENDBRANCH   5   6
ENDBRANCH   4   5
ENDBRANCH   3   4
ENDBRANCH   2   3
TORSDOF 13
ENDMDL
MODEL      130
REMARK 921   NORMALIZED FREE ENERGY PREDICTED BY IDOCK:   -3.40 KCAL/MOL
REMARK 922        TOTAL FREE ENERGY PREDICTED BY IDOCK:   -8.29 KCAL/MOL
REMARK 923 INTER-LIGAND FREE ENERGY PREDICTED BY IDOCK:   -6.68 KCAL/MOL
REMARK 924 INTRA-LIGAND FREE ENERGY PREDICTED BY IDOCK:   -1.60 KCAL/MOL
REMARK 927      BINDING AFFINITY PREDICTED BY RF-SCORE:    0.00 PKD
ROOT
HETATM    1  C   UNL     1     -13.325  15.442  71.425  1.00  0.00    -0.519 C  
HETATM    2  O   UNL     1     -12.245  14.600  71.046  1.00  0.00    -0.292 OA 
ENDROOT
BRANCH   2   3
HETATM    3  C   UNL     1     -12.334  14.239  69.668  1.00  0.00    -0.266 C  
BRANCH   3   4
HETATM    4  C   UNL     1     -11.368  15.089  68.853  1.00  0.00    -0.312 C  
BRANCH   4   5
HETATM    5  C   UNL     1     -11.419  14.814  67.350  1.00  0.00    -0.363 C  
BRANCH   5   6
HETATM    6  O   UNL     1     -10.136  14.411  66.880  1.00  0.00    -0.252 OA 
BRANCH   6   7
HETATM    7  C   UNL     1      -9.732  13.104  67.011  1.00  0.00    -0.241 A  
HETATM    8  C   UNL     1      -9.837  12.323  65.840  1.00  0.00    -0.251 A  
HETATM    9  C   UNL     1      -9.593  10.948  65.906  1.00  0.00    -0.257 A  
HETATM   10  C   UNL     1      -9.387  12.500  68.226  1.00  0.00    -0.193 A  
HETATM   11  C   UNL     1      -9.222  11.104  68.307  1.00  0.00    -0.169 A  
HETATM   12  C   UNL     1      -9.310  10.347  67.135  1.00  0.00    -0.177 A  
BRANCH   8  13
HETATM   13  O   UNL     1     -10.196  12.994  64.696  1.00  0.00    -0.338 OA 
HETATM   14  C   UNL     1     -10.314  12.241  63.497  1.00  0.00    -0.410 C  
ENDBRANCH   8  13
BRANCH  11  15
HETATM   15  C   UNL     1      -9.176  10.407  69.651  1.00  0.00    -0.085 C  
HETATM   16  C   UNL     1     -10.258   9.380  70.073  1.00  0.00    -0.262 C  
HETATM   17  C   UNL     1      -9.812   8.676  71.411  1.00  0.00    -0.327 C  
HETATM   18  C   UNL     1     -11.701   9.938  70.271  1.00  0.00    -0.286 C  
HETATM   19  C   UNL     1     -12.377  10.346  68.960  1.00  0.00     0.476 C  
HETATM   20  C   UNL     1     -11.794  11.069  71.298  1.00  0.00     0.028 C  
BRANCH  17  21
HETATM   21  C   UNL     1      -8.515   7.846  71.329  1.00  0.00    -0.117 C  
HETATM   22  N   UNL     1      -7.467   8.724  70.796  1.00  0.00    -0.076 NA 
HETATM   23  H1  UNL     1      -6.609   8.175  70.742  1.00  0.00     0.000 HD 
HETATM   24  H2  UNL     1      -7.356   9.585  71.333  1.00  0.00     0.000 HD 
BRANCH  21  25
HETATM   25  C   UNL     1      -8.656   6.520  70.489  1.00  0.00    -0.143 C  
HETATM   26  H   UNL     1     -10.083   5.261  69.931  1.00  0.00     0.000 HD 
HETATM   27  O   UNL     1      -9.998   6.060  70.437  1.00  0.00    -0.174 OA 
BRANCH  25  28
HETATM   28  C   UNL     1      -8.105   6.778  69.072  1.00  0.00    -0.117 C  
HETATM   29  C   UNL     1      -8.490   5.872  67.879  1.00  0.00    -0.107 C  
HETATM   30  C   UNL     1      -7.653   6.422  66.706  1.00  0.00    -0.098 C  
HETATM   31  C   UNL     1     -10.006   5.830  67.527  1.00  0.00    -0.171 C  
HETATM   32  C   UNL     1     -10.344   4.837  66.407  1.00  0.00    -0.312 C  
HETATM   33  O   UNL     1      -7.458   7.622  66.520  1.00  0.00    -0.088 OA 
HETATM   34  N   UNL     1      -7.138   5.467  65.858  1.00  0.00    -0.066 N  
HETATM   35  C   UNL     1     -10.596   7.210  67.216  1.00  0.00    -0.398 C  
HETATM   36  H   UNL     1      -7.390   4.487  65.985  1.00  0.00     0.000 HD 
BRANCH  34  37
HETATM   37  C   UNL     1      -6.236   5.846  64.785  1.00  0.00    -0.030 C  
BRANCH  37  38
HETATM   38  C   UNL     1      -6.640   5.279  63.414  1.00  0.00    -0.026 C  
HETATM   39  C   UNL     1      -7.586   6.271  62.701  1.00  0.00    -0.075 C  
HETATM   40  C   UNL     1      -5.401   5.040  62.534  1.00  0.00    -0.013 C  
BRANCH  38  41
HETATM   41  C   UNL     1      -7.391   3.957  63.623  1.00  0.00    -0.051 C  
HETATM   42  N   UNL     1      -8.516   3.754  62.886  1.00  0.00    -0.085 N  
HETATM   43  O   UNL     1      -7.025   3.082  64.405  1.00  0.00    -0.043 OA 
HETATM   44  H2  UNL     1      -8.848   4.452  62.221  1.00  0.00     0.000 HD 
HETATM   45  H1  UNL     1      -9.015   2.876  63.025  1.00  0.00     0.000 HD 
ENDBRANCH  38  41
ENDBRANCH  37  38
ENDBRANCH  34  37
ENDBRANCH  25  28
ENDBRANCH  21  25
ENDBRANCH  17  21
ENDBRANCH  11  15
ENDBRANCH   6   7
ENDBRANCH   5   6
ENDBRANCH   4   5
ENDBRANCH   3   4
ENDBRANCH   2   3
TORSDOF 13
ENDMDL
MODEL      131
REMARK 921   NORMALIZED FREE ENERGY PREDICTED BY IDOCK:   -3.39 KCAL/MOL
REMARK 922        TOTAL FREE ENERGY PREDICTED BY IDOCK:   -8.28 KCAL/MOL
REMARK 923 INTER-LIGAND FREE ENERGY PREDICTED BY IDOCK:   -6.34 KCAL/MOL
REMARK 924 INTRA-LIGAND FREE ENERGY PREDICTED BY IDOCK:   -1.94 KCAL/MOL
REMARK 927      BINDING AFFINITY PREDICTED BY RF-SCORE:    0.00 PKD
ROOT
HETATM    1  C   UNL     1      -7.174  10.686  65.397  1.00  0.00    -0.012 C  
HETATM    2  O   UNL     1      -7.964   9.526  65.175  1.00  0.00    -0.110 OA 
ENDROOT
BRANCH   2   3
HETATM    3  C   UNL     1      -8.042   9.216  63.784  1.00  0.00    -0.156 C  
BRANCH   3   4
HETATM    4  C   UNL     1      -7.286   7.924  63.505  1.00  0.00    -0.086 C  
BRANCH   4   5
HETATM    5  C   UNL     1      -8.010   6.976  62.549  1.00  0.00    -0.124 C  
BRANCH   5   6
HETATM    6  O   UNL     1      -7.732   5.622  62.893  1.00  0.00    -0.069 OA 
BRANCH   6   7
HETATM    7  C   UNL     1      -8.253   5.080  64.043  1.00  0.00    -0.125 A  
HETATM    8  C   UNL     1      -9.381   4.252  63.860  1.00  0.00    -0.138 A  
HETATM    9  C   UNL     1     -10.073   3.774  64.976  1.00  0.00    -0.119 A  
HETATM   10  C   UNL     1      -7.837   5.419  65.337  1.00  0.00    -0.095 A  
HETATM   11  C   UNL     1      -8.583   5.005  66.457  1.00  0.00    -0.110 A  
HETATM   12  C   UNL     1      -9.685   4.168  66.260  1.00  0.00    -0.219 A  
BRANCH   8  13
HETATM   13  O   UNL     1      -9.729   3.984  62.558  1.00  0.00    -0.123 OA 
HETATM   14  C   UNL     1     -10.764   3.038  62.331  1.00  0.00    -0.162 C  
ENDBRANCH   8  13
BRANCH  11  15
HETATM   15  C   UNL     1      -8.343   5.625  67.818  1.00  0.00    -0.100 C  
HETATM   16  C   UNL     1      -6.959   5.549  68.514  1.00  0.00    -0.064 C  
HETATM   17  C   UNL     1      -6.971   6.467  69.795  1.00  0.00    -0.067 C  
HETATM   18  C   UNL     1      -6.474   4.127  68.935  1.00  0.00    -0.040 C  
HETATM   19  C   UNL     1      -6.100   3.239  67.747  1.00  0.00    -0.028 C  
HETATM   20  C   UNL     1      -7.438   3.394  69.871  1.00  0.00    -0.044 C  
BRANCH  17  21
HETATM   21  C   UNL     1      -7.181   7.973  69.535  1.00  0.00    -0.070 C  
HETATM   22  N   UNL     1      -5.942   8.492  68.945  1.00  0.00    -0.043 NA 
HETATM   23  H1  UNL     1      -6.081   9.488  68.774  1.00  0.00     0.000 HD 
HETATM   24  H2  UNL     1      -5.652   7.981  68.112  1.00  0.00     0.000 HD 
BRANCH  21  25
HETATM   25  C   UNL     1      -7.612   8.788  70.813  1.00  0.00    -0.094 C  
HETATM   26  H   UNL     1      -6.828  10.114  72.063  1.00  0.00     0.000 HD 
HETATM   27  O   UNL     1      -6.568   9.623  71.292  1.00  0.00    -0.273 OA 
BRANCH  25  28
HETATM   28  C   UNL     1      -8.867   9.615  70.466  1.00  0.00    -0.169 C  
HETATM   29  C   UNL     1      -9.619   9.418  69.129  1.00  0.00    -0.163 C  
HETATM   30  C   UNL     1     -10.724  10.493  69.160  1.00  0.00    -0.231 C  
HETATM   31  C   UNL     1     -10.212   7.999  68.891  1.00  0.00    -0.220 C  
HETATM   32  C   UNL     1     -10.853   7.830  67.507  1.00  0.00    -0.182 C  
HETATM   33  O   UNL     1     -11.355  10.784  70.175  1.00  0.00    -0.290 OA 
HETATM   34  N   UNL     1     -10.972  11.111  67.954  1.00  0.00    -0.233 N  
HETATM   35  C   UNL     1     -11.183   7.554  69.990  1.00  0.00    -0.173 C  
HETATM   36  H   UNL     1     -10.498  10.787  67.112  1.00  0.00     0.000 HD 
BRANCH  34  37
HETATM   37  C   UNL     1     -11.905  12.221  67.875  1.00  0.00    -0.293 C  
BRANCH  37  38
HETATM   38  C   UNL     1     -11.409  13.379  66.994  1.00  0.00    -0.346 C  
HETATM   39  C   UNL     1     -10.066  12.993  66.337  1.00  0.00    -0.279 C  
HETATM   40  C   UNL     1     -12.433  13.707  65.894  1.00  0.00    -0.502 C  
BRANCH  38  41
HETATM   41  C   UNL     1     -11.182  14.615  67.876  1.00  0.00    -0.304 C  
HETATM   42  N   UNL     1      -9.951  15.193  67.836  1.00  0.00    -0.220 N  
HETATM   43  O   UNL     1     -12.047  15.103  68.599  1.00  0.00    -0.264 OA 
HETATM   44  H2  UNL     1      -9.209  14.821  67.244  1.00  0.00     0.000 HD 
HETATM   45  H1  UNL     1      -9.800  16.013  68.423  1.00  0.00     0.000 HD 
ENDBRANCH  38  41
ENDBRANCH  37  38
ENDBRANCH  34  37
ENDBRANCH  25  28
ENDBRANCH  21  25
ENDBRANCH  17  21
ENDBRANCH  11  15
ENDBRANCH   6   7
ENDBRANCH   5   6
ENDBRANCH   4   5
ENDBRANCH   3   4
ENDBRANCH   2   3
TORSDOF 13
ENDMDL
MODEL      132
REMARK 921   NORMALIZED FREE ENERGY PREDICTED BY IDOCK:   -3.38 KCAL/MOL
REMARK 922        TOTAL FREE ENERGY PREDICTED BY IDOCK:   -8.26 KCAL/MOL
REMARK 923 INTER-LIGAND FREE ENERGY PREDICTED BY IDOCK:   -6.43 KCAL/MOL
REMARK 924 INTRA-LIGAND FREE ENERGY PREDICTED BY IDOCK:   -1.83 KCAL/MOL
REMARK 927      BINDING AFFINITY PREDICTED BY RF-SCORE:    0.00 PKD
ROOT
HETATM    1  C   UNL     1      -8.205   1.618  67.996  1.00  0.00    -0.058 C  
HETATM    2  O   UNL     1      -8.529   2.986  67.790  1.00  0.00    -0.079 OA 
ENDROOT
BRANCH   2   3
HETATM    3  C   UNL     1      -9.486   3.437  68.748  1.00  0.00    -0.131 C  
BRANCH   3   4
HETATM    4  C   UNL     1      -9.528   2.471  69.924  1.00  0.00    -0.133 C  
BRANCH   4   5
HETATM    5  C   UNL     1      -9.581   3.157  71.289  1.00  0.00    -0.159 C  
BRANCH   5   6
HETATM    6  O   UNL     1      -8.374   3.874  71.527  1.00  0.00    -0.072 OA 
BRANCH   6   7
HETATM    7  C   UNL     1      -8.389   5.245  71.609  1.00  0.00    -0.118 A  
HETATM    8  C   UNL     1      -8.887   5.769  72.822  1.00  0.00    -0.121 A  
HETATM    9  C   UNL     1      -9.083   7.147  72.947  1.00  0.00    -0.164 A  
HETATM   10  C   UNL     1      -8.098   6.106  70.544  1.00  0.00    -0.113 A  
HETATM   11  C   UNL     1      -8.373   7.483  70.643  1.00  0.00    -0.126 A  
HETATM   12  C   UNL     1      -8.846   7.989  71.857  1.00  0.00    -0.191 A  
BRANCH   8  13
HETATM   13  O   UNL     1      -9.162   4.853  73.808  1.00  0.00    -0.118 OA 
HETATM   14  C   UNL     1     -10.364   5.017  74.548  1.00  0.00    -0.278 C  
ENDBRANCH   8  13
BRANCH  11  15
HETATM   15  C   UNL     1      -8.374   8.363  69.410  1.00  0.00    -0.120 C  
HETATM   16  C   UNL     1      -7.055   8.830  68.742  1.00  0.00    -0.063 C  
HETATM   17  C   UNL     1      -7.387   9.533  67.371  1.00  0.00    -0.087 C  
HETATM   18  C   UNL     1      -6.157   9.790  69.581  1.00  0.00    -0.044 C  
HETATM   19  C   UNL     1      -5.492   9.107  70.777  1.00  0.00    -0.030 C  
HETATM   20  C   UNL     1      -6.863  11.074  70.021  1.00  0.00    -0.046 C  
BRANCH  17  21
HETATM   21  C   UNL     1      -8.055   8.641  66.306  1.00  0.00    -0.103 C  
HETATM   22  N   UNL     1      -7.353   8.873  65.038  1.00  0.00    -0.094 NA 
HETATM   23  H1  UNL     1      -7.795   8.282  64.333  1.00  0.00     0.000 HD 
HETATM   24  H2  UNL     1      -6.346   8.726  65.107  1.00  0.00     0.000 HD 
BRANCH  21  25
HETATM   25  C   UNL     1      -9.609   8.862  66.168  1.00  0.00    -0.265 C  
HETATM   26  H   UNL     1     -11.291   7.979  66.737  1.00  0.00     0.000 HD 
HETATM   27  O   UNL     1     -10.355   7.845  66.821  1.00  0.00    -0.309 OA 
BRANCH  25  28
HETATM   28  C   UNL     1      -9.957  10.253  66.736  1.00  0.00    -0.261 C  
HETATM   29  C   UNL     1      -9.641  11.548  65.951  1.00  0.00    -0.254 C  
HETATM   30  C   UNL     1     -10.059  12.680  66.912  1.00  0.00    -0.230 C  
HETATM   31  C   UNL     1     -10.344  11.686  64.569  1.00  0.00    -0.349 C  
HETATM   32  C   UNL     1      -9.914  12.936  63.789  1.00  0.00     0.297 C  
HETATM   33  O   UNL     1     -11.063  12.628  67.621  1.00  0.00    -0.241 OA 
HETATM   34  N   UNL     1      -9.226  13.777  66.919  1.00  0.00    -0.249 N  
HETATM   35  C   UNL     1     -11.873  11.607  64.654  1.00  0.00    -0.101 C  
HETATM   36  H   UNL     1      -8.453  13.830  66.257  1.00  0.00     0.000 HD 
BRANCH  34  37
HETATM   37  C   UNL     1      -9.443  14.858  67.864  1.00  0.00    -0.200 C  
BRANCH  37  38
HETATM   38  C   UNL     1      -9.370  16.256  67.227  1.00  0.00    -0.231 C  
HETATM   39  C   UNL     1      -7.940  16.819  67.376  1.00  0.00    -0.191 C  
HETATM   40  C   UNL     1      -9.737  16.196  65.735  1.00  0.00    -0.325 C  
BRANCH  38  41
HETATM   41  C   UNL     1     -10.340  17.189  67.963  1.00  0.00    -0.353 C  
HETATM   42  N   UNL     1     -10.700  16.844  69.229  1.00  0.00    -0.325 N  
HETATM   43  O   UNL     1     -10.794  18.222  67.475  1.00  0.00    -0.399 OA 
HETATM   44  H2  UNL     1     -10.339  15.999  69.671  1.00  0.00     0.000 HD 
HETATM   45  H1  UNL     1     -11.345  17.464  69.718  1.00  0.00     0.000 HD 
ENDBRANCH  38  41
ENDBRANCH  37  38
ENDBRANCH  34  37
ENDBRANCH  25  28
ENDBRANCH  21  25
ENDBRANCH  17  21
ENDBRANCH  11  15
ENDBRANCH   6   7
ENDBRANCH   5   6
ENDBRANCH   4   5
ENDBRANCH   3   4
ENDBRANCH   2   3
TORSDOF 13
ENDMDL
MODEL      133
REMARK 921   NORMALIZED FREE ENERGY PREDICTED BY IDOCK:   -3.37 KCAL/MOL
REMARK 922        TOTAL FREE ENERGY PREDICTED BY IDOCK:   -8.24 KCAL/MOL
REMARK 923 INTER-LIGAND FREE ENERGY PREDICTED BY IDOCK:   -5.71 KCAL/MOL
REMARK 924 INTRA-LIGAND FREE ENERGY PREDICTED BY IDOCK:   -2.52 KCAL/MOL
REMARK 927      BINDING AFFINITY PREDICTED BY RF-SCORE:    0.00 PKD
ROOT
HETATM    1  C   UNL     1     -10.261   8.361  67.759  1.00  0.00    -0.224 C  
HETATM    2  O   UNL     1      -9.788   8.410  69.098  1.00  0.00    -0.175 OA 
ENDROOT
BRANCH   2   3
HETATM    3  C   UNL     1      -9.358   9.726  69.444  1.00  0.00    -0.202 C  
BRANCH   3   4
HETATM    4  C   UNL     1      -7.858   9.851  69.215  1.00  0.00    -0.117 C  
BRANCH   4   5
HETATM    5  C   UNL     1      -7.335  11.284  69.307  1.00  0.00    -0.068 C  
BRANCH   5   6
HETATM    6  O   UNL     1      -6.751  11.676  68.069  1.00  0.00    -0.060 OA 
BRANCH   6   7
HETATM    7  C   UNL     1      -7.441  11.500  66.894  1.00  0.00    -0.145 A  
HETATM    8  C   UNL     1      -6.863  10.583  65.989  1.00  0.00    -0.134 A  
HETATM    9  C   UNL     1      -7.405  10.445  64.708  1.00  0.00    -0.038 A  
HETATM   10  C   UNL     1      -8.548  12.263  66.503  1.00  0.00    -0.039 A  
HETATM   11  C   UNL     1      -9.041  12.183  65.186  1.00  0.00     0.418 A  
HETATM   12  C   UNL     1      -8.471  11.256  64.310  1.00  0.00     0.481 A  
BRANCH   8  13
HETATM   13  O   UNL     1      -5.770   9.888  66.449  1.00  0.00    -0.051 OA 
HETATM   14  C   UNL     1      -5.724   8.490  66.203  1.00  0.00    -0.043 C  
ENDBRANCH   8  13
BRANCH  11  15
HETATM   15  C   UNL     1     -10.009  13.222  64.658  1.00  0.00    -0.141 C  
HETATM   16  C   UNL     1     -11.461  13.326  65.190  1.00  0.00    -0.319 C  
HETATM   17  C   UNL     1     -12.134  14.630  64.613  1.00  0.00    -0.466 C  
HETATM   18  C   UNL     1     -12.398  12.116  64.887  1.00  0.00    -0.259 C  
HETATM   19  C   UNL     1     -12.033  10.856  65.674  1.00  0.00     1.971 C  
HETATM   20  C   UNL     1     -12.535  11.797  63.397  1.00  0.00    -0.490 C  
BRANCH  17  21
HETATM   21  C   UNL     1     -11.480  15.961  65.034  1.00  0.00    -0.079 C  
HETATM   22  N   UNL     1     -11.221  16.728  63.810  1.00  0.00    -0.713 NA 
HETATM   23  H1  UNL     1     -10.788  17.609  64.088  1.00  0.00     0.000 HD 
HETATM   24  H2  UNL     1     -12.054  16.857  63.236  1.00  0.00     0.000 HD 
BRANCH  21  25
HETATM   25  C   UNL     1     -10.180  15.788  65.907  1.00  0.00    -0.355 C  
HETATM   26  H   UNL     1      -8.337  16.516  65.987  1.00  0.00     0.000 HD 
HETATM   27  O   UNL     1      -9.121  16.621  65.461  1.00  0.00    -0.405 OA 
BRANCH  25  28
HETATM   28  C   UNL     1     -10.535  16.085  67.378  1.00  0.00    -0.308 C  
HETATM   29  C   UNL     1      -9.753  15.436  68.544  1.00  0.00    -0.204 C  
HETATM   30  C   UNL     1     -10.491  15.925  69.808  1.00  0.00    -0.311 C  
HETATM   31  C   UNL     1      -8.234  15.771  68.607  1.00  0.00    -0.174 C  
HETATM   32  C   UNL     1      -7.489  15.019  69.717  1.00  0.00    -0.102 C  
HETATM   33  O   UNL     1     -10.933  17.066  69.933  1.00  0.00    -0.111 OA 
HETATM   34  N   UNL     1     -10.617  14.989  70.810  1.00  0.00    -0.523 N  
HETATM   35  C   UNL     1      -7.947  17.274  68.692  1.00  0.00    -0.267 C  
HETATM   36  H   UNL     1     -10.163  14.081  70.715  1.00  0.00     0.000 HD 
BRANCH  34  37
HETATM   37  C   UNL     1     -11.392  15.286  72.001  1.00  0.00    -0.343 C  
BRANCH  37  38
HETATM   38  C   UNL     1     -12.830  14.744  71.950  1.00  0.00    -0.395 C  
HETATM   39  C   UNL     1     -13.407  14.667  73.380  1.00  0.00    -0.058 C  
HETATM   40  C   UNL     1     -13.727  15.651  71.091  1.00  0.00    -0.232 C  
BRANCH  38  41
HETATM   41  C   UNL     1     -12.807  13.328  71.358  1.00  0.00    -0.322 C  
HETATM   42  N   UNL     1     -13.231  12.311  72.155  1.00  0.00    -0.460 N  
HETATM   43  O   UNL     1     -12.439  13.074  70.213  1.00  0.00    -0.249 OA 
HETATM   44  H2  UNL     1     -13.552  12.482  73.108  1.00  0.00     0.000 HD 
HETATM   45  H1  UNL     1     -13.216  11.370  71.762  1.00  0.00     0.000 HD 
ENDBRANCH  38  41
ENDBRANCH  37  38
ENDBRANCH  34  37
ENDBRANCH  25  28
ENDBRANCH  21  25
ENDBRANCH  17  21
ENDBRANCH  11  15
ENDBRANCH   6   7
ENDBRANCH   5   6
ENDBRANCH   4   5
ENDBRANCH   3   4
ENDBRANCH   2   3
TORSDOF 13
ENDMDL
MODEL      134
REMARK 921   NORMALIZED FREE ENERGY PREDICTED BY IDOCK:   -3.36 KCAL/MOL
REMARK 922        TOTAL FREE ENERGY PREDICTED BY IDOCK:   -8.22 KCAL/MOL
REMARK 923 INTER-LIGAND FREE ENERGY PREDICTED BY IDOCK:   -7.23 KCAL/MOL
REMARK 924 INTRA-LIGAND FREE ENERGY PREDICTED BY IDOCK:   -0.99 KCAL/MOL
REMARK 927      BINDING AFFINITY PREDICTED BY RF-SCORE:    0.00 PKD
ROOT
HETATM    1  C   UNL     1      -7.717   7.936  65.988  1.00  0.00    -0.092 C  
HETATM    2  O   UNL     1      -8.085   6.567  66.071  1.00  0.00    -0.110 OA 
ENDROOT
BRANCH   2   3
HETATM    3  C   UNL     1      -7.145   5.740  65.386  1.00  0.00    -0.069 C  
BRANCH   3   4
HETATM    4  C   UNL     1      -5.873   5.617  66.213  1.00  0.00    -0.018 C  
BRANCH   4   5
HETATM    5  C   UNL     1      -6.047   4.815  67.503  1.00  0.00    -0.027 C  
BRANCH   5   6
HETATM    6  O   UNL     1      -7.367   4.284  67.578  1.00  0.00    -0.067 OA 
BRANCH   6   7
HETATM    7  C   UNL     1      -8.104   4.425  68.728  1.00  0.00    -0.077 A  
HETATM    8  C   UNL     1      -8.658   3.230  69.237  1.00  0.00    -0.067 A  
HETATM    9  C   UNL     1      -9.544   3.288  70.316  1.00  0.00    -0.198 A  
HETATM   10  C   UNL     1      -8.445   5.654  69.304  1.00  0.00    -0.106 A  
HETATM   11  C   UNL     1      -9.401   5.718  70.336  1.00  0.00    -0.186 A  
HETATM   12  C   UNL     1      -9.925   4.525  70.843  1.00  0.00    -0.263 A  
BRANCH   8  13
HETATM   13  O   UNL     1      -8.281   2.071  68.603  1.00  0.00    -0.055 OA 
HETATM   14  C   UNL     1      -8.594   1.940  67.223  1.00  0.00    -0.097 C  
ENDBRANCH   8  13
BRANCH  11  15
HETATM   15  C   UNL     1     -10.018   7.041  70.739  1.00  0.00    -0.197 C  
HETATM   16  C   UNL     1      -9.158   8.201  71.304  1.00  0.00    -0.185 C  
HETATM   17  C   UNL     1     -10.046   9.499  71.414  1.00  0.00    -0.117 C  
HETATM   18  C   UNL     1      -8.482   7.952  72.687  1.00  0.00    -0.203 C  
HETATM   19  C   UNL     1      -7.345   6.929  72.630  1.00  0.00    -0.082 C  
HETATM   20  C   UNL     1      -9.467   7.597  73.804  1.00  0.00    -0.300 C  
BRANCH  17  21
HETATM   21  C   UNL     1     -10.594  10.049  70.082  1.00  0.00    -0.296 C  
HETATM   22  N   UNL     1     -11.994   9.620  69.974  1.00  0.00    -0.459 NA 
HETATM   23  H1  UNL     1     -12.357   9.983  69.093  1.00  0.00     0.000 HD 
HETATM   24  H2  UNL     1     -12.557   9.892  70.780  1.00  0.00     0.000 HD 
BRANCH  21  25
HETATM   25  C   UNL     1      -9.750   9.627  68.820  1.00  0.00    -0.163 C  
HETATM   26  H   UNL     1      -9.879   8.351  67.306  1.00  0.00     0.000 HD 
HETATM   27  O   UNL     1     -10.388   8.606  68.067  1.00  0.00    -0.214 OA 
BRANCH  25  28
HETATM   28  C   UNL     1      -9.502  10.879  67.955  1.00  0.00    -0.167 C  
HETATM   29  C   UNL     1      -8.588  12.028  68.442  1.00  0.00    -0.147 C  
HETATM   30  C   UNL     1      -8.702  13.093  67.332  1.00  0.00    -0.206 C  
HETATM   31  C   UNL     1      -7.105  11.642  68.711  1.00  0.00    -0.106 C  
HETATM   32  C   UNL     1      -6.270  12.792  69.291  1.00  0.00    -0.105 C  
HETATM   33  O   UNL     1      -8.747  12.817  66.134  1.00  0.00     0.121 OA 
HETATM   34  N   UNL     1      -8.741  14.396  67.775  1.00  0.00    -0.170 N  
HETATM   35  C   UNL     1      -6.404  11.035  67.490  1.00  0.00    -0.062 C  
HETATM   36  H   UNL     1      -8.612  14.599  68.765  1.00  0.00     0.000 HD 
BRANCH  34  37
HETATM   37  C   UNL     1      -8.966  15.484  66.839  1.00  0.00    -0.246 C  
BRANCH  37  38
HETATM   38  C   UNL     1     -10.432  15.941  66.768  1.00  0.00    -0.309 C  
HETATM   39  C   UNL     1     -11.300  15.044  67.677  1.00  0.00    -0.342 C  
HETATM   40  C   UNL     1     -10.572  17.404  67.218  1.00  0.00    -0.284 C  
BRANCH  38  41
HETATM   41  C   UNL     1     -10.929  15.793  65.323  1.00  0.00    -0.344 C  
HETATM   42  N   UNL     1     -11.519  14.616  64.982  1.00  0.00    -0.371 N  
HETATM   43  O   UNL     1     -10.830  16.677  64.475  1.00  0.00    -0.847 OA 
HETATM   44  H2  UNL     1     -11.626  13.861  65.660  1.00  0.00     0.000 HD 
HETATM   45  H1  UNL     1     -11.849  14.517  64.023  1.00  0.00     0.000 HD 
ENDBRANCH  38  41
ENDBRANCH  37  38
ENDBRANCH  34  37
ENDBRANCH  25  28
ENDBRANCH  21  25
ENDBRANCH  17  21
ENDBRANCH  11  15
ENDBRANCH   6   7
ENDBRANCH   5   6
ENDBRANCH   4   5
ENDBRANCH   3   4
ENDBRANCH   2   3
TORSDOF 13
ENDMDL
MODEL      135
REMARK 921   NORMALIZED FREE ENERGY PREDICTED BY IDOCK:   -3.33 KCAL/MOL
REMARK 922        TOTAL FREE ENERGY PREDICTED BY IDOCK:   -8.17 KCAL/MOL
REMARK 923 INTER-LIGAND FREE ENERGY PREDICTED BY IDOCK:   -7.17 KCAL/MOL
REMARK 924 INTRA-LIGAND FREE ENERGY PREDICTED BY IDOCK:   -1.00 KCAL/MOL
REMARK 927      BINDING AFFINITY PREDICTED BY RF-SCORE:    0.00 PKD
ROOT
HETATM    1  C   UNL     1     -12.100   3.911  73.483  1.00  0.00     0.486 C  
HETATM    2  O   UNL     1     -11.103   4.922  73.537  1.00  0.00    -0.303 OA 
ENDROOT
BRANCH   2   3
HETATM    3  C   UNL     1     -11.354   5.943  72.572  1.00  0.00    -0.304 C  
BRANCH   3   4
HETATM    4  C   UNL     1     -10.276   7.015  72.668  1.00  0.00    -0.218 C  
BRANCH   4   5
HETATM    5  C   UNL     1     -10.408   8.122  71.622  1.00  0.00    -0.224 C  
BRANCH   5   6
HETATM    6  O   UNL     1      -9.302   9.015  71.709  1.00  0.00    -0.303 OA 
BRANCH   6   7
HETATM    7  C   UNL     1      -8.134   8.736  71.043  1.00  0.00    -0.156 A  
HETATM    8  C   UNL     1      -6.970   8.744  71.842  1.00  0.00    -0.043 A  
HETATM    9  C   UNL     1      -5.718   8.619  71.235  1.00  0.00    -0.039 A  
HETATM   10  C   UNL     1      -8.027   8.604  69.653  1.00  0.00    -0.096 A  
HETATM   11  C   UNL     1      -6.762   8.562  69.036  1.00  0.00    -0.052 A  
HETATM   12  C   UNL     1      -5.620   8.551  69.842  1.00  0.00    -0.028 A  
BRANCH   8  13
HETATM   13  O   UNL     1      -7.166   8.894  73.194  1.00  0.00    -0.348 OA 
HETATM   14  C   UNL     1      -6.091   9.412  73.965  1.00  0.00     0.262 C  
ENDBRANCH   8  13
BRANCH  11  15
HETATM   15  C   UNL     1      -6.624   8.750  67.539  1.00  0.00    -0.062 C  
HETATM   16  C   UNL     1      -7.649   8.144  66.546  1.00  0.00    -0.092 C  
HETATM   17  C   UNL     1      -7.359   8.698  65.099  1.00  0.00    -0.088 C  
HETATM   18  C   UNL     1      -7.704   6.587  66.472  1.00  0.00    -0.099 C  
HETATM   19  C   UNL     1      -8.302   5.942  67.725  1.00  0.00    -0.108 C  
HETATM   20  C   UNL     1      -6.365   5.934  66.121  1.00  0.00    -0.042 C  
BRANCH  17  21
HETATM   21  C   UNL     1      -7.517  10.221  64.922  1.00  0.00    -0.114 C  
HETATM   22  N   UNL     1      -7.343  10.835  66.244  1.00  0.00    -0.136 NA 
HETATM   23  H1  UNL     1      -7.447  11.843  66.128  1.00  0.00     0.000 HD 
HETATM   24  H2  UNL     1      -6.464  10.575  66.693  1.00  0.00     0.000 HD 
BRANCH  21  25
HETATM   25  C   UNL     1      -8.875  10.649  64.248  1.00  0.00    -0.164 C  
HETATM   26  H   UNL     1     -10.229   9.882  63.018  1.00  0.00     0.000 HD 
HETATM   27  O   UNL     1      -9.410   9.624  63.425  1.00  0.00    -0.207 OA 
BRANCH  25  28
HETATM   28  C   UNL     1      -9.870  11.043  65.359  1.00  0.00    -0.301 C  
HETATM   29  C   UNL     1     -10.088  12.521  65.759  1.00  0.00    -0.278 C  
HETATM   30  C   UNL     1     -11.070  12.446  66.946  1.00  0.00    -0.287 C  
HETATM   31  C   UNL     1     -10.627  13.452  64.634  1.00  0.00    -0.431 C  
HETATM   32  C   UNL     1     -10.725  14.925  65.055  1.00  0.00    -0.451 C  
HETATM   33  O   UNL     1     -12.013  11.657  66.994  1.00  0.00    -0.593 OA 
HETATM   34  N   UNL     1     -10.826  13.341  67.964  1.00  0.00    -0.237 N  
HETATM   35  C   UNL     1     -11.955  12.977  64.036  1.00  0.00    -0.523 C  
HETATM   36  H   UNL     1     -10.094  14.043  67.857  1.00  0.00     0.000 HD 
BRANCH  34  37
HETATM   37  C   UNL     1     -11.605  13.293  69.188  1.00  0.00    -0.319 C  
BRANCH  37  38
HETATM   38  C   UNL     1     -11.929  14.681  69.766  1.00  0.00    -0.378 C  
HETATM   39  C   UNL     1     -12.278  15.652  68.618  1.00  0.00     0.090 C  
HETATM   40  C   UNL     1     -13.116  14.603  70.741  1.00  0.00    -0.377 C  
BRANCH  38  41
HETATM   41  C   UNL     1     -10.691  15.217  70.498  1.00  0.00    -0.149 C  
HETATM   42  N   UNL     1     -10.701  15.172  71.857  1.00  0.00    -0.175 N  
HETATM   43  O   UNL     1      -9.703  15.670  69.924  1.00  0.00    -0.283 OA 
HETATM   44  H2  UNL     1     -11.498  14.797  72.370  1.00  0.00     0.000 HD 
HETATM   45  H1  UNL     1      -9.878  15.528  72.343  1.00  0.00     0.000 HD 
ENDBRANCH  38  41
ENDBRANCH  37  38
ENDBRANCH  34  37
ENDBRANCH  25  28
ENDBRANCH  21  25
ENDBRANCH  17  21
ENDBRANCH  11  15
ENDBRANCH   6   7
ENDBRANCH   5   6
ENDBRANCH   4   5
ENDBRANCH   3   4
ENDBRANCH   2   3
TORSDOF 13
ENDMDL
MODEL      136
REMARK 921   NORMALIZED FREE ENERGY PREDICTED BY IDOCK:   -3.30 KCAL/MOL
REMARK 922        TOTAL FREE ENERGY PREDICTED BY IDOCK:   -8.11 KCAL/MOL
REMARK 923 INTER-LIGAND FREE ENERGY PREDICTED BY IDOCK:   -7.46 KCAL/MOL
REMARK 924 INTRA-LIGAND FREE ENERGY PREDICTED BY IDOCK:   -0.66 KCAL/MOL
REMARK 927      BINDING AFFINITY PREDICTED BY RF-SCORE:    0.00 PKD
ROOT
HETATM    1  C   UNL     1     -13.605  13.444  72.068  1.00  0.00    -0.487 C  
HETATM    2  O   UNL     1     -13.211  13.848  70.764  1.00  0.00    -0.215 OA 
ENDROOT
BRANCH   2   3
HETATM    3  C   UNL     1     -12.075  13.109  70.319  1.00  0.00    -0.328 C  
BRANCH   3   4
HETATM    4  C   UNL     1     -12.082  13.026  68.798  1.00  0.00    -0.197 C  
BRANCH   4   5
HETATM    5  C   UNL     1     -11.083  12.019  68.228  1.00  0.00    -0.243 C  
BRANCH   5   6
HETATM    6  O   UNL     1     -10.370  12.597  67.139  1.00  0.00    -0.230 OA 
BRANCH   6   7
HETATM    7  C   UNL     1      -9.693  11.794  66.253  1.00  0.00    -0.222 A  
HETATM    8  C   UNL     1     -10.113  11.896  64.908  1.00  0.00    -0.263 A  
HETATM    9  C   UNL     1      -9.591  11.016  63.956  1.00  0.00    -0.310 A  
HETATM   10  C   UNL     1      -8.763  10.815  66.622  1.00  0.00    -0.149 A  
HETATM   11  C   UNL     1      -8.302   9.877  65.679  1.00  0.00    -0.140 A  
HETATM   12  C   UNL     1      -8.710  10.004  64.348  1.00  0.00    -0.217 A  
BRANCH   8  13
HETATM   13  O   UNL     1     -11.040  12.874  64.637  1.00  0.00    -0.298 OA 
HETATM   14  C   UNL     1     -12.380  12.467  64.401  1.00  0.00    -0.447 C  
ENDBRANCH   8  13
BRANCH  11  15
HETATM   15  C   UNL     1      -7.564   8.631  66.123  1.00  0.00    -0.093 C  
HETATM   16  C   UNL     1      -6.029   8.627  66.339  1.00  0.00    -0.052 C  
HETATM   17  C   UNL     1      -5.602   7.265  67.008  1.00  0.00    -0.023 C  
HETATM   18  C   UNL     1      -5.152   8.845  65.068  1.00  0.00    -0.037 C  
HETATM   19  C   UNL     1      -5.228  10.270  64.517  1.00  0.00    -0.122 C  
HETATM   20  C   UNL     1      -5.406   7.826  63.956  1.00  0.00    -0.037 C  
BRANCH  17  21
HETATM   21  C   UNL     1      -6.182   6.999  68.412  1.00  0.00    -0.034 C  
HETATM   22  N   UNL     1      -7.644   6.995  68.288  1.00  0.00    -0.109 NA 
HETATM   23  H1  UNL     1      -8.028   6.820  69.216  1.00  0.00     0.000 HD 
HETATM   24  H2  UNL     1      -7.984   6.338  67.585  1.00  0.00     0.000 HD 
BRANCH  21  25
HETATM   25  C   UNL     1      -5.686   8.013  69.510  1.00  0.00    -0.026 C  
HETATM   26  H   UNL     1      -4.828   9.800  69.604  1.00  0.00     0.000 HD 
HETATM   27  O   UNL     1      -5.128   9.188  68.941  1.00  0.00    -0.033 OA 
BRANCH  25  28
HETATM   28  C   UNL     1      -6.874   8.356  70.432  1.00  0.00    -0.037 C  
HETATM   29  C   UNL     1      -7.521   7.289  71.346  1.00  0.00    -0.082 C  
HETATM   30  C   UNL     1      -8.706   8.027  72.001  1.00  0.00    -0.147 C  
HETATM   31  C   UNL     1      -6.582   6.659  72.415  1.00  0.00    -0.059 C  
HETATM   32  C   UNL     1      -7.244   5.534  73.223  1.00  0.00    -0.090 C  
HETATM   33  O   UNL     1      -8.650   9.197  72.378  1.00  0.00    -0.249 OA 
HETATM   34  N   UNL     1      -9.851   7.276  72.150  1.00  0.00    -0.160 N  
HETATM   35  C   UNL     1      -5.951   7.693  73.355  1.00  0.00    -0.060 C  
HETATM   36  H   UNL     1      -9.841   6.285  71.912  1.00  0.00     0.000 HD 
BRANCH  34  37
HETATM   37  C   UNL     1     -11.072   7.887  72.644  1.00  0.00    -0.385 C  
BRANCH  37  38
HETATM   38  C   UNL     1     -12.188   7.972  71.589  1.00  0.00    -0.340 C  
HETATM   39  C   UNL     1     -11.587   8.401  70.233  1.00  0.00     0.016 C  
HETATM   40  C   UNL     1     -12.890   6.614  71.424  1.00  0.00    -0.163 C  
BRANCH  38  41
HETATM   41  C   UNL     1     -13.207   9.033  72.027  1.00  0.00    -0.429 C  
HETATM   42  N   UNL     1     -13.668   8.966  73.305  1.00  0.00    -0.640 N  
HETATM   43  O   UNL     1     -13.614   9.931  71.293  1.00  0.00    -0.324 OA 
HETATM   44  H2  UNL     1     -13.349   8.240  73.947  1.00  0.00     0.000 HD 
HETATM   45  H1  UNL     1     -14.345   9.671  73.596  1.00  0.00     0.000 HD 
ENDBRANCH  38  41
ENDBRANCH  37  38
ENDBRANCH  34  37
ENDBRANCH  25  28
ENDBRANCH  21  25
ENDBRANCH  17  21
ENDBRANCH  11  15
ENDBRANCH   6   7
ENDBRANCH   5   6
ENDBRANCH   4   5
ENDBRANCH   3   4
ENDBRANCH   2   3
TORSDOF 13
ENDMDL
MODEL      137
REMARK 921   NORMALIZED FREE ENERGY PREDICTED BY IDOCK:   -3.24 KCAL/MOL
REMARK 922        TOTAL FREE ENERGY PREDICTED BY IDOCK:   -8.01 KCAL/MOL
REMARK 923 INTER-LIGAND FREE ENERGY PREDICTED BY IDOCK:   -6.89 KCAL/MOL
REMARK 924 INTRA-LIGAND FREE ENERGY PREDICTED BY IDOCK:   -1.11 KCAL/MOL
REMARK 927      BINDING AFFINITY PREDICTED BY RF-SCORE:    0.00 PKD
ROOT
HETATM    1  C   UNL     1     -10.556  17.024  69.445  1.00  0.00    -0.236 C  
HETATM    2  O   UNL     1      -9.952  16.360  68.344  1.00  0.00    -0.225 OA 
ENDROOT
BRANCH   2   3
HETATM    3  C   UNL     1      -8.863  15.543  68.771  1.00  0.00    -0.203 C  
BRANCH   3   4
HETATM    4  C   UNL     1      -8.152  14.961  67.557  1.00  0.00    -0.200 C  
BRANCH   4   5
HETATM    5  C   UNL     1      -6.644  14.794  67.743  1.00  0.00    -0.170 C  
BRANCH   5   6
HETATM    6  O   UNL     1      -6.221  13.534  67.230  1.00  0.00    -0.313 OA 
BRANCH   6   7
HETATM    7  C   UNL     1      -6.852  12.380  67.625  1.00  0.00    -0.132 A  
HETATM    8  C   UNL     1      -6.497  11.221  66.901  1.00  0.00    -0.128 A  
HETATM    9  C   UNL     1      -7.189  10.029  67.126  1.00  0.00    -0.090 A  
HETATM   10  C   UNL     1      -7.893  12.327  68.560  1.00  0.00    -0.111 A  
HETATM   11  C   UNL     1      -8.644  11.147  68.726  1.00  0.00    -0.133 A  
HETATM   12  C   UNL     1      -8.266  10.004  68.017  1.00  0.00    -0.116 A  
BRANCH   8  13
HETATM   13  O   UNL     1      -5.475  11.366  65.993  1.00  0.00    -0.227 OA 
HETATM   14  C   UNL     1      -5.536  10.597  64.800  1.00  0.00    -0.089 C  
ENDBRANCH   8  13
BRANCH  11  15
HETATM   15  C   UNL     1      -9.960  11.167  69.477  1.00  0.00     0.166 C  
HETATM   16  C   UNL     1     -11.308  10.893  68.762  1.00  0.00    -0.357 C  
HETATM   17  C   UNL     1     -12.450  10.764  69.841  1.00  0.00    -0.277 C  
HETATM   18  C   UNL     1     -11.754  11.945  67.700  1.00  0.00    -0.346 C  
HETATM   19  C   UNL     1     -10.899  11.924  66.432  1.00  0.00    -0.318 C  
HETATM   20  C   UNL     1     -11.868  13.370  68.248  1.00  0.00    -0.393 C  
BRANCH  17  21
HETATM   21  C   UNL     1     -12.304   9.592  70.833  1.00  0.00    -0.263 C  
HETATM   22  N   UNL     1     -12.923  10.009  72.097  1.00  0.00    -0.412 NA 
HETATM   23  H1  UNL     1     -12.826   9.234  72.753  1.00  0.00     0.000 HD 
HETATM   24  H2  UNL     1     -13.888  10.318  71.985  1.00  0.00     0.000 HD 
BRANCH  21  25
HETATM   25  C   UNL     1     -10.818   9.109  71.036  1.00  0.00    -0.291 C  
HETATM   26  H   UNL     1      -9.619   8.578  72.525  1.00  0.00     0.000 HD 
HETATM   27  O   UNL     1     -10.515   8.869  72.402  1.00  0.00    -0.264 OA 
BRANCH  25  28
HETATM   28  C   UNL     1     -10.597   7.838  70.190  1.00  0.00    -0.237 C  
HETATM   29  C   UNL     1      -9.298   7.007  70.307  1.00  0.00    -0.159 C  
HETATM   30  C   UNL     1      -9.458   5.909  69.235  1.00  0.00    -0.128 C  
HETATM   31  C   UNL     1      -9.012   6.396  71.709  1.00  0.00    -0.139 C  
HETATM   32  C   UNL     1      -7.662   5.672  71.796  1.00  0.00    -0.101 C  
HETATM   33  O   UNL     1     -10.525   5.341  69.004  1.00  0.00    -0.205 OA 
HETATM   34  N   UNL     1      -8.308   5.592  68.547  1.00  0.00    -0.101 N  
HETATM   35  C   UNL     1     -10.139   5.490  72.218  1.00  0.00    -0.225 C  
HETATM   36  H   UNL     1      -7.421   6.013  68.821  1.00  0.00     0.000 HD 
BRANCH  34  37
HETATM   37  C   UNL     1      -8.351   4.660  67.434  1.00  0.00    -0.104 C  
BRANCH  37  38
HETATM   38  C   UNL     1      -7.805   5.246  66.121  1.00  0.00    -0.103 C  
HETATM   39  C   UNL     1      -7.598   4.111  65.094  1.00  0.00    -0.081 C  
HETATM   40  C   UNL     1      -8.780   6.283  65.539  1.00  0.00    -0.090 C  
BRANCH  38  41
HETATM   41  C   UNL     1      -6.447   5.906  66.396  1.00  0.00    -0.043 C  
HETATM   42  N   UNL     1      -5.991   6.801  65.480  1.00  0.00    -0.034 N  
HETATM   43  O   UNL     1      -5.767   5.675  67.394  1.00  0.00    -0.015 OA 
HETATM   44  H2  UNL     1      -6.529   7.025  64.643  1.00  0.00     0.000 HD 
HETATM   45  H1  UNL     1      -5.089   7.240  65.663  1.00  0.00     0.000 HD 
ENDBRANCH  38  41
ENDBRANCH  37  38
ENDBRANCH  34  37
ENDBRANCH  25  28
ENDBRANCH  21  25
ENDBRANCH  17  21
ENDBRANCH  11  15
ENDBRANCH   6   7
ENDBRANCH   5   6
ENDBRANCH   4   5
ENDBRANCH   3   4
ENDBRANCH   2   3
TORSDOF 13
ENDMDL
MODEL      138
REMARK 921   NORMALIZED FREE ENERGY PREDICTED BY IDOCK:   -3.21 KCAL/MOL
REMARK 922        TOTAL FREE ENERGY PREDICTED BY IDOCK:   -7.96 KCAL/MOL
REMARK 923 INTER-LIGAND FREE ENERGY PREDICTED BY IDOCK:   -8.21 KCAL/MOL
REMARK 924 INTRA-LIGAND FREE ENERGY PREDICTED BY IDOCK:    0.25 KCAL/MOL
REMARK 927      BINDING AFFINITY PREDICTED BY RF-SCORE:    0.00 PKD
ROOT
HETATM    1  C   UNL     1      -9.650   4.825  71.837  1.00  0.00    -0.152 C  
HETATM    2  O   UNL     1     -10.096   5.601  72.940  1.00  0.00    -0.170 OA 
ENDROOT
BRANCH   2   3
HETATM    3  C   UNL     1     -11.375   6.176  72.680  1.00  0.00    -0.259 C  
BRANCH   3   4
HETATM    4  C   UNL     1     -11.340   7.665  72.995  1.00  0.00    -0.334 C  
BRANCH   4   5
HETATM    5  C   UNL     1     -12.103   8.529  71.990  1.00  0.00    -0.364 C  
BRANCH   5   6
HETATM    6  O   UNL     1     -11.379   9.726  71.720  1.00  0.00    -0.298 OA 
BRANCH   6   7
HETATM    7  C   UNL     1     -10.623   9.833  70.578  1.00  0.00    -0.312 A  
HETATM    8  C   UNL     1      -9.275   9.436  70.711  1.00  0.00    -0.213 A  
HETATM    9  C   UNL     1      -8.388   9.647  69.651  1.00  0.00    -0.173 A  
HETATM   10  C   UNL     1     -11.061  10.435  69.392  1.00  0.00    -0.304 A  
HETATM   11  C   UNL     1     -10.149  10.721  68.358  1.00  0.00    -0.183 A  
HETATM   12  C   UNL     1      -8.823  10.303  68.496  1.00  0.00    -0.127 A  
BRANCH   8  13
HETATM   13  O   UNL     1      -8.926   8.869  71.913  1.00  0.00    -0.331 OA 
HETATM   14  C   UNL     1      -7.841   7.953  71.923  1.00  0.00    -0.105 C  
ENDBRANCH   8  13
BRANCH  11  15
HETATM   15  C   UNL     1     -10.531  11.652  67.226  1.00  0.00    -0.247 C  
HETATM   16  C   UNL     1      -9.459  12.345  66.345  1.00  0.00    -0.240 C  
HETATM   17  C   UNL     1     -10.167  13.059  65.131  1.00  0.00    -0.289 C  
HETATM   18  C   UNL     1      -8.545  13.386  67.060  1.00  0.00    -0.168 C  
HETATM   19  C   UNL     1      -7.555  12.751  68.039  1.00  0.00    -0.131 C  
HETATM   20  C   UNL     1      -9.311  14.525  67.736  1.00  0.00    -0.198 C  
BRANCH  17  21
HETATM   21  C   UNL     1     -10.916  12.130  64.154  1.00  0.00    -0.361 C  
HETATM   22  N   UNL     1     -11.940  11.416  64.927  1.00  0.00     0.151 NA 
HETATM   23  H1  UNL     1     -12.435  10.802  64.281  1.00  0.00     0.000 HD 
HETATM   24  H2  UNL     1     -12.562  12.041  65.439  1.00  0.00     0.000 HD 
BRANCH  21  25
HETATM   25  C   UNL     1      -9.978  11.141  63.365  1.00  0.00    -0.387 C  
HETATM   26  H   UNL     1      -8.416  11.231  62.145  1.00  0.00     0.000 HD 
HETATM   27  O   UNL     1      -8.982  11.828  62.621  1.00  0.00    -0.246 OA 
BRANCH  25  28
HETATM   28  C   UNL     1      -9.340  10.163  64.372  1.00  0.00    -0.348 C  
HETATM   29  C   UNL     1      -8.598   8.890  63.901  1.00  0.00    -0.110 C  
HETATM   30  C   UNL     1      -8.216   8.173  65.213  1.00  0.00    -0.149 C  
HETATM   31  C   UNL     1      -7.352   9.130  63.000  1.00  0.00    -0.098 C  
HETATM   32  C   UNL     1      -6.719   7.833  62.477  1.00  0.00    -0.080 C  
HETATM   33  O   UNL     1      -7.828   8.766  66.219  1.00  0.00    -0.099 OA 
HETATM   34  N   UNL     1      -8.329   6.801  65.183  1.00  0.00    -0.252 N  
HETATM   35  C   UNL     1      -6.289  10.018  63.657  1.00  0.00    -0.131 C  
HETATM   36  H   UNL     1      -8.565   6.331  64.309  1.00  0.00     0.000 HD 
BRANCH  34  37
HETATM   37  C   UNL     1      -8.113   6.019  66.387  1.00  0.00    -0.110 C  
BRANCH  37  38
HETATM   38  C   UNL     1      -9.347   5.215  66.828  1.00  0.00    -0.134 C  
HETATM   39  C   UNL     1     -10.061   4.639  65.585  1.00  0.00    -0.238 C  
HETATM   40  C   UNL     1      -8.943   4.060  67.759  1.00  0.00    -0.149 C  
BRANCH  38  41
HETATM   41  C   UNL     1     -10.319   6.153  67.556  1.00  0.00    -0.208 C  
HETATM   42  N   UNL     1     -11.587   6.238  67.072  1.00  0.00    -0.520 N  
HETATM   43  O   UNL     1     -10.013   6.815  68.546  1.00  0.00    -0.142 OA 
HETATM   44  H2  UNL     1     -11.880   5.699  66.257  1.00  0.00     0.000 HD 
HETATM   45  H1  UNL     1     -12.232   6.862  67.556  1.00  0.00     0.000 HD 
ENDBRANCH  38  41
ENDBRANCH  37  38
ENDBRANCH  34  37
ENDBRANCH  25  28
ENDBRANCH  21  25
ENDBRANCH  17  21
ENDBRANCH  11  15
ENDBRANCH   6   7
ENDBRANCH   5   6
ENDBRANCH   4   5
ENDBRANCH   3   4
ENDBRANCH   2   3
TORSDOF 13
ENDMDL
MODEL      139
REMARK 921   NORMALIZED FREE ENERGY PREDICTED BY IDOCK:   -3.21 KCAL/MOL
REMARK 922        TOTAL FREE ENERGY PREDICTED BY IDOCK:   -7.96 KCAL/MOL
REMARK 923 INTER-LIGAND FREE ENERGY PREDICTED BY IDOCK:   -6.46 KCAL/MOL
REMARK 924 INTRA-LIGAND FREE ENERGY PREDICTED BY IDOCK:   -1.50 KCAL/MOL
REMARK 927      BINDING AFFINITY PREDICTED BY RF-SCORE:    0.00 PKD
ROOT
HETATM    1  C   UNL     1      -8.989  20.473  65.647  1.00  0.00     0.540 C  
HETATM    2  O   UNL     1      -8.859  20.657  67.050  1.00  0.00    -0.281 OA 
ENDROOT
BRANCH   2   3
HETATM    3  C   UNL     1     -10.081  20.357  67.723  1.00  0.00    -0.304 C  
BRANCH   3   4
HETATM    4  C   UNL     1     -10.541  18.954  67.349  1.00  0.00    -0.534 C  
BRANCH   4   5
HETATM    5  C   UNL     1     -10.012  17.861  68.277  1.00  0.00    -0.360 C  
BRANCH   5   6
HETATM    6  O   UNL     1     -11.092  17.088  68.792  1.00  0.00    -0.245 OA 
BRANCH   6   7
HETATM    7  C   UNL     1     -11.074  15.719  68.686  1.00  0.00    -0.327 A  
HETATM    8  C   UNL     1     -11.868  15.032  69.629  1.00  0.00    -0.324 A  
HETATM    9  C   UNL     1     -11.801  13.638  69.701  1.00  0.00    -0.396 A  
HETATM   10  C   UNL     1     -10.225  15.002  67.833  1.00  0.00    -0.228 A  
HETATM   11  C   UNL     1     -10.098  13.606  67.962  1.00  0.00    -0.250 A  
HETATM   12  C   UNL     1     -10.906  12.938  68.887  1.00  0.00    -0.239 A  
BRANCH   8  13
HETATM   13  O   UNL     1     -12.659  15.814  70.437  1.00  0.00    -0.402 OA 
HETATM   14  C   UNL     1     -12.341  15.868  71.821  1.00  0.00    -0.468 C  
ENDBRANCH   8  13
BRANCH  11  15
HETATM   15  C   UNL     1      -8.962  12.867  67.285  1.00  0.00    -0.208 C  
HETATM   16  C   UNL     1      -7.721  12.379  68.077  1.00  0.00    -0.135 C  
HETATM   17  C   UNL     1      -6.838  11.463  67.148  1.00  0.00    -0.124 C  
HETATM   18  C   UNL     1      -6.807  13.489  68.682  1.00  0.00    -0.098 C  
HETATM   19  C   UNL     1      -7.453  14.237  69.850  1.00  0.00     0.343 C  
HETATM   20  C   UNL     1      -6.263  14.477  67.647  1.00  0.00    -0.101 C  
BRANCH  17  21
HETATM   21  C   UNL     1      -7.509  10.163  66.659  1.00  0.00    -0.106 C  
HETATM   22  N   UNL     1      -7.832  10.344  65.239  1.00  0.00    -0.176 NA 
HETATM   23  H1  UNL     1      -8.276   9.485  64.916  1.00  0.00     0.000 HD 
HETATM   24  H2  UNL     1      -7.024  10.611  64.677  1.00  0.00     0.000 HD 
BRANCH  21  25
HETATM   25  C   UNL     1      -8.772   9.740  67.501  1.00  0.00    -0.125 C  
HETATM   26  H   UNL     1     -10.394   8.618  67.284  1.00  0.00     0.000 HD 
HETATM   27  O   UNL     1      -9.632   8.873  66.776  1.00  0.00    -0.169 OA 
BRANCH  25  28
HETATM   28  C   UNL     1      -8.291   9.077  68.807  1.00  0.00    -0.122 C  
HETATM   29  C   UNL     1      -8.229   7.539  68.956  1.00  0.00    -0.128 C  
HETATM   30  C   UNL     1      -7.796   7.322  70.421  1.00  0.00    -0.099 C  
HETATM   31  C   UNL     1      -7.278   6.804  67.967  1.00  0.00    -0.091 C  
HETATM   32  C   UNL     1      -7.335   5.275  68.089  1.00  0.00    -0.072 C  
HETATM   33  O   UNL     1      -6.959   8.022  70.989  1.00  0.00    -0.047 OA 
HETATM   34  N   UNL     1      -8.409   6.269  71.062  1.00  0.00    -0.123 N  
HETATM   35  C   UNL     1      -5.827   7.293  68.041  1.00  0.00    -0.030 C  
HETATM   36  H   UNL     1      -9.031   5.651  70.540  1.00  0.00     0.000 HD 
BRANCH  34  37
HETATM   37  C   UNL     1      -8.177   6.032  72.475  1.00  0.00    -0.108 C  
BRANCH  37  38
HETATM   38  C   UNL     1      -9.239   5.133  73.131  1.00  0.00    -0.129 C  
HETATM   39  C   UNL     1     -10.109   5.974  74.090  1.00  0.00    -0.287 C  
HETATM   40  C   UNL     1     -10.140   4.486  72.066  1.00  0.00    -0.264 C  
BRANCH  38  41
HETATM   41  C   UNL     1      -8.532   4.041  73.946  1.00  0.00    -0.091 C  
HETATM   42  N   UNL     1      -9.229   2.901  74.199  1.00  0.00    -0.081 N  
HETATM   43  O   UNL     1      -7.382   4.143  74.367  1.00  0.00    -0.068 OA 
HETATM   44  H2  UNL     1     -10.183   2.776  73.861  1.00  0.00     0.000 HD 
HETATM   45  H1  UNL     1      -8.760   2.176  74.741  1.00  0.00     0.000 HD 
ENDBRANCH  38  41
ENDBRANCH  37  38
ENDBRANCH  34  37
ENDBRANCH  25  28
ENDBRANCH  21  25
ENDBRANCH  17  21
ENDBRANCH  11  15
ENDBRANCH   6   7
ENDBRANCH   5   6
ENDBRANCH   4   5
ENDBRANCH   3   4
ENDBRANCH   2   3
TORSDOF 13
ENDMDL
MODEL      140
REMARK 921   NORMALIZED FREE ENERGY PREDICTED BY IDOCK:   -3.16 KCAL/MOL
REMARK 922        TOTAL FREE ENERGY PREDICTED BY IDOCK:   -7.87 KCAL/MOL
REMARK 923 INTER-LIGAND FREE ENERGY PREDICTED BY IDOCK:   -6.64 KCAL/MOL
REMARK 924 INTRA-LIGAND FREE ENERGY PREDICTED BY IDOCK:   -1.24 KCAL/MOL
REMARK 927      BINDING AFFINITY PREDICTED BY RF-SCORE:    0.00 PKD
ROOT
HETATM    1  C   UNL     1     -12.864   8.950  71.496  1.00  0.00    -0.334 C  
HETATM    2  O   UNL     1     -11.658   9.437  70.925  1.00  0.00    -0.277 OA 
ENDROOT
BRANCH   2   3
HETATM    3  C   UNL     1     -11.750  10.833  70.643  1.00  0.00    -0.342 C  
BRANCH   3   4
HETATM    4  C   UNL     1     -12.278  11.035  69.229  1.00  0.00    -0.280 C  
BRANCH   4   5
HETATM    5  C   UNL     1     -11.478  12.046  68.407  1.00  0.00    -0.301 C  
BRANCH   5   6
HETATM    6  O   UNL     1     -12.156  12.337  67.189  1.00  0.00    -0.560 OA 
BRANCH   6   7
HETATM    7  C   UNL     1     -11.809  13.444  66.453  1.00  0.00    -0.396 A  
HETATM    8  C   UNL     1     -12.268  13.446  65.118  1.00  0.00    -0.434 A  
HETATM    9  C   UNL     1     -11.844  14.452  64.246  1.00  0.00    -0.385 A  
HETATM   10  C   UNL     1     -10.935  14.445  66.892  1.00  0.00    -0.308 A  
HETATM   11  C   UNL     1     -10.444  15.409  65.991  1.00  0.00    -0.333 A  
HETATM   12  C   UNL     1     -10.923  15.410  64.679  1.00  0.00    -0.333 A  
BRANCH   8  13
HETATM   13  O   UNL     1     -13.110  12.418  64.767  1.00  0.00    -0.806 OA 
HETATM   14  C   UNL     1     -12.781  11.657  63.613  1.00  0.00    -0.140 C  
ENDBRANCH   8  13
BRANCH  11  15
HETATM   15  C   UNL     1      -9.263  16.284  66.361  1.00  0.00    -0.332 C  
HETATM   16  C   UNL     1      -7.807  15.756  66.295  1.00  0.00     0.296 C  
HETATM   17  C   UNL     1      -6.809  16.955  66.520  1.00  0.00    -0.249 C  
HETATM   18  C   UNL     1      -7.438  14.617  67.294  1.00  0.00    -0.148 C  
HETATM   19  C   UNL     1      -8.103  13.280  66.961  1.00  0.00    -0.020 C  
HETATM   20  C   UNL     1      -7.669  14.980  68.763  1.00  0.00    -0.141 C  
BRANCH  17  21
HETATM   21  C   UNL     1      -6.855  18.071  65.458  1.00  0.00    -0.059 C  
HETATM   22  N   UNL     1      -5.611  17.989  64.682  1.00  0.00     0.173 NA 
HETATM   23  H1  UNL     1      -5.642  18.728  63.980  1.00  0.00     0.000 HD 
HETATM   24  H2  UNL     1      -5.451  17.065  64.283  1.00  0.00     0.000 HD 
BRANCH  21  25
HETATM   25  C   UNL     1      -7.084  19.512  66.053  1.00  0.00    -0.279 C  
HETATM   26  H   UNL     1      -7.599  21.318  65.415  1.00  0.00     0.000 HD 
HETATM   27  O   UNL     1      -7.462  20.449  65.056  1.00  0.00    -0.081 OA 
BRANCH  25  28
HETATM   28  C   UNL     1      -8.155  19.420  67.160  1.00  0.00    -0.293 C  
HETATM   29  C   UNL     1      -7.961  18.511  68.396  1.00  0.00    -0.337 C  
HETATM   30  C   UNL     1      -9.287  18.650  69.173  1.00  0.00    -0.042 C  
HETATM   31  C   UNL     1      -6.737  18.848  69.296  1.00  0.00    -0.310 C  
HETATM   32  C   UNL     1      -6.533  17.853  70.446  1.00  0.00     0.737 C  
HETATM   33  O   UNL     1      -9.894  19.713  69.289  1.00  0.00    -0.416 OA 
HETATM   34  N   UNL     1      -9.751  17.488  69.748  1.00  0.00     0.486 N  
HETATM   35  C   UNL     1      -6.750  20.286  69.827  1.00  0.00    -0.139 C  
HETATM   36  H   UNL     1      -9.182  16.642  69.712  1.00  0.00     0.000 HD 
BRANCH  34  37
HETATM   37  C   UNL     1     -11.045  17.459  70.405  1.00  0.00     1.292 C  
BRANCH  37  38
HETATM   38  C   UNL     1     -11.530  16.040  70.746  1.00  0.00    -0.444 C  
HETATM   39  C   UNL     1     -12.493  15.543  69.646  1.00  0.00    -0.137 C  
HETATM   40  C   UNL     1     -10.344  15.068  70.857  1.00  0.00     0.464 C  
BRANCH  38  41
HETATM   41  C   UNL     1     -12.293  16.081  72.078  1.00  0.00    -0.469 C  
HETATM   42  N   UNL     1     -13.571  15.615  72.080  1.00  0.00    -0.479 N  
HETATM   43  O   UNL     1     -11.809  16.499  73.127  1.00  0.00    -0.480 OA 
HETATM   44  H2  UNL     1     -14.005  15.253  71.231  1.00  0.00     0.000 HD 
HETATM   45  H1  UNL     1     -14.077  15.643  72.965  1.00  0.00     0.000 HD 
ENDBRANCH  38  41
ENDBRANCH  37  38
ENDBRANCH  34  37
ENDBRANCH  25  28
ENDBRANCH  21  25
ENDBRANCH  17  21
ENDBRANCH  11  15
ENDBRANCH   6   7
ENDBRANCH   5   6
ENDBRANCH   4   5
ENDBRANCH   3   4
ENDBRANCH   2   3
TORSDOF 13
ENDMDL
MODEL      141
REMARK 921   NORMALIZED FREE ENERGY PREDICTED BY IDOCK:   -3.16 KCAL/MOL
REMARK 922        TOTAL FREE ENERGY PREDICTED BY IDOCK:   -7.87 KCAL/MOL
REMARK 923 INTER-LIGAND FREE ENERGY PREDICTED BY IDOCK:   -7.56 KCAL/MOL
REMARK 924 INTRA-LIGAND FREE ENERGY PREDICTED BY IDOCK:   -0.31 KCAL/MOL
REMARK 927      BINDING AFFINITY PREDICTED BY RF-SCORE:    0.00 PKD
ROOT
HETATM    1  C   UNL     1      -7.333   4.041  69.032  1.00  0.00    -0.054 C  
HETATM    2  O   UNL     1      -6.424   4.698  68.159  1.00  0.00    -0.039 OA 
ENDROOT
BRANCH   2   3
HETATM    3  C   UNL     1      -6.894   6.000  67.813  1.00  0.00    -0.060 C  
BRANCH   3   4
HETATM    4  C   UNL     1      -7.571   5.954  66.450  1.00  0.00    -0.091 C  
BRANCH   4   5
HETATM    5  C   UNL     1      -8.494   7.142  66.176  1.00  0.00    -0.142 C  
BRANCH   5   6
HETATM    6  O   UNL     1      -8.230   7.683  64.886  1.00  0.00    -0.137 OA 
BRANCH   6   7
HETATM    7  C   UNL     1      -8.778   8.888  64.517  1.00  0.00    -0.086 A  
HETATM    8  C   UNL     1      -8.530   9.277  63.182  1.00  0.00    -0.212 A  
HETATM    9  C   UNL     1      -8.916  10.550  62.754  1.00  0.00    -0.278 A  
HETATM   10  C   UNL     1      -9.403   9.777  65.399  1.00  0.00    -0.311 A  
HETATM   11  C   UNL     1      -9.716  11.087  64.989  1.00  0.00    -0.303 A  
HETATM   12  C   UNL     1      -9.484  11.450  63.660  1.00  0.00    -0.213 A  
BRANCH   8  13
HETATM   13  O   UNL     1      -7.898   8.349  62.390  1.00  0.00    -0.126 OA 
HETATM   14  C   UNL     1      -8.358   7.006  62.446  1.00  0.00    -0.003 C  
ENDBRANCH   8  13
BRANCH  11  15
HETATM   15  C   UNL     1     -10.084  12.149  66.006  1.00  0.00    -0.259 C  
HETATM   16  C   UNL     1     -11.559  12.428  66.393  1.00  0.00    -0.442 C  
HETATM   17  C   UNL     1     -11.595  13.417  67.620  1.00  0.00    -0.377 C  
HETATM   18  C   UNL     1     -12.471  13.009  65.269  1.00  0.00    -0.555 C  
HETATM   19  C   UNL     1     -12.789  11.999  64.165  1.00  0.00    -0.283 C  
HETATM   20  C   UNL     1     -11.956  14.318  64.666  1.00  0.00    -0.468 C  
BRANCH  17  21
HETATM   21  C   UNL     1     -10.955  12.891  68.921  1.00  0.00    -0.228 C  
HETATM   22  N   UNL     1      -9.532  12.660  68.647  1.00  0.00    -0.404 NA 
HETATM   23  H1  UNL     1      -9.109  12.312  69.507  1.00  0.00     0.000 HD 
HETATM   24  H2  UNL     1      -9.059  13.483  68.275  1.00  0.00     0.000 HD 
BRANCH  21  25
HETATM   25  C   UNL     1     -11.658  11.608  69.505  1.00  0.00    -0.331 C  
HETATM   26  H   UNL     1     -13.198  10.433  69.076  1.00  0.00     0.000 HD 
HETATM   27  O   UNL     1     -12.774  11.206  68.724  1.00  0.00    -0.162 OA 
BRANCH  25  28
HETATM   28  C   UNL     1     -10.614  10.477  69.600  1.00  0.00    -0.281 C  
HETATM   29  C   UNL     1     -10.496   9.591  70.862  1.00  0.00    -0.382 C  
HETATM   30  C   UNL     1      -9.287   8.680  70.568  1.00  0.00    -0.175 C  
HETATM   31  C   UNL     1     -11.761   8.759  71.222  1.00  0.00    -0.356 C  
HETATM   32  C   UNL     1     -11.626   7.981  72.539  1.00  0.00    -0.464 C  
HETATM   33  O   UNL     1      -9.061   8.194  69.461  1.00  0.00    -0.150 OA 
HETATM   34  N   UNL     1      -8.467   8.431  71.646  1.00  0.00    -0.148 N  
HETATM   35  C   UNL     1     -12.217   7.827  70.094  1.00  0.00     0.556 C  
HETATM   36  H   UNL     1      -8.728   8.772  72.571  1.00  0.00     0.000 HD 
BRANCH  34  37
HETATM   37  C   UNL     1      -7.233   7.686  71.475  1.00  0.00    -0.063 C  
BRANCH  37  38
HETATM   38  C   UNL     1      -6.653   7.145  72.792  1.00  0.00    -0.063 C  
HETATM   39  C   UNL     1      -5.240   6.575  72.542  1.00  0.00    -0.032 C  
HETATM   40  C   UNL     1      -6.569   8.257  73.851  1.00  0.00    -0.145 C  
BRANCH  38  41
HETATM   41  C   UNL     1      -7.551   6.010  73.302  1.00  0.00    -0.097 C  
HETATM   42  N   UNL     1      -7.693   4.919  72.503  1.00  0.00    -0.091 N  
HETATM   43  O   UNL     1      -8.132   6.035  74.385  1.00  0.00    -0.108 OA 
HETATM   44  H2  UNL     1      -7.222   4.857  71.601  1.00  0.00     0.000 HD 
HETATM   45  H1  UNL     1      -8.290   4.165  72.841  1.00  0.00     0.000 HD 
ENDBRANCH  38  41
ENDBRANCH  37  38
ENDBRANCH  34  37
ENDBRANCH  25  28
ENDBRANCH  21  25
ENDBRANCH  17  21
ENDBRANCH  11  15
ENDBRANCH   6   7
ENDBRANCH   5   6
ENDBRANCH   4   5
ENDBRANCH   3   4
ENDBRANCH   2   3
TORSDOF 13
ENDMDL
MODEL      142
REMARK 921   NORMALIZED FREE ENERGY PREDICTED BY IDOCK:   -3.05 KCAL/MOL
REMARK 922        TOTAL FREE ENERGY PREDICTED BY IDOCK:   -7.67 KCAL/MOL
REMARK 923 INTER-LIGAND FREE ENERGY PREDICTED BY IDOCK:   -6.06 KCAL/MOL
REMARK 924 INTRA-LIGAND FREE ENERGY PREDICTED BY IDOCK:   -1.61 KCAL/MOL
REMARK 927      BINDING AFFINITY PREDICTED BY RF-SCORE:    0.00 PKD
ROOT
HETATM    1  C   UNL     1     -10.044   1.993  62.685  1.00  0.00    -0.097 C  
HETATM    2  O   UNL     1     -10.900   2.724  63.552  1.00  0.00    -0.236 OA 
ENDROOT
BRANCH   2   3
HETATM    3  C   UNL     1     -10.159   3.648  64.347  1.00  0.00    -0.203 C  
BRANCH   3   4
HETATM    4  C   UNL     1      -9.498   2.912  65.505  1.00  0.00    -0.018 C  
BRANCH   4   5
HETATM    5  C   UNL     1      -8.417   3.723  66.218  1.00  0.00    -0.110 C  
BRANCH   5   6
HETATM    6  O   UNL     1      -7.876   4.704  65.338  1.00  0.00    -0.088 OA 
BRANCH   6   7
HETATM    7  C   UNL     1      -8.245   6.022  65.462  1.00  0.00    -0.142 A  
HETATM    8  C   UNL     1      -8.250   6.760  64.258  1.00  0.00     0.036 A  
HETATM    9  C   UNL     1      -8.466   8.140  64.299  1.00  0.00     0.041 A  
HETATM   10  C   UNL     1      -8.452   6.675  66.683  1.00  0.00    -0.120 A  
HETATM   11  C   UNL     1      -8.586   8.075  66.729  1.00  0.00    -0.133 A  
HETATM   12  C   UNL     1      -8.610   8.789  65.528  1.00  0.00    -0.198 A  
BRANCH   8  13
HETATM   13  O   UNL     1      -8.023   6.043  63.108  1.00  0.00    -0.102 OA 
HETATM   14  C   UNL     1      -6.770   6.212  62.460  1.00  0.00    -0.037 C  
ENDBRANCH   8  13
BRANCH  11  15
HETATM   15  C   UNL     1      -8.482   8.820  68.045  1.00  0.00    -0.126 C  
HETATM   16  C   UNL     1      -8.847   8.145  69.392  1.00  0.00    -0.143 C  
HETATM   17  C   UNL     1      -8.424   9.093  70.579  1.00  0.00    -0.236 C  
HETATM   18  C   UNL     1     -10.344   7.755  69.587  1.00  0.00    -0.212 C  
HETATM   19  C   UNL     1     -10.785   6.586  68.704  1.00  0.00    -0.323 C  
HETATM   20  C   UNL     1     -11.315   8.929  69.447  1.00  0.00     0.265 C  
BRANCH  17  21
HETATM   21  C   UNL     1      -6.914   9.382  70.697  1.00  0.00    -0.115 C  
HETATM   22  N   UNL     1      -6.487   8.938  72.030  1.00  0.00    -0.195 NA 
HETATM   23  H1  UNL     1      -5.488   9.130  72.108  1.00  0.00     0.000 HD 
HETATM   24  H2  UNL     1      -6.722   7.965  72.220  1.00  0.00     0.000 HD 
BRANCH  21  25
HETATM   25  C   UNL     1      -6.527  10.885  70.425  1.00  0.00    -0.035 C  
HETATM   26  H   UNL     1      -4.904  12.026  70.435  1.00  0.00     0.000 HD 
HETATM   27  O   UNL     1      -5.137  11.120  70.598  1.00  0.00    -0.081 OA 
BRANCH  25  28
HETATM   28  C   UNL     1      -6.976  11.255  68.997  1.00  0.00    -0.104 C  
HETATM   29  C   UNL     1      -7.682  12.598  68.696  1.00  0.00    -0.066 C  
HETATM   30  C   UNL     1      -8.033  12.508  67.196  1.00  0.00    -0.140 C  
HETATM   31  C   UNL     1      -6.856  13.879  69.011  1.00  0.00    -0.111 C  
HETATM   32  C   UNL     1      -7.642  15.180  68.793  1.00  0.00    -0.136 C  
HETATM   33  O   UNL     1      -7.284  12.013  66.356  1.00  0.00     0.158 OA 
HETATM   34  N   UNL     1      -9.257  13.037  66.850  1.00  0.00    -0.231 N  
HETATM   35  C   UNL     1      -5.514  13.934  68.274  1.00  0.00    -0.111 C  
HETATM   36  H   UNL     1      -9.816  13.521  67.552  1.00  0.00     0.000 HD 
BRANCH  34  37
HETATM   37  C   UNL     1      -9.755  12.909  65.493  1.00  0.00    -0.062 C  
BRANCH  37  38
HETATM   38  C   UNL     1     -11.130  12.226  65.404  1.00  0.00    -0.353 C  
HETATM   39  C   UNL     1     -11.031  10.788  65.959  1.00  0.00    -0.010 C  
HETATM   40  C   UNL     1     -12.182  13.008  66.208  1.00  0.00    -0.390 C  
BRANCH  38  41
HETATM   41  C   UNL     1     -11.554  12.150  63.931  1.00  0.00    -0.448 C  
HETATM   42  N   UNL     1     -10.753  11.448  63.086  1.00  0.00    -0.748 N  
HETATM   43  O   UNL     1     -12.571  12.679  63.486  1.00  0.00    -0.696 OA 
HETATM   44  H2  UNL     1      -9.904  10.989  63.417  1.00  0.00     0.000 HD 
HETATM   45  H1  UNL     1     -11.034  11.397  62.107  1.00  0.00     0.000 HD 
ENDBRANCH  38  41
ENDBRANCH  37  38
ENDBRANCH  34  37
ENDBRANCH  25  28
ENDBRANCH  21  25
ENDBRANCH  17  21
ENDBRANCH  11  15
ENDBRANCH   6   7
ENDBRANCH   5   6
ENDBRANCH   4   5
ENDBRANCH   3   4
ENDBRANCH   2   3
TORSDOF 13
ENDMDL
MODEL      143
REMARK 921   NORMALIZED FREE ENERGY PREDICTED BY IDOCK:   -2.99 KCAL/MOL
REMARK 922        TOTAL FREE ENERGY PREDICTED BY IDOCK:   -7.57 KCAL/MOL
REMARK 923 INTER-LIGAND FREE ENERGY PREDICTED BY IDOCK:   -6.68 KCAL/MOL
REMARK 924 INTRA-LIGAND FREE ENERGY PREDICTED BY IDOCK:   -0.88 KCAL/MOL
REMARK 927      BINDING AFFINITY PREDICTED BY RF-SCORE:    0.00 PKD
ROOT
HETATM    1  C   UNL     1     -14.271  14.423  72.117  1.00  0.00    -0.538 C  
HETATM    2  O   UNL     1     -13.629  15.482  71.420  1.00  0.00    -0.501 OA 
ENDROOT
BRANCH   2   3
HETATM    3  C   UNL     1     -12.370  15.064  70.897  1.00  0.00    -0.334 C  
BRANCH   3   4
HETATM    4  C   UNL     1     -12.372  15.205  69.381  1.00  0.00    -0.165 C  
BRANCH   4   5
HETATM    5  C   UNL     1     -12.214  13.880  68.635  1.00  0.00    -0.178 C  
BRANCH   5   6
HETATM    6  O   UNL     1     -10.836  13.616  68.388  1.00  0.00    -0.241 OA 
BRANCH   6   7
HETATM    7  C   UNL     1     -10.453  12.963  67.242  1.00  0.00    -0.234 A  
HETATM    8  C   UNL     1     -10.437  13.756  66.074  1.00  0.00    -0.297 A  
HETATM    9  C   UNL     1     -10.206  13.152  64.835  1.00  0.00    -0.306 A  
HETATM   10  C   UNL     1     -10.240  11.582  67.151  1.00  0.00    -0.233 A  
HETATM   11  C   UNL     1     -10.090  10.964  65.895  1.00  0.00    -0.307 A  
HETATM   12  C   UNL     1     -10.056  11.765  64.750  1.00  0.00    -0.302 A  
BRANCH   8  13
HETATM   13  O   UNL     1     -10.671  15.098  66.252  1.00  0.00    -0.307 OA 
HETATM   14  C   UNL     1     -10.786  15.910  65.092  1.00  0.00    -0.429 C  
ENDBRANCH   8  13
BRANCH  11  15
HETATM   15  C   UNL     1     -10.188   9.458  65.756  1.00  0.00    -0.024 C  
HETATM   16  C   UNL     1      -8.932   8.552  65.821  1.00  0.00    -0.229 C  
HETATM   17  C   UNL     1      -9.383   7.042  65.869  1.00  0.00     0.067 C  
HETATM   18  C   UNL     1      -7.898   8.717  64.665  1.00  0.00    -0.127 C  
HETATM   19  C   UNL     1      -7.136  10.043  64.719  1.00  0.00    -0.137 C  
HETATM   20  C   UNL     1      -8.487   8.494  63.270  1.00  0.00    -0.051 C  
BRANCH  17  21
HETATM   21  C   UNL     1     -10.211   6.631  67.104  1.00  0.00    -0.213 C  
HETATM   22  N   UNL     1     -10.922   7.827  67.572  1.00  0.00    -0.526 NA 
HETATM   23  H1  UNL     1     -11.470   7.555  68.388  1.00  0.00     0.000 HD 
HETATM   24  H2  UNL     1     -11.485   8.267  66.843  1.00  0.00     0.000 HD 
BRANCH  21  25
HETATM   25  C   UNL     1      -9.360   5.966  68.251  1.00  0.00    -0.116 C  
HETATM   26  H   UNL     1      -8.425   4.252  68.603  1.00  0.00     0.000 HD 
HETATM   27  O   UNL     1      -8.937   4.653  67.911  1.00  0.00    -0.107 OA 
BRANCH  25  28
HETATM   28  C   UNL     1      -8.152   6.875  68.555  1.00  0.00    -0.120 C  
HETATM   29  C   UNL     1      -8.194   7.916  69.699  1.00  0.00    -0.122 C  
HETATM   30  C   UNL     1      -6.843   8.651  69.583  1.00  0.00    -0.046 C  
HETATM   31  C   UNL     1      -8.407   7.339  71.128  1.00  0.00    -0.112 C  
HETATM   32  C   UNL     1      -8.545   8.421  72.208  1.00  0.00    -0.263 C  
HETATM   33  O   UNL     1      -5.785   8.084  69.316  1.00  0.00    -0.032 OA 
HETATM   34  N   UNL     1      -6.895  10.008  69.813  1.00  0.00    -0.079 N  
HETATM   35  C   UNL     1      -7.346   6.310  71.533  1.00  0.00    -0.088 C  
HETATM   36  H   UNL     1      -7.768  10.437  70.121  1.00  0.00     0.000 HD 
BRANCH  34  37
HETATM   37  C   UNL     1      -5.716  10.833  69.620  1.00  0.00    -0.044 C  
BRANCH  37  38
HETATM   38  C   UNL     1      -6.034  12.256  69.133  1.00  0.00    -0.080 C  
HETATM   39  C   UNL     1      -7.510  12.591  69.436  1.00  0.00     0.422 C  
HETATM   40  C   UNL     1      -5.129  13.287  69.828  1.00  0.00    -0.082 C  
BRANCH  38  41
HETATM   41  C   UNL     1      -5.822  12.321  67.614  1.00  0.00    -0.118 C  
HETATM   42  N   UNL     1      -5.446  11.175  66.986  1.00  0.00    -0.062 N  
HETATM   43  O   UNL     1      -5.982  13.341  66.947  1.00  0.00    -0.023 OA 
HETATM   44  H2  UNL     1      -5.310  10.307  67.504  1.00  0.00     0.000 HD 
HETATM   45  H1  UNL     1      -5.305  11.218  65.977  1.00  0.00     0.000 HD 
ENDBRANCH  38  41
ENDBRANCH  37  38
ENDBRANCH  34  37
ENDBRANCH  25  28
ENDBRANCH  21  25
ENDBRANCH  17  21
ENDBRANCH  11  15
ENDBRANCH   6   7
ENDBRANCH   5   6
ENDBRANCH   4   5
ENDBRANCH   3   4
ENDBRANCH   2   3
TORSDOF 13
ENDMDL
MODEL      144
REMARK 921   NORMALIZED FREE ENERGY PREDICTED BY IDOCK:   -2.98 KCAL/MOL
REMARK 922        TOTAL FREE ENERGY PREDICTED BY IDOCK:   -7.56 KCAL/MOL
REMARK 923 INTER-LIGAND FREE ENERGY PREDICTED BY IDOCK:   -6.79 KCAL/MOL
REMARK 924 INTRA-LIGAND FREE ENERGY PREDICTED BY IDOCK:   -0.77 KCAL/MOL
REMARK 927      BINDING AFFINITY PREDICTED BY RF-SCORE:    0.00 PKD
ROOT
HETATM    1  C   UNL     1     -11.399  15.543  70.976  1.00  0.00    -0.376 C  
HETATM    2  O   UNL     1     -10.652  15.892  69.818  1.00  0.00    -0.274 OA 
ENDROOT
BRANCH   2   3
HETATM    3  C   UNL     1     -11.506  16.064  68.689  1.00  0.00    -0.377 C  
BRANCH   3   4
HETATM    4  C   UNL     1     -10.666  16.339  67.449  1.00  0.00    -0.287 C  
BRANCH   4   5
HETATM    5  C   UNL     1     -10.785  15.264  66.369  1.00  0.00    -0.318 C  
BRANCH   5   6
HETATM    6  O   UNL     1     -10.600  13.971  66.939  1.00  0.00    -0.277 OA 
BRANCH   6   7
HETATM    7  C   UNL     1     -10.090  12.947  66.178  1.00  0.00    -0.276 A  
HETATM    8  C   UNL     1     -10.994  12.375  65.257  1.00  0.00    -0.298 A  
HETATM    9  C   UNL     1     -10.619  11.233  64.544  1.00  0.00    -0.401 A  
HETATM   10  C   UNL     1      -8.830  12.369  66.372  1.00  0.00    -0.048 A  
HETATM   11  C   UNL     1      -8.486  11.172  65.715  1.00  0.00    -0.076 A  
HETATM   12  C   UNL     1      -9.383  10.629  64.791  1.00  0.00    -0.276 A  
BRANCH   8  13
HETATM   13  O   UNL     1     -12.214  12.997  65.141  1.00  0.00    -0.403 OA 
HETATM   14  C   UNL     1     -13.032  12.649  64.033  1.00  0.00    -0.036 C  
ENDBRANCH   8  13
BRANCH  11  15
HETATM   15  C   UNL     1      -7.280  10.367  66.155  1.00  0.00    -0.131 C  
HETATM   16  C   UNL     1      -7.255   9.612  67.509  1.00  0.00    -0.090 C  
HETATM   17  C   UNL     1      -5.971   8.700  67.571  1.00  0.00    -0.047 C  
HETATM   18  C   UNL     1      -7.292  10.495  68.794  1.00  0.00    -0.092 C  
HETATM   19  C   UNL     1      -8.643  11.178  69.021  1.00  0.00    -0.033 C  
HETATM   20  C   UNL     1      -6.155  11.515  68.878  1.00  0.00    -0.052 C  
BRANCH  17  21
HETATM   21  C   UNL     1      -5.894   7.581  66.513  1.00  0.00    -0.036 C  
HETATM   22  N   UNL     1      -5.525   8.209  65.239  1.00  0.00    -0.036 NA 
HETATM   23  H1  UNL     1      -5.474   7.469  64.539  1.00  0.00     0.000 HD 
HETATM   24  H2  UNL     1      -4.669   8.760  65.299  1.00  0.00     0.000 HD 
BRANCH  21  25
HETATM   25  C   UNL     1      -7.212   6.727  66.389  1.00  0.00    -0.072 C  
HETATM   26  H   UNL     1      -7.946   5.287  65.237  1.00  0.00     0.000 HD 
HETATM   27  O   UNL     1      -7.151   5.802  65.312  1.00  0.00    -0.062 OA 
BRANCH  25  28
HETATM   28  C   UNL     1      -7.454   6.001  67.728  1.00  0.00    -0.085 C  
HETATM   29  C   UNL     1      -8.704   6.294  68.590  1.00  0.00    -0.120 C  
HETATM   30  C   UNL     1      -8.494   5.439  69.856  1.00  0.00    -0.103 C  
HETATM   31  C   UNL     1     -10.074   5.986  67.917  1.00  0.00    -0.183 C  
HETATM   32  C   UNL     1     -11.280   6.393  68.775  1.00  0.00    -0.358 C  
HETATM   33  O   UNL     1      -8.023   4.303  69.834  1.00  0.00    -0.056 OA 
HETATM   34  N   UNL     1      -8.883   6.035  71.035  1.00  0.00    -0.138 N  
HETATM   35  C   UNL     1     -10.211   4.531  67.455  1.00  0.00    -0.023 C  
HETATM   36  H   UNL     1      -9.353   6.940  71.014  1.00  0.00     0.000 HD 
BRANCH  34  37
HETATM   37  C   UNL     1      -8.630   5.384  72.308  1.00  0.00    -0.126 C  
BRANCH  37  38
HETATM   38  C   UNL     1      -7.728   6.201  73.248  1.00  0.00    -0.100 C  
HETATM   39  C   UNL     1      -7.448   5.391  74.532  1.00  0.00    -0.081 C  
HETATM   40  C   UNL     1      -6.393   6.542  72.565  1.00  0.00    -0.058 C  
BRANCH  38  41
HETATM   41  C   UNL     1      -8.457   7.494  73.637  1.00  0.00    -0.185 C  
HETATM   42  N   UNL     1      -9.498   7.387  74.506  1.00  0.00    -0.388 N  
HETATM   43  O   UNL     1      -8.145   8.605  73.215  1.00  0.00    -0.408 OA 
HETATM   44  H2  UNL     1      -9.782   6.483  74.884  1.00  0.00     0.000 HD 
HETATM   45  H1  UNL     1      -9.982   8.246  74.765  1.00  0.00     0.000 HD 
ENDBRANCH  38  41
ENDBRANCH  37  38
ENDBRANCH  34  37
ENDBRANCH  25  28
ENDBRANCH  21  25
ENDBRANCH  17  21
ENDBRANCH  11  15
ENDBRANCH   6   7
ENDBRANCH   5   6
ENDBRANCH   4   5
ENDBRANCH   3   4
ENDBRANCH   2   3
TORSDOF 13
ENDMDL
MODEL      145
REMARK 921   NORMALIZED FREE ENERGY PREDICTED BY IDOCK:   -2.97 KCAL/MOL
REMARK 922        TOTAL FREE ENERGY PREDICTED BY IDOCK:   -7.54 KCAL/MOL
REMARK 923 INTER-LIGAND FREE ENERGY PREDICTED BY IDOCK:   -7.42 KCAL/MOL
REMARK 924 INTRA-LIGAND FREE ENERGY PREDICTED BY IDOCK:   -0.12 KCAL/MOL
REMARK 927      BINDING AFFINITY PREDICTED BY RF-SCORE:    0.00 PKD
ROOT
HETATM    1  C   UNL     1      -5.381   3.547  67.845  1.00  0.00    -0.013 C  
HETATM    2  O   UNL     1      -6.483   4.294  67.349  1.00  0.00    -0.039 OA 
ENDROOT
BRANCH   2   3
HETATM    3  C   UNL     1      -7.255   4.842  68.416  1.00  0.00    -0.062 C  
BRANCH   3   4
HETATM    4  C   UNL     1      -8.728   4.848  68.032  1.00  0.00    -0.107 C  
BRANCH   4   5
HETATM    5  C   UNL     1      -9.342   6.245  67.951  1.00  0.00    -0.114 C  
BRANCH   5   6
HETATM    6  O   UNL     1      -9.123   6.951  69.168  1.00  0.00    -0.137 OA 
BRANCH   6   7
HETATM    7  C   UNL     1      -9.528   8.258  69.292  1.00  0.00    -0.155 A  
HETATM    8  C   UNL     1     -10.499   8.495  70.289  1.00  0.00    -0.220 A  
HETATM    9  C   UNL     1     -11.083   9.760  70.393  1.00  0.00    -0.367 A  
HETATM   10  C   UNL     1      -9.159   9.287  68.417  1.00  0.00    -0.128 A  
HETATM   11  C   UNL     1      -9.808  10.536  68.470  1.00  0.00    -0.175 A  
HETATM   12  C   UNL     1     -10.752  10.761  69.476  1.00  0.00    -0.268 A  
BRANCH   8  13
HETATM   13  O   UNL     1     -10.813   7.426  71.093  1.00  0.00    -0.238 OA 
HETATM   14  C   UNL     1     -12.186   7.175  71.354  1.00  0.00    -0.362 C  
ENDBRANCH   8  13
BRANCH  11  15
HETATM   15  C   UNL     1      -9.660  11.534  67.340  1.00  0.00    -0.177 C  
HETATM   16  C   UNL     1      -8.618  11.333  66.209  1.00  0.00    -0.172 C  
HETATM   17  C   UNL     1      -8.862  12.408  65.082  1.00  0.00     0.992 C  
HETATM   18  C   UNL     1      -7.118  11.397  66.631  1.00  0.00    -0.103 C  
HETATM   19  C   UNL     1      -6.673  10.196  67.467  1.00  0.00    -0.072 C  
HETATM   20  C   UNL     1      -6.722  12.706  67.318  1.00  0.00    -0.105 C  
BRANCH  17  21
HETATM   21  C   UNL     1     -10.223  12.325  64.362  1.00  0.00    -0.314 C  
HETATM   22  N   UNL     1      -9.956  11.984  62.960  1.00  0.00    -0.529 NA 
HETATM   23  H1  UNL     1     -10.856  11.929  62.483  1.00  0.00     0.000 HD 
HETATM   24  H2  UNL     1      -9.397  11.138  62.854  1.00  0.00     0.000 HD 
BRANCH  21  25
HETATM   25  C   UNL     1     -11.098  13.629  64.495  1.00  0.00    -0.386 C  
HETATM   26  H   UNL     1     -12.719  14.237  65.463  1.00  0.00     0.000 HD 
HETATM   27  O   UNL     1     -12.191  13.451  65.383  1.00  0.00    -0.397 OA 
BRANCH  25  28
HETATM   28  C   UNL     1     -10.188  14.783  64.962  1.00  0.00    -0.379 C  
HETATM   29  C   UNL     1     -10.694  15.859  65.952  1.00  0.00    -0.303 C  
HETATM   30  C   UNL     1      -9.516  16.849  66.062  1.00  0.00    -0.195 C  
HETATM   31  C   UNL     1     -11.130  15.336  67.351  1.00  0.00    -0.326 C  
HETATM   32  C   UNL     1     -11.721  16.429  68.253  1.00  0.00     0.106 C  
HETATM   33  O   UNL     1      -8.338  16.496  66.097  1.00  0.00    -0.316 OA 
HETATM   34  N   UNL     1      -9.873  18.177  66.130  1.00  0.00    -0.291 N  
HETATM   35  C   UNL     1     -10.023  14.574  68.088  1.00  0.00    -0.220 C  
HETATM   36  H   UNL     1     -10.858  18.434  66.190  1.00  0.00     0.000 HD 
BRANCH  34  37
HETATM   37  C   UNL     1      -8.857  19.214  66.118  1.00  0.00    -0.212 C  
BRANCH  37  38
HETATM   38  C   UNL     1      -8.460  19.703  67.520  1.00  0.00    -0.346 C  
HETATM   39  C   UNL     1      -7.340  20.760  67.403  1.00  0.00    -0.390 C  
HETATM   40  C   UNL     1      -9.666  20.322  68.246  1.00  0.00    -0.292 C  
BRANCH  38  41
HETATM   41  C   UNL     1      -7.923  18.514  68.329  1.00  0.00    -0.305 C  
HETATM   42  N   UNL     1      -8.834  17.724  68.957  1.00  0.00    -0.093 N  
HETATM   43  O   UNL     1      -6.728  18.240  68.427  1.00  0.00    -0.213 OA 
HETATM   44  H2  UNL     1      -9.834  17.913  68.894  1.00  0.00     0.000 HD 
HETATM   45  H1  UNL     1      -8.477  16.934  69.494  1.00  0.00     0.000 HD 
ENDBRANCH  38  41
ENDBRANCH  37  38
ENDBRANCH  34  37
ENDBRANCH  25  28
ENDBRANCH  21  25
ENDBRANCH  17  21
ENDBRANCH  11  15
ENDBRANCH   6   7
ENDBRANCH   5   6
ENDBRANCH   4   5
ENDBRANCH   3   4
ENDBRANCH   2   3
TORSDOF 13
ENDMDL
MODEL      146
REMARK 921   NORMALIZED FREE ENERGY PREDICTED BY IDOCK:   -2.93 KCAL/MOL
REMARK 922        TOTAL FREE ENERGY PREDICTED BY IDOCK:   -7.46 KCAL/MOL
REMARK 923 INTER-LIGAND FREE ENERGY PREDICTED BY IDOCK:   -5.47 KCAL/MOL
REMARK 924 INTRA-LIGAND FREE ENERGY PREDICTED BY IDOCK:   -1.99 KCAL/MOL
REMARK 927      BINDING AFFINITY PREDICTED BY RF-SCORE:    0.00 PKD
ROOT
HETATM    1  C   UNL     1     -10.831   4.786  72.255  1.00  0.00    -0.061 C  
HETATM    2  O   UNL     1      -9.492   5.255  72.326  1.00  0.00    -0.141 OA 
ENDROOT
BRANCH   2   3
HETATM    3  C   UNL     1      -8.712   4.451  73.210  1.00  0.00    -0.100 C  
BRANCH   3   4
HETATM    4  C   UNL     1      -7.877   5.348  74.114  1.00  0.00    -0.099 C  
BRANCH   4   5
HETATM    5  C   UNL     1      -7.230   6.528  73.390  1.00  0.00    -0.081 C  
BRANCH   5   6
HETATM    6  O   UNL     1      -6.175   6.072  72.549  1.00  0.00    -0.050 OA 
BRANCH   6   7
HETATM    7  C   UNL     1      -6.119   6.468  71.234  1.00  0.00    -0.040 A  
HETATM    8  C   UNL     1      -5.621   7.771  71.020  1.00  0.00    -0.030 A  
HETATM    9  C   UNL     1      -5.663   8.322  69.736  1.00  0.00    -0.026 A  
HETATM   10  C   UNL     1      -6.652   5.739  70.165  1.00  0.00    -0.047 A  
HETATM   11  C   UNL     1      -6.769   6.325  68.890  1.00  0.00    -0.060 A  
HETATM   12  C   UNL     1      -6.253   7.608  68.689  1.00  0.00    -0.035 A  
BRANCH   8  13
HETATM   13  O   UNL     1      -5.132   8.421  72.128  1.00  0.00    -0.034 OA 
HETATM   14  C   UNL     1      -5.952   9.414  72.728  1.00  0.00     0.225 C  
ENDBRANCH   8  13
BRANCH  11  15
HETATM   15  C   UNL     1      -7.629   5.684  67.819  1.00  0.00    -0.089 C  
HETATM   16  C   UNL     1      -8.937   6.348  67.320  1.00  0.00    -0.107 C  
HETATM   17  C   UNL     1      -9.474   5.560  66.065  1.00  0.00    -0.147 C  
HETATM   18  C   UNL     1     -10.095   6.463  68.359  1.00  0.00    -0.173 C  
HETATM   19  C   UNL     1      -9.816   7.481  69.466  1.00  0.00    -0.169 C  
HETATM   20  C   UNL     1     -10.526   5.123  68.958  1.00  0.00    -0.149 C  
BRANCH  17  21
HETATM   21  C   UNL     1      -8.552   5.564  64.829  1.00  0.00    -0.091 C  
HETATM   22  N   UNL     1      -7.920   4.241  64.750  1.00  0.00    -0.089 NA 
HETATM   23  H1  UNL     1      -7.310   4.244  63.933  1.00  0.00     0.000 HD 
HETATM   24  H2  UNL     1      -8.595   3.476  64.742  1.00  0.00     0.000 HD 
BRANCH  21  25
HETATM   25  C   UNL     1      -7.489   6.726  64.828  1.00  0.00    -0.096 C  
HETATM   26  H   UNL     1      -5.821   7.212  63.869  1.00  0.00     0.000 HD 
HETATM   27  O   UNL     1      -6.463   6.512  63.869  1.00  0.00    -0.032 OA 
BRANCH  25  28
HETATM   28  C   UNL     1      -8.220   8.059  64.567  1.00  0.00    -0.097 C  
HETATM   29  C   UNL     1      -7.869   9.340  65.360  1.00  0.00    -0.100 C  
HETATM   30  C   UNL     1      -8.888  10.382  64.855  1.00  0.00    -0.190 C  
HETATM   31  C   UNL     1      -6.408   9.851  65.204  1.00  0.00    -0.102 C  
HETATM   32  C   UNL     1      -6.086  11.060  66.093  1.00  0.00    -0.119 C  
HETATM   33  O   UNL     1      -9.237  10.471  63.679  1.00  0.00    -0.221 OA 
HETATM   34  N   UNL     1      -9.384  11.229  65.821  1.00  0.00    -0.219 N  
HETATM   35  C   UNL     1      -6.015  10.135  63.750  1.00  0.00    -0.140 C  
HETATM   36  H   UNL     1      -9.010  11.192  66.769  1.00  0.00     0.000 HD 
BRANCH  34  37
HETATM   37  C   UNL     1     -10.436  12.177  65.498  1.00  0.00    -0.265 C  
BRANCH  37  38
HETATM   38  C   UNL     1     -10.957  12.957  66.717  1.00  0.00    -0.300 C  
HETATM   39  C   UNL     1      -9.879  13.956  67.192  1.00  0.00    -0.241 C  
HETATM   40  C   UNL     1     -12.241  13.727  66.366  1.00  0.00    -0.480 C  
BRANCH  38  41
HETATM   41  C   UNL     1     -11.240  11.968  67.857  1.00  0.00    -0.264 C  
HETATM   42  N   UNL     1     -10.469  12.065  68.973  1.00  0.00    -0.405 N  
HETATM   43  O   UNL     1     -12.121  11.113  67.814  1.00  0.00    -0.606 OA 
HETATM   44  H2  UNL     1      -9.732  12.766  69.050  1.00  0.00     0.000 HD 
HETATM   45  H1  UNL     1     -10.656  11.409  69.730  1.00  0.00     0.000 HD 
ENDBRANCH  38  41
ENDBRANCH  37  38
ENDBRANCH  34  37
ENDBRANCH  25  28
ENDBRANCH  21  25
ENDBRANCH  17  21
ENDBRANCH  11  15
ENDBRANCH   6   7
ENDBRANCH   5   6
ENDBRANCH   4   5
ENDBRANCH   3   4
ENDBRANCH   2   3
TORSDOF 13
ENDMDL
MODEL      147
REMARK 921   NORMALIZED FREE ENERGY PREDICTED BY IDOCK:   -2.92 KCAL/MOL
REMARK 922        TOTAL FREE ENERGY PREDICTED BY IDOCK:   -7.45 KCAL/MOL
REMARK 923 INTER-LIGAND FREE ENERGY PREDICTED BY IDOCK:   -7.42 KCAL/MOL
REMARK 924 INTRA-LIGAND FREE ENERGY PREDICTED BY IDOCK:   -0.03 KCAL/MOL
REMARK 927      BINDING AFFINITY PREDICTED BY RF-SCORE:    0.00 PKD
ROOT
HETATM    1  C   UNL     1     -10.151   4.632  66.848  1.00  0.00    -0.191 C  
HETATM    2  O   UNL     1      -8.905   3.959  66.730  1.00  0.00    -0.114 OA 
ENDROOT
BRANCH   2   3
HETATM    3  C   UNL     1      -7.816   4.845  66.987  1.00  0.00    -0.095 C  
BRANCH   3   4
HETATM    4  C   UNL     1      -7.617   5.771  65.795  1.00  0.00    -0.090 C  
BRANCH   4   5
HETATM    5  C   UNL     1      -8.116   7.197  66.029  1.00  0.00    -0.115 C  
BRANCH   5   6
HETATM    6  O   UNL     1      -7.737   8.036  64.942  1.00  0.00    -0.102 OA 
BRANCH   6   7
HETATM    7  C   UNL     1      -8.544   9.079  64.560  1.00  0.00    -0.156 A  
HETATM    8  C   UNL     1      -8.683   9.253  63.166  1.00  0.00    -0.183 A  
HETATM    9  C   UNL     1      -9.360  10.373  62.676  1.00  0.00    -0.335 A  
HETATM   10  C   UNL     1      -9.082  10.027  65.439  1.00  0.00    -0.235 A  
HETATM   11  C   UNL     1      -9.691  11.196  64.943  1.00  0.00    -0.297 A  
HETATM   12  C   UNL     1      -9.839  11.343  63.561  1.00  0.00    -0.404 A  
BRANCH   8  13
HETATM   13  O   UNL     1      -8.111   8.285  62.376  1.00  0.00    -0.154 OA 
HETATM   14  C   UNL     1      -6.693   8.195  62.361  1.00  0.00    -0.087 C  
ENDBRANCH   8  13
BRANCH  11  15
HETATM   15  C   UNL     1      -9.978  12.367  65.859  1.00  0.00    -0.271 C  
HETATM   16  C   UNL     1     -11.423  12.729  66.289  1.00  0.00    -0.405 C  
HETATM   17  C   UNL     1     -11.370  13.840  67.405  1.00  0.00    -0.348 C  
HETATM   18  C   UNL     1     -12.380  13.217  65.157  1.00  0.00    -0.516 C  
HETATM   19  C   UNL     1     -12.780  12.108  64.183  1.00  0.00    -0.416 C  
HETATM   20  C   UNL     1     -11.866  14.441  64.395  1.00  0.00    -0.433 C  
BRANCH  17  21
HETATM   21  C   UNL     1     -10.676  13.433  68.721  1.00  0.00    -0.232 C  
HETATM   22  N   UNL     1      -9.456  12.699  68.362  1.00  0.00    -0.325 NA 
HETATM   23  H1  UNL     1      -8.997  12.430  69.232  1.00  0.00     0.000 HD 
HETATM   24  H2  UNL     1      -8.846  13.222  67.735  1.00  0.00     0.000 HD 
BRANCH  21  25
HETATM   25  C   UNL     1     -11.594  12.608  69.700  1.00  0.00    -0.251 C  
HETATM   26  H   UNL     1     -13.524  12.238  69.968  1.00  0.00     0.000 HD 
HETATM   27  O   UNL     1     -12.971  12.736  69.377  1.00  0.00     0.834 OA 
BRANCH  25  28
HETATM   28  C   UNL     1     -11.151  11.131  69.658  1.00  0.00    -0.297 C  
HETATM   29  C   UNL     1     -11.346  10.195  70.874  1.00  0.00    -0.420 C  
HETATM   30  C   UNL     1     -10.687   8.871  70.436  1.00  0.00    -0.227 C  
HETATM   31  C   UNL     1     -12.819   9.976  71.326  1.00  0.00    -0.500 C  
HETATM   32  C   UNL     1     -12.947   9.126  72.597  1.00  0.00    -0.320 C  
HETATM   33  O   UNL     1     -10.778   8.415  69.297  1.00  0.00    -0.209 OA 
HETATM   34  N   UNL     1      -9.986   8.214  71.422  1.00  0.00    -0.174 N  
HETATM   35  C   UNL     1     -13.719   9.419  70.217  1.00  0.00     1.006 C  
HETATM   36  H   UNL     1     -10.003   8.568  72.378  1.00  0.00     0.000 HD 
BRANCH  34  37
HETATM   37  C   UNL     1      -9.223   7.019  71.110  1.00  0.00    -0.157 C  
BRANCH  37  38
HETATM   38  C   UNL     1      -9.951   5.712  71.468  1.00  0.00    -0.230 C  
HETATM   39  C   UNL     1     -11.450   6.001  71.699  1.00  0.00    -0.293 C  
HETATM   40  C   UNL     1      -9.803   4.677  70.341  1.00  0.00    -0.306 C  
BRANCH  38  41
HETATM   41  C   UNL     1      -9.357   5.152  72.768  1.00  0.00    -0.135 C  
HETATM   42  N   UNL     1      -8.198   5.707  73.215  1.00  0.00    -0.117 N  
HETATM   43  O   UNL     1      -9.874   4.247  73.418  1.00  0.00    -0.122 OA 
HETATM   44  H2  UNL     1      -7.742   6.465  72.707  1.00  0.00     0.000 HD 
HETATM   45  H1  UNL     1      -7.803   5.335  74.078  1.00  0.00     0.000 HD 
ENDBRANCH  38  41
ENDBRANCH  37  38
ENDBRANCH  34  37
ENDBRANCH  25  28
ENDBRANCH  21  25
ENDBRANCH  17  21
ENDBRANCH  11  15
ENDBRANCH   6   7
ENDBRANCH   5   6
ENDBRANCH   4   5
ENDBRANCH   3   4
ENDBRANCH   2   3
TORSDOF 13
ENDMDL
MODEL      148
REMARK 921   NORMALIZED FREE ENERGY PREDICTED BY IDOCK:   -2.90 KCAL/MOL
REMARK 922        TOTAL FREE ENERGY PREDICTED BY IDOCK:   -7.42 KCAL/MOL
REMARK 923 INTER-LIGAND FREE ENERGY PREDICTED BY IDOCK:   -8.29 KCAL/MOL
REMARK 924 INTRA-LIGAND FREE ENERGY PREDICTED BY IDOCK:    0.87 KCAL/MOL
REMARK 927      BINDING AFFINITY PREDICTED BY RF-SCORE:    0.00 PKD
ROOT
HETATM    1  C   UNL     1      -7.463   5.125  66.519  1.00  0.00    -0.087 C  
HETATM    2  O   UNL     1      -8.382   6.203  66.636  1.00  0.00    -0.109 OA 
ENDROOT
BRANCH   2   3
HETATM    3  C   UNL     1      -8.827   6.356  67.982  1.00  0.00    -0.113 C  
BRANCH   3   4
HETATM    4  C   UNL     1     -10.193   7.030  67.997  1.00  0.00    -0.217 C  
BRANCH   4   5
HETATM    5  C   UNL     1     -10.603   7.628  66.652  1.00  0.00    -0.022 C  
BRANCH   5   6
HETATM    6  O   UNL     1      -9.756   8.724  66.321  1.00  0.00    -0.247 OA 
BRANCH   6   7
HETATM    7  C   UNL     1     -10.249  10.006  66.330  1.00  0.00    -0.221 A  
HETATM    8  C   UNL     1     -10.039  10.740  65.143  1.00  0.00    -0.299 A  
HETATM    9  C   UNL     1     -10.369  12.097  65.105  1.00  0.00    -0.311 A  
HETATM   10  C   UNL     1     -10.784  10.641  67.458  1.00  0.00    -0.321 A  
HETATM   11  C   UNL     1     -11.039  12.025  67.444  1.00  0.00    -0.337 A  
HETATM   12  C   UNL     1     -10.845  12.733  66.255  1.00  0.00    -0.299 A  
BRANCH   8  13
HETATM   13  O   UNL     1      -9.495  10.043  64.090  1.00  0.00    -0.277 OA 
HETATM   14  C   UNL     1      -9.576  10.627  62.798  1.00  0.00    -0.301 C  
ENDBRANCH   8  13
BRANCH  11  15
HETATM   15  C   UNL     1     -11.300  12.777  68.733  1.00  0.00    -0.332 C  
HETATM   16  C   UNL     1     -11.672  14.283  68.736  1.00  0.00    -0.378 C  
HETATM   17  C   UNL     1     -12.095  14.710  70.193  1.00  0.00    -0.385 C  
HETATM   18  C   UNL     1     -10.570  15.268  68.237  1.00  0.00    -0.244 C  
HETATM   19  C   UNL     1     -10.311  15.174  66.732  1.00  0.00    -0.273 C  
HETATM   20  C   UNL     1      -9.255  15.174  69.014  1.00  0.00    -0.221 C  
BRANCH  17  21
HETATM   21  C   UNL     1     -13.348  14.011  70.757  1.00  0.00    -0.027 C  
HETATM   22  N   UNL     1     -14.293  15.061  71.155  1.00  0.00    -0.692 NA 
HETATM   23  H1  UNL     1     -15.122  14.599  71.529  1.00  0.00     0.000 HD 
HETATM   24  H2  UNL     1     -14.506  15.713  70.401  1.00  0.00     0.000 HD 
BRANCH  21  25
HETATM   25  C   UNL     1     -13.046  13.012  71.937  1.00  0.00    -0.384 C  
HETATM   26  H   UNL     1     -14.051  11.950  73.278  1.00  0.00     0.000 HD 
HETATM   27  O   UNL     1     -14.233  12.552  72.566  1.00  0.00    -0.194 OA 
BRANCH  25  28
HETATM   28  C   UNL     1     -12.223  11.832  71.381  1.00  0.00     0.032 C  
HETATM   29  C   UNL     1     -12.237  10.445  72.065  1.00  0.00     0.157 C  
HETATM   30  C   UNL     1     -11.221   9.616  71.251  1.00  0.00    -0.376 C  
HETATM   31  C   UNL     1     -13.623   9.740  72.131  1.00  0.00    -0.432 C  
HETATM   32  C   UNL     1     -13.598   8.418  72.912  1.00  0.00     0.150 C  
HETATM   33  O   UNL     1     -11.115   9.690  70.028  1.00  0.00    -0.240 OA 
HETATM   34  N   UNL     1     -10.434   8.765  71.994  1.00  0.00    -0.346 N  
HETATM   35  C   UNL     1     -14.269   9.538  70.756  1.00  0.00     0.500 C  
HETATM   36  H   UNL     1     -10.605   8.658  72.993  1.00  0.00     0.000 HD 
BRANCH  34  37
HETATM   37  C   UNL     1      -9.360   8.018  71.363  1.00  0.00    -0.144 C  
BRANCH  37  38
HETATM   38  C   UNL     1      -8.523   7.190  72.352  1.00  0.00    -0.124 C  
HETATM   39  C   UNL     1      -8.981   5.716  72.310  1.00  0.00    -0.141 C  
HETATM   40  C   UNL     1      -7.028   7.266  72.000  1.00  0.00    -0.063 C  
BRANCH  38  41
HETATM   41  C   UNL     1      -8.751   7.730  73.771  1.00  0.00    -0.262 C  
HETATM   42  N   UNL     1      -9.801   7.223  74.471  1.00  0.00    -0.361 N  
HETATM   43  O   UNL     1      -8.036   8.578  74.299  1.00  0.00    -0.348 OA 
HETATM   44  H2  UNL     1     -10.413   6.513  74.069  1.00  0.00     0.000 HD 
HETATM   45  H1  UNL     1      -9.953   7.582  75.413  1.00  0.00     0.000 HD 
ENDBRANCH  38  41
ENDBRANCH  37  38
ENDBRANCH  34  37
ENDBRANCH  25  28
ENDBRANCH  21  25
ENDBRANCH  17  21
ENDBRANCH  11  15
ENDBRANCH   6   7
ENDBRANCH   5   6
ENDBRANCH   4   5
ENDBRANCH   3   4
ENDBRANCH   2   3
TORSDOF 13
ENDMDL
MODEL      149
REMARK 921   NORMALIZED FREE ENERGY PREDICTED BY IDOCK:   -2.86 KCAL/MOL
REMARK 922        TOTAL FREE ENERGY PREDICTED BY IDOCK:   -7.34 KCAL/MOL
REMARK 923 INTER-LIGAND FREE ENERGY PREDICTED BY IDOCK:   -7.11 KCAL/MOL
REMARK 924 INTRA-LIGAND FREE ENERGY PREDICTED BY IDOCK:   -0.23 KCAL/MOL
REMARK 927      BINDING AFFINITY PREDICTED BY RF-SCORE:    0.00 PKD
ROOT
HETATM    1  C   UNL     1     -12.099  15.241  73.188  1.00  0.00    -0.426 C  
HETATM    2  O   UNL     1     -11.073  15.476  72.234  1.00  0.00    -0.272 OA 
ENDROOT
BRANCH   2   3
HETATM    3  C   UNL     1     -11.622  15.765  70.949  1.00  0.00    -0.405 C  
BRANCH   3   4
HETATM    4  C   UNL     1     -11.254  14.656  69.973  1.00  0.00    -0.252 C  
BRANCH   4   5
HETATM    5  C   UNL     1     -12.452  13.852  69.468  1.00  0.00    -0.095 C  
BRANCH   5   6
HETATM    6  O   UNL     1     -12.011  12.776  68.645  1.00  0.00    -0.308 OA 
BRANCH   6   7
HETATM    7  C   UNL     1     -11.422  11.671  69.208  1.00  0.00    -0.300 A  
HETATM    8  C   UNL     1     -12.025  11.209  70.398  1.00  0.00    -0.378 A  
HETATM    9  C   UNL     1     -11.414  10.185  71.127  1.00  0.00    -0.387 A  
HETATM   10  C   UNL     1     -10.220  11.104  68.769  1.00  0.00    -0.219 A  
HETATM   11  C   UNL     1      -9.564  10.130  69.547  1.00  0.00    -0.243 A  
HETATM   12  C   UNL     1     -10.184   9.669  70.711  1.00  0.00    -0.330 A  
BRANCH   8  13
HETATM   13  O   UNL     1     -13.194  11.832  70.765  1.00  0.00     0.081 OA 
HETATM   14  C   UNL     1     -13.505  11.895  72.150  1.00  0.00    -0.195 C  
ENDBRANCH   8  13
BRANCH  11  15
HETATM   15  C   UNL     1      -8.125   9.751  69.260  1.00  0.00    -0.115 C  
HETATM   16  C   UNL     1      -7.627   9.484  67.816  1.00  0.00    -0.087 C  
HETATM   17  C   UNL     1      -6.057   9.336  67.828  1.00  0.00    -0.053 C  
HETATM   18  C   UNL     1      -8.231   8.241  67.094  1.00  0.00    -0.119 C  
HETATM   19  C   UNL     1      -9.704   8.414  66.721  1.00  0.00    -0.309 C  
HETATM   20  C   UNL     1      -8.019   6.924  67.845  1.00  0.00    -0.114 C  
BRANCH  17  21
HETATM   21  C   UNL     1      -5.271  10.585  68.274  1.00  0.00    -0.034 C  
HETATM   22  N   UNL     1      -5.873  11.056  69.528  1.00  0.00    -0.046 NA 
HETATM   23  H1  UNL     1      -5.353  11.882  69.824  1.00  0.00     0.000 HD 
HETATM   24  H2  UNL     1      -5.914  10.333  70.247  1.00  0.00     0.000 HD 
BRANCH  21  25
HETATM   25  C   UNL     1      -5.209  11.724  67.187  1.00  0.00    -0.109 C  
HETATM   26  H   UNL     1      -6.253  12.334  65.614  1.00  0.00     0.000 HD 
HETATM   27  O   UNL     1      -6.291  11.647  66.270  1.00  0.00    -0.011 OA 
BRANCH  25  28
HETATM   28  C   UNL     1      -5.190  13.088  67.907  1.00  0.00    -0.109 C  
HETATM   29  C   UNL     1      -6.106  14.250  67.458  1.00  0.00     0.048 C  
HETATM   30  C   UNL     1      -5.695  15.424  68.371  1.00  0.00    -0.105 C  
HETATM   31  C   UNL     1      -7.636  13.974  67.540  1.00  0.00    -0.195 C  
HETATM   32  C   UNL     1      -8.493  15.119  66.984  1.00  0.00    -0.259 C  
HETATM   33  O   UNL     1      -5.424  15.290  69.563  1.00  0.00    -0.094 OA 
HETATM   34  N   UNL     1      -5.662  16.657  67.757  1.00  0.00    -0.126 N  
HETATM   35  C   UNL     1      -8.108  13.584  68.945  1.00  0.00     0.121 C  
HETATM   36  H   UNL     1      -5.979  16.752  66.793  1.00  0.00     0.000 HD 
BRANCH  34  37
HETATM   37  C   UNL     1      -5.178  17.822  68.475  1.00  0.00    -0.148 C  
BRANCH  37  38
HETATM   38  C   UNL     1      -5.930  19.117  68.125  1.00  0.00    -0.229 C  
HETATM   39  C   UNL     1      -6.026  20.015  69.377  1.00  0.00    -0.336 C  
HETATM   40  C   UNL     1      -5.207  19.884  67.006  1.00  0.00    -0.159 C  
BRANCH  38  41
HETATM   41  C   UNL     1      -7.353  18.759  67.673  1.00  0.00    -0.224 C  
HETATM   42  N   UNL     1      -8.300  18.627  68.639  1.00  0.00    -0.330 N  
HETATM   43  O   UNL     1      -7.673  18.596  66.498  1.00  0.00    -0.239 OA 
HETATM   44  H2  UNL     1      -8.075  18.761  69.625  1.00  0.00     0.000 HD 
HETATM   45  H1  UNL     1      -9.245  18.389  68.339  1.00  0.00     0.000 HD 
ENDBRANCH  38  41
ENDBRANCH  37  38
ENDBRANCH  34  37
ENDBRANCH  25  28
ENDBRANCH  21  25
ENDBRANCH  17  21
ENDBRANCH  11  15
ENDBRANCH   6   7
ENDBRANCH   5   6
ENDBRANCH   4   5
ENDBRANCH   3   4
ENDBRANCH   2   3
TORSDOF 13
ENDMDL
MODEL      150
REMARK 921   NORMALIZED FREE ENERGY PREDICTED BY IDOCK:   -2.83 KCAL/MOL
REMARK 922        TOTAL FREE ENERGY PREDICTED BY IDOCK:   -7.28 KCAL/MOL
REMARK 923 INTER-LIGAND FREE ENERGY PREDICTED BY IDOCK:   -7.32 KCAL/MOL
REMARK 924 INTRA-LIGAND FREE ENERGY PREDICTED BY IDOCK:    0.03 KCAL/MOL
REMARK 927      BINDING AFFINITY PREDICTED BY RF-SCORE:    0.00 PKD
ROOT
HETATM    1  C   UNL     1     -10.490   6.621  73.670  1.00  0.00    -0.330 C  
HETATM    2  O   UNL     1     -11.104   6.022  72.538  1.00  0.00    -0.249 OA 
ENDROOT
BRANCH   2   3
HETATM    3  C   UNL     1     -10.186   5.918  71.451  1.00  0.00    -0.211 C  
BRANCH   3   4
HETATM    4  C   UNL     1     -10.027   4.458  71.052  1.00  0.00    -0.242 C  
BRANCH   4   5
HETATM    5  C   UNL     1      -8.606   3.920  71.221  1.00  0.00    -0.084 C  
BRANCH   5   6
HETATM    6  O   UNL     1      -7.688   4.711  70.472  1.00  0.00    -0.053 OA 
BRANCH   6   7
HETATM    7  C   UNL     1      -7.435   6.010  70.840  1.00  0.00    -0.091 A  
HETATM    8  C   UNL     1      -6.888   6.174  72.131  1.00  0.00    -0.073 A  
HETATM    9  C   UNL     1      -6.735   7.461  72.655  1.00  0.00    -0.063 A  
HETATM   10  C   UNL     1      -7.820   7.132  70.096  1.00  0.00    -0.108 A  
HETATM   11  C   UNL     1      -7.741   8.421  70.658  1.00  0.00    -0.083 A  
HETATM   12  C   UNL     1      -7.179   8.569  71.928  1.00  0.00    -0.113 A  
BRANCH   8  13
HETATM   13  O   UNL     1      -6.553   5.020  72.797  1.00  0.00    -0.055 OA 
HETATM   14  C   UNL     1      -5.202   4.586  72.731  1.00  0.00    -0.004 C  
ENDBRANCH   8  13
BRANCH  11  15
HETATM   15  C   UNL     1      -8.448   9.593  70.007  1.00  0.00    -0.223 C  
HETATM   16  C   UNL     1      -8.060  10.094  68.592  1.00  0.00    -0.109 C  
HETATM   17  C   UNL     1      -9.113  11.164  68.113  1.00  0.00    -0.159 C  
HETATM   18  C   UNL     1      -6.634  10.708  68.442  1.00  0.00    -0.055 C  
HETATM   19  C   UNL     1      -5.513   9.672  68.554  1.00  0.00    -0.036 C  
HETATM   20  C   UNL     1      -6.366  11.890  69.377  1.00  0.00    -0.115 C  
BRANCH  17  21
HETATM   21  C   UNL     1     -10.558  10.653  67.949  1.00  0.00    -0.228 C  
HETATM   22  N   UNL     1     -10.717  10.228  66.553  1.00  0.00    -0.133 NA 
HETATM   23  H1  UNL     1     -11.673   9.890  66.445  1.00  0.00     0.000 HD 
HETATM   24  H2  UNL     1     -10.017   9.545  66.262  1.00  0.00     0.000 HD 
BRANCH  21  25
HETATM   25  C   UNL     1     -11.658  11.698  68.375  1.00  0.00    -0.312 C  
HETATM   26  H   UNL     1     -13.021  11.922  69.799  1.00  0.00     0.000 HD 
HETATM   27  O   UNL     1     -12.357  11.292  69.543  1.00  0.00    -0.277 OA 
BRANCH  25  28
HETATM   28  C   UNL     1     -10.978  13.066  68.586  1.00  0.00    -0.297 C  
HETATM   29  C   UNL     1     -11.801  14.335  68.907  1.00  0.00    -0.372 C  
HETATM   30  C   UNL     1     -10.751  15.464  68.938  1.00  0.00    -0.244 C  
HETATM   31  C   UNL     1     -12.625  14.288  70.227  1.00  0.00    -0.378 C  
HETATM   32  C   UNL     1     -13.503  15.529  70.442  1.00  0.00     0.188 C  
HETATM   33  O   UNL     1      -9.628  15.329  69.421  1.00  0.00    -0.241 OA 
HETATM   34  N   UNL     1     -11.161  16.659  68.389  1.00  0.00    -0.316 N  
HETATM   35  C   UNL     1     -11.769  14.016  71.468  1.00  0.00     0.374 C  
HETATM   36  H   UNL     1     -12.126  16.769  68.078  1.00  0.00     0.000 HD 
BRANCH  34  37
HETATM   37  C   UNL     1     -10.229  17.763  68.250  1.00  0.00    -0.382 C  
BRANCH  37  38
HETATM   38  C   UNL     1      -9.867  18.082  66.790  1.00  0.00    -0.335 C  
HETATM   39  C   UNL     1     -10.251  16.889  65.888  1.00  0.00    -0.330 C  
HETATM   40  C   UNL     1     -10.605  19.341  66.306  1.00  0.00    -0.545 C  
BRANCH  38  41
HETATM   41  C   UNL     1      -8.350  18.300  66.689  1.00  0.00    -0.264 C  
HETATM   42  N   UNL     1      -7.728  18.865  67.759  1.00  0.00    -0.239 N  
HETATM   43  O   UNL     1      -7.680  17.985  65.708  1.00  0.00    -0.532 OA 
HETATM   44  H2  UNL     1      -8.248  19.134  68.594  1.00  0.00     0.000 HD 
HETATM   45  H1  UNL     1      -6.721  19.010  67.692  1.00  0.00     0.000 HD 
ENDBRANCH  38  41
ENDBRANCH  37  38
ENDBRANCH  34  37
ENDBRANCH  25  28
ENDBRANCH  21  25
ENDBRANCH  17  21
ENDBRANCH  11  15
ENDBRANCH   6   7
ENDBRANCH   5   6
ENDBRANCH   4   5
ENDBRANCH   3   4
ENDBRANCH   2   3
TORSDOF 13
ENDMDL
MODEL      151
REMARK 921   NORMALIZED FREE ENERGY PREDICTED BY IDOCK:   -2.82 KCAL/MOL
REMARK 922        TOTAL FREE ENERGY PREDICTED BY IDOCK:   -7.28 KCAL/MOL
REMARK 923 INTER-LIGAND FREE ENERGY PREDICTED BY IDOCK:   -4.74 KCAL/MOL
REMARK 924 INTRA-LIGAND FREE ENERGY PREDICTED BY IDOCK:   -2.54 KCAL/MOL
REMARK 927      BINDING AFFINITY PREDICTED BY RF-SCORE:    0.00 PKD
ROOT
HETATM    1  C   UNL     1      -9.781   3.936  65.032  1.00  0.00    -0.192 C  
HETATM    2  O   UNL     1      -8.417   3.869  65.422  1.00  0.00    -0.108 OA 
ENDROOT
BRANCH   2   3
HETATM    3  C   UNL     1      -8.008   5.071  66.073  1.00  0.00    -0.107 C  
BRANCH   3   4
HETATM    4  C   UNL     1      -8.451   6.274  65.252  1.00  0.00    -0.113 C  
BRANCH   4   5
HETATM    5  C   UNL     1      -8.450   7.589  66.031  1.00  0.00    -0.148 C  
BRANCH   5   6
HETATM    6  O   UNL     1      -7.119   7.951  66.385  1.00  0.00    -0.068 OA 
BRANCH   6   7
HETATM    7  C   UNL     1      -6.867   9.161  66.984  1.00  0.00    -0.080 A  
HETATM    8  C   UNL     1      -5.950   9.122  68.057  1.00  0.00    -0.049 A  
HETATM    9  C   UNL     1      -5.741  10.270  68.825  1.00  0.00    -0.041 A  
HETATM   10  C   UNL     1      -7.559  10.344  66.699  1.00  0.00    -0.114 A  
HETATM   11  C   UNL     1      -7.409  11.475  67.525  1.00  0.00    -0.112 A  
HETATM   12  C   UNL     1      -6.483  11.427  68.570  1.00  0.00    -0.056 A  
BRANCH   8  13
HETATM   13  O   UNL     1      -5.328   7.917  68.276  1.00  0.00    -0.030 OA 
HETATM   14  C   UNL     1      -5.625   7.228  69.483  1.00  0.00    -0.023 C  
ENDBRANCH   8  13
BRANCH  11  15
HETATM   15  C   UNL     1      -8.379  12.635  67.431  1.00  0.00    -0.184 C  
HETATM   16  C   UNL     1      -7.974  13.985  66.784  1.00  0.00     0.364 C  
HETATM   17  C   UNL     1      -9.252  14.896  66.640  1.00  0.00    -0.302 C  
HETATM   18  C   UNL     1      -6.870  14.802  67.524  1.00  0.00    -0.181 C  
HETATM   19  C   UNL     1      -5.482  14.164  67.435  1.00  0.00     0.369 C  
HETATM   20  C   UNL     1      -7.214  15.138  68.976  1.00  0.00    -0.149 C  
BRANCH  17  21
HETATM   21  C   UNL     1     -10.360  14.351  65.716  1.00  0.00    -0.326 C  
HETATM   22  N   UNL     1     -10.181  14.980  64.401  1.00  0.00    -0.277 NA 
HETATM   23  H1  UNL     1     -10.914  14.620  63.790  1.00  0.00     0.000 HD 
HETATM   24  H2  UNL     1      -9.244  14.848  64.020  1.00  0.00     0.000 HD 
BRANCH  21  25
HETATM   25  C   UNL     1     -11.818  14.560  66.275  1.00  0.00    -0.344 C  
HETATM   26  H   UNL     1     -13.675  14.649  65.583  1.00  0.00     0.000 HD 
HETATM   27  O   UNL     1     -12.795  14.523  65.246  1.00  0.00    -0.471 OA 
BRANCH  25  28
HETATM   28  C   UNL     1     -12.094  13.478  67.339  1.00  0.00    -0.360 C  
HETATM   29  C   UNL     1     -11.401  13.511  68.722  1.00  0.00    -0.329 C  
HETATM   30  C   UNL     1     -11.882  12.218  69.411  1.00  0.00    -0.310 C  
HETATM   31  C   UNL     1     -11.698  14.765  69.594  1.00  0.00    -0.354 C  
HETATM   32  C   UNL     1     -10.904  14.796  70.908  1.00  0.00     0.151 C  
HETATM   33  O   UNL     1     -13.031  11.788  69.317  1.00  0.00     0.538 OA 
HETATM   34  N   UNL     1     -10.929  11.567  70.163  1.00  0.00    -0.366 N  
HETATM   35  C   UNL     1     -13.191  14.978  69.865  1.00  0.00     0.391 C  
HETATM   36  H   UNL     1     -10.012  11.993  70.297  1.00  0.00     0.000 HD 
BRANCH  34  37
HETATM   37  C   UNL     1     -11.220  10.279  70.766  1.00  0.00    -0.293 C  
BRANCH  37  38
HETATM   38  C   UNL     1     -10.606   9.092  70.006  1.00  0.00    -0.246 C  
HETATM   39  C   UNL     1     -11.532   7.862  70.130  1.00  0.00    -0.025 C  
HETATM   40  C   UNL     1     -10.416   9.433  68.519  1.00  0.00    -0.239 C  
BRANCH  38  41
HETATM   41  C   UNL     1      -9.251   8.745  70.637  1.00  0.00    -0.196 C  
HETATM   42  N   UNL     1      -8.690   7.553  70.296  1.00  0.00    -0.144 N  
HETATM   43  O   UNL     1      -8.652   9.484  71.415  1.00  0.00    -0.215 OA 
HETATM   44  H2  UNL     1      -9.152   6.916  69.647  1.00  0.00     0.000 HD 
HETATM   45  H1  UNL     1      -7.790   7.322  70.715  1.00  0.00     0.000 HD 
ENDBRANCH  38  41
ENDBRANCH  37  38
ENDBRANCH  34  37
ENDBRANCH  25  28
ENDBRANCH  21  25
ENDBRANCH  17  21
ENDBRANCH  11  15
ENDBRANCH   6   7
ENDBRANCH   5   6
ENDBRANCH   4   5
ENDBRANCH   3   4
ENDBRANCH   2   3
TORSDOF 13
ENDMDL
MODEL      152
REMARK 921   NORMALIZED FREE ENERGY PREDICTED BY IDOCK:   -2.81 KCAL/MOL
REMARK 922        TOTAL FREE ENERGY PREDICTED BY IDOCK:   -7.25 KCAL/MOL
REMARK 923 INTER-LIGAND FREE ENERGY PREDICTED BY IDOCK:   -7.69 KCAL/MOL
REMARK 924 INTRA-LIGAND FREE ENERGY PREDICTED BY IDOCK:    0.44 KCAL/MOL
REMARK 927      BINDING AFFINITY PREDICTED BY RF-SCORE:    0.00 PKD
ROOT
HETATM    1  C   UNL     1      -6.516   1.874  65.411  1.00  0.00    -0.023 C  
HETATM    2  O   UNL     1      -6.631   1.628  66.805  1.00  0.00    -0.029 OA 
ENDROOT
BRANCH   2   3
HETATM    3  C   UNL     1      -7.536   2.547  67.416  1.00  0.00    -0.061 C  
BRANCH   3   4
HETATM    4  C   UNL     1      -7.369   3.924  66.788  1.00  0.00    -0.072 C  
BRANCH   4   5
HETATM    5  C   UNL     1      -8.592   4.828  66.943  1.00  0.00    -0.104 C  
BRANCH   5   6
HETATM    6  O   UNL     1      -8.995   4.881  68.308  1.00  0.00    -0.105 OA 
BRANCH   6   7
HETATM    7  C   UNL     1      -8.982   6.075  68.986  1.00  0.00    -0.124 A  
HETATM    8  C   UNL     1      -8.103   6.130  70.089  1.00  0.00    -0.116 A  
HETATM    9  C   UNL     1      -8.124   7.245  70.932  1.00  0.00    -0.106 A  
HETATM   10  C   UNL     1      -9.867   7.133  68.745  1.00  0.00    -0.158 A  
HETATM   11  C   UNL     1      -9.945   8.216  69.642  1.00  0.00    -0.193 A  
HETATM   12  C   UNL     1      -9.054   8.266  70.717  1.00  0.00    -0.168 A  
BRANCH   8  13
HETATM   13  O   UNL     1      -7.280   5.043  70.261  1.00  0.00    -0.052 OA 
HETATM   14  C   UNL     1      -7.029   4.606  71.589  1.00  0.00    -0.047 C  
ENDBRANCH   8  13
BRANCH  11  15
HETATM   15  C   UNL     1     -11.105   9.189  69.580  1.00  0.00    -0.103 C  
HETATM   16  C   UNL     1     -11.629   9.912  70.848  1.00  0.00    -0.456 C  
HETATM   17  C   UNL     1     -12.677  11.010  70.424  1.00  0.00    -0.297 C  
HETATM   18  C   UNL     1     -12.281   9.008  71.939  1.00  0.00    -0.451 C  
HETATM   19  C   UNL     1     -11.273   8.120  72.672  1.00  0.00    -0.447 C  
HETATM   20  C   UNL     1     -13.460   8.175  71.432  1.00  0.00    -0.249 C  
BRANCH  17  21
HETATM   21  C   UNL     1     -12.130  12.149  69.539  1.00  0.00    -0.201 C  
HETATM   22  N   UNL     1     -10.705  11.881  69.313  1.00  0.00    -0.438 NA 
HETATM   23  H1  UNL     1     -10.343  12.634  68.728  1.00  0.00     0.000 HD 
HETATM   24  H2  UNL     1     -10.529  10.955  68.924  1.00  0.00     0.000 HD 
BRANCH  21  25
HETATM   25  C   UNL     1     -12.373  13.589  70.128  1.00  0.00    -0.275 C  
HETATM   26  H   UNL     1     -11.821  14.662  71.703  1.00  0.00     0.000 HD 
HETATM   27  O   UNL     1     -11.674  13.793  71.348  1.00  0.00     0.130 OA 
BRANCH  25  28
HETATM   28  C   UNL     1     -11.954  14.629  69.070  1.00  0.00    -0.318 C  
HETATM   29  C   UNL     1     -10.658  15.460  69.224  1.00  0.00    -0.252 C  
HETATM   30  C   UNL     1     -10.683  16.419  68.016  1.00  0.00    -0.334 C  
HETATM   31  C   UNL     1      -9.335  14.643  69.274  1.00  0.00     0.013 C  
HETATM   32  C   UNL     1      -8.093  15.507  69.533  1.00  0.00    -0.202 C  
HETATM   33  O   UNL     1     -11.060  16.083  66.894  1.00  0.00    -0.200 OA 
HETATM   34  N   UNL     1     -10.239  17.697  68.275  1.00  0.00    -0.352 N  
HETATM   35  C   UNL     1      -9.122  13.755  68.043  1.00  0.00    -0.191 C  
HETATM   36  H   UNL     1      -9.848  17.921  69.190  1.00  0.00     0.000 HD 
BRANCH  34  37
HETATM   37  C   UNL     1     -10.323  18.726  67.255  1.00  0.00    -0.416 C  
BRANCH  37  38
HETATM   38  C   UNL     1      -8.951  19.217  66.762  1.00  0.00    -0.360 C  
HETATM   39  C   UNL     1      -8.106  18.013  66.295  1.00  0.00    -0.259 C  
HETATM   40  C   UNL     1      -9.111  20.206  65.596  1.00  0.00     0.176 C  
BRANCH  38  41
HETATM   41  C   UNL     1      -8.221  19.902  67.926  1.00  0.00    -0.282 C  
HETATM   42  N   UNL     1      -7.274  20.826  67.612  1.00  0.00    -0.310 N  
HETATM   43  O   UNL     1      -8.453  19.664  69.110  1.00  0.00    -0.259 OA 
HETATM   44  H2  UNL     1      -7.058  21.056  66.642  1.00  0.00     0.000 HD 
HETATM   45  H1  UNL     1      -6.789  21.281  68.385  1.00  0.00     0.000 HD 
ENDBRANCH  38  41
ENDBRANCH  37  38
ENDBRANCH  34  37
ENDBRANCH  25  28
ENDBRANCH  21  25
ENDBRANCH  17  21
ENDBRANCH  11  15
ENDBRANCH   6   7
ENDBRANCH   5   6
ENDBRANCH   4   5
ENDBRANCH   3   4
ENDBRANCH   2   3
TORSDOF 13
ENDMDL
MODEL      153
REMARK 921   NORMALIZED FREE ENERGY PREDICTED BY IDOCK:   -2.70 KCAL/MOL
REMARK 922        TOTAL FREE ENERGY PREDICTED BY IDOCK:   -7.06 KCAL/MOL
REMARK 923 INTER-LIGAND FREE ENERGY PREDICTED BY IDOCK:   -7.20 KCAL/MOL
REMARK 924 INTRA-LIGAND FREE ENERGY PREDICTED BY IDOCK:    0.14 KCAL/MOL
REMARK 927      BINDING AFFINITY PREDICTED BY RF-SCORE:    0.00 PKD
ROOT
HETATM    1  C   UNL     1     -12.446  15.389  70.627  1.00  0.00    -0.428 C  
HETATM    2  O   UNL     1     -11.105  15.857  70.575  1.00  0.00    -0.329 OA 
ENDROOT
BRANCH   2   3
HETATM    3  C   UNL     1     -10.773  16.318  69.266  1.00  0.00    -0.307 C  
BRANCH   3   4
HETATM    4  C   UNL     1     -10.996  15.199  68.257  1.00  0.00    -0.276 C  
BRANCH   4   5
HETATM    5  C   UNL     1     -11.276  15.692  66.838  1.00  0.00    -0.106 C  
BRANCH   5   6
HETATM    6  O   UNL     1     -10.321  15.150  65.931  1.00  0.00    -0.288 OA 
BRANCH   6   7
HETATM    7  C   UNL     1     -10.015  13.811  65.967  1.00  0.00    -0.306 A  
HETATM    8  C   UNL     1     -11.024  12.951  65.483  1.00  0.00    -0.274 A  
HETATM    9  C   UNL     1     -10.871  11.568  65.614  1.00  0.00    -0.310 A  
HETATM   10  C   UNL     1      -8.873  13.277  66.576  1.00  0.00     0.000 A  
HETATM   11  C   UNL     1      -8.759  11.888  66.782  1.00  0.00    -0.193 A  
HETATM   12  C   UNL     1      -9.756  11.049  66.278  1.00  0.00    -0.244 A  
BRANCH   8  13
HETATM   13  O   UNL     1     -12.117  13.561  64.915  1.00  0.00    -0.363 OA 
HETATM   14  C   UNL     1     -12.353  13.341  63.531  1.00  0.00    -0.366 C  
ENDBRANCH   8  13
BRANCH  11  15
HETATM   15  C   UNL     1      -7.705  11.329  67.717  1.00  0.00    -0.113 C  
HETATM   16  C   UNL     1      -7.303  12.063  69.022  1.00  0.00    -0.018 C  
HETATM   17  C   UNL     1      -6.361  11.129  69.873  1.00  0.00    -0.141 C  
HETATM   18  C   UNL     1      -6.598  13.444  68.850  1.00  0.00    -0.107 C  
HETATM   19  C   UNL     1      -7.533  14.541  68.336  1.00  0.00    -0.116 C  
HETATM   20  C   UNL     1      -5.322  13.388  68.007  1.00  0.00    -0.110 C  
BRANCH  17  21
HETATM   21  C   UNL     1      -6.993   9.809  70.361  1.00  0.00    -0.138 C  
HETATM   22  N   UNL     1      -6.374   9.479  71.650  1.00  0.00    -0.290 NA 
HETATM   23  H1  UNL     1      -6.791   8.606  71.973  1.00  0.00     0.000 HD 
HETATM   24  H2  UNL     1      -6.448  10.233  72.334  1.00  0.00     0.000 HD 
BRANCH  21  25
HETATM   25  C   UNL     1      -6.874   8.624  69.330  1.00  0.00    -0.050 C  
HETATM   26  H   UNL     1      -5.534   7.881  68.070  1.00  0.00     0.000 HD 
HETATM   27  O   UNL     1      -5.605   8.595  68.692  1.00  0.00    -0.036 OA 
BRANCH  25  28
HETATM   28  C   UNL     1      -7.150   7.301  70.071  1.00  0.00    -0.066 C  
HETATM   29  C   UNL     1      -8.209   6.296  69.560  1.00  0.00    -0.117 C  
HETATM   30  C   UNL     1      -8.222   5.188  70.634  1.00  0.00    -0.107 C  
HETATM   31  C   UNL     1      -7.953   5.710  68.141  1.00  0.00    -0.097 C  
HETATM   32  C   UNL     1      -9.086   4.802  67.643  1.00  0.00    -0.128 C  
HETATM   33  O   UNL     1      -7.206   4.772  71.187  1.00  0.00    -0.049 OA 
HETATM   34  N   UNL     1      -9.466   4.678  70.932  1.00  0.00    -0.153 N  
HETATM   35  C   UNL     1      -6.601   5.000  68.012  1.00  0.00    -0.050 C  
HETATM   36  H   UNL     1     -10.279   4.978  70.394  1.00  0.00     0.000 HD 
BRANCH  34  37
HETATM   37  C   UNL     1      -9.628   3.716  72.007  1.00  0.00    -0.144 C  
BRANCH  37  38
HETATM   38  C   UNL     1      -9.977   4.359  73.360  1.00  0.00    -0.175 C  
HETATM   39  C   UNL     1     -10.899   3.413  74.161  1.00  0.00    -0.213 C  
HETATM   40  C   UNL     1      -8.705   4.637  74.177  1.00  0.00    -0.107 C  
BRANCH  38  41
HETATM   41  C   UNL     1     -10.730   5.673  73.107  1.00  0.00    -0.267 C  
HETATM   42  N   UNL     1     -10.270   6.786  73.738  1.00  0.00    -0.316 N  
HETATM   43  O   UNL     1     -11.707   5.767  72.368  1.00  0.00    -0.301 OA 
HETATM   44  H2  UNL     1      -9.457   6.750  74.354  1.00  0.00     0.000 HD 
HETATM   45  H1  UNL     1     -10.769   7.659  73.571  1.00  0.00     0.000 HD 
ENDBRANCH  38  41
ENDBRANCH  37  38
ENDBRANCH  34  37
ENDBRANCH  25  28
ENDBRANCH  21  25
ENDBRANCH  17  21
ENDBRANCH  11  15
ENDBRANCH   6   7
ENDBRANCH   5   6
ENDBRANCH   4   5
ENDBRANCH   3   4
ENDBRANCH   2   3
TORSDOF 13
ENDMDL
MODEL      154
REMARK 921   NORMALIZED FREE ENERGY PREDICTED BY IDOCK:   -2.59 KCAL/MOL
REMARK 922        TOTAL FREE ENERGY PREDICTED BY IDOCK:   -6.87 KCAL/MOL
REMARK 923 INTER-LIGAND FREE ENERGY PREDICTED BY IDOCK:   -6.03 KCAL/MOL
REMARK 924 INTRA-LIGAND FREE ENERGY PREDICTED BY IDOCK:   -0.85 KCAL/MOL
REMARK 927      BINDING AFFINITY PREDICTED BY RF-SCORE:    0.00 PKD
ROOT
HETATM    1  C   UNL     1      -8.690   5.633  64.755  1.00  0.00    -0.000 C  
HETATM    2  O   UNL     1      -7.456   5.026  65.110  1.00  0.00    -0.074 OA 
ENDROOT
BRANCH   2   3
HETATM    3  C   UNL     1      -6.945   5.574  66.325  1.00  0.00    -0.060 C  
BRANCH   3   4
HETATM    4  C   UNL     1      -6.474   7.002  66.085  1.00  0.00    -0.051 C  
BRANCH   4   5
HETATM    5  C   UNL     1      -7.318   8.060  66.795  1.00  0.00    -0.089 C  
BRANCH   5   6
HETATM    6  O   UNL     1      -7.046   9.350  66.255  1.00  0.00    -0.086 OA 
BRANCH   6   7
HETATM    7  C   UNL     1      -8.073  10.140  65.801  1.00  0.00    -0.142 A  
HETATM    8  C   UNL     1      -8.326  10.060  64.414  1.00  0.00    -0.168 A  
HETATM    9  C   UNL     1      -9.248  10.932  63.831  1.00  0.00    -0.222 A  
HETATM   10  C   UNL     1      -8.745  11.091  66.579  1.00  0.00    -0.169 A  
HETATM   11  C   UNL     1      -9.612  12.022  65.977  1.00  0.00    -0.247 A  
HETATM   12  C   UNL     1      -9.867  11.916  64.607  1.00  0.00    -0.207 A  
BRANCH   8  13
HETATM   13  O   UNL     1      -7.611   9.110  63.724  1.00  0.00    -0.107 OA 
HETATM   14  C   UNL     1      -6.948   9.516  62.535  1.00  0.00    -0.098 C  
ENDBRANCH   8  13
BRANCH  11  15
HETATM   15  C   UNL     1     -10.083  13.245  66.737  1.00  0.00    -0.258 C  
HETATM   16  C   UNL     1     -11.588  13.504  67.008  1.00  0.00    -0.394 C  
HETATM   17  C   UNL     1     -11.734  14.720  68.001  1.00  0.00    -0.360 C  
HETATM   18  C   UNL     1     -12.478  13.783  65.758  1.00  0.00    -0.527 C  
HETATM   19  C   UNL     1     -12.689  12.550  64.878  1.00  0.00    -0.371 C  
HETATM   20  C   UNL     1     -12.008  14.970  64.914  1.00  0.00    -0.255 C  
BRANCH  17  21
HETATM   21  C   UNL     1     -11.127  14.513  69.404  1.00  0.00    -0.268 C  
HETATM   22  N   UNL     1      -9.699  14.229  69.225  1.00  0.00    -0.415 NA 
HETATM   23  H1  UNL     1      -9.297  14.092  70.153  1.00  0.00     0.000 HD 
HETATM   24  H2  UNL     1      -9.214  14.943  68.682  1.00  0.00     0.000 HD 
BRANCH  21  25
HETATM   25  C   UNL     1     -11.848  13.400  70.255  1.00  0.00    -0.245 C  
HETATM   26  H   UNL     1     -13.693  12.770  70.618  1.00  0.00     0.000 HD 
HETATM   27  O   UNL     1     -13.259  13.441  70.104  1.00  0.00     0.348 OA 
BRANCH  25  28
HETATM   28  C   UNL     1     -11.287  12.025  69.838  1.00  0.00    -0.144 C  
HETATM   29  C   UNL     1     -11.264  10.831  70.821  1.00  0.00     0.077 C  
HETATM   30  C   UNL     1     -10.546   9.714  70.036  1.00  0.00    -0.260 C  
HETATM   31  C   UNL     1     -12.654  10.359  71.340  1.00  0.00    -0.539 C  
HETATM   32  C   UNL     1     -12.565   9.244  72.391  1.00  0.00    -0.348 C  
HETATM   33  O   UNL     1     -10.724   9.511  68.836  1.00  0.00    -0.222 OA 
HETATM   34  N   UNL     1      -9.686   8.938  70.780  1.00  0.00    -0.207 N  
HETATM   35  C   UNL     1     -13.620   9.963  70.218  1.00  0.00     0.612 C  
HETATM   36  H   UNL     1      -9.627   9.071  71.789  1.00  0.00     0.000 HD 
BRANCH  34  37
HETATM   37  C   UNL     1      -8.862   7.930  70.136  1.00  0.00    -0.144 C  
BRANCH  37  38
HETATM   38  C   UNL     1      -7.388   7.972  70.572  1.00  0.00    -0.060 C  
HETATM   39  C   UNL     1      -7.297   7.846  72.108  1.00  0.00    -0.092 C  
HETATM   40  C   UNL     1      -6.593   6.827  69.922  1.00  0.00    -0.048 C  
BRANCH  38  41
HETATM   41  C   UNL     1      -6.784   9.322  70.158  1.00  0.00    -0.059 C  
HETATM   42  N   UNL     1      -5.572   9.650  70.680  1.00  0.00    -0.047 N  
HETATM   43  O   UNL     1      -7.332  10.103  69.383  1.00  0.00    -0.080 OA 
HETATM   44  H2  UNL     1      -5.083   9.025  71.320  1.00  0.00     0.000 HD 
HETATM   45  H1  UNL     1      -5.172  10.546  70.405  1.00  0.00     0.000 HD 
ENDBRANCH  38  41
ENDBRANCH  37  38
ENDBRANCH  34  37
ENDBRANCH  25  28
ENDBRANCH  21  25
ENDBRANCH  17  21
ENDBRANCH  11  15
ENDBRANCH   6   7
ENDBRANCH   5   6
ENDBRANCH   4   5
ENDBRANCH   3   4
ENDBRANCH   2   3
TORSDOF 13
ENDMDL
MODEL      155
REMARK 921   NORMALIZED FREE ENERGY PREDICTED BY IDOCK:   -2.52 KCAL/MOL
REMARK 922        TOTAL FREE ENERGY PREDICTED BY IDOCK:   -6.75 KCAL/MOL
REMARK 923 INTER-LIGAND FREE ENERGY PREDICTED BY IDOCK:   -7.02 KCAL/MOL
REMARK 924 INTRA-LIGAND FREE ENERGY PREDICTED BY IDOCK:    0.27 KCAL/MOL
REMARK 927      BINDING AFFINITY PREDICTED BY RF-SCORE:    0.00 PKD
ROOT
HETATM    1  C   UNL     1      -8.667   2.999  70.558  1.00  0.00    -0.072 C  
HETATM    2  O   UNL     1      -9.390   3.687  71.570  1.00  0.00    -0.116 OA 
ENDROOT
BRANCH   2   3
HETATM    3  C   UNL     1     -10.258   4.668  71.005  1.00  0.00    -0.136 C  
BRANCH   3   4
HETATM    4  C   UNL     1     -10.342   5.872  71.934  1.00  0.00    -0.255 C  
BRANCH   4   5
HETATM    5  C   UNL     1     -10.917   7.125  71.273  1.00  0.00    -0.240 C  
BRANCH   5   6
HETATM    6  O   UNL     1     -10.229   8.284  71.733  1.00  0.00    -0.195 OA 
BRANCH   6   7
HETATM    7  C   UNL     1      -9.481   9.036  70.861  1.00  0.00    -0.267 A  
HETATM    8  C   UNL     1      -8.099   9.091  71.147  1.00  0.00    -0.139 A  
HETATM    9  C   UNL     1      -7.277   9.947  70.409  1.00  0.00    -0.143 A  
HETATM   10  C   UNL     1     -10.016   9.837  69.845  1.00  0.00    -0.282 A  
HETATM   11  C   UNL     1      -9.202  10.758  69.159  1.00  0.00    -0.131 A  
HETATM   12  C   UNL     1      -7.833  10.786  69.439  1.00  0.00    -0.093 A  
BRANCH   8  13
HETATM   13  O   UNL     1      -7.661   8.284  72.170  1.00  0.00    -0.109 OA 
HETATM   14  C   UNL     1      -6.481   8.671  72.859  1.00  0.00    -0.036 C  
ENDBRANCH   8  13
BRANCH  11  15
HETATM   15  C   UNL     1      -9.817  11.847  68.303  1.00  0.00    -0.199 C  
HETATM   16  C   UNL     1      -9.006  12.565  67.193  1.00  0.00    -0.200 C  
HETATM   17  C   UNL     1      -9.977  13.472  66.346  1.00  0.00    -0.296 C  
HETATM   18  C   UNL     1      -7.808  13.442  67.670  1.00  0.00    -0.174 C  
HETATM   19  C   UNL     1      -6.636  12.621  68.213  1.00  0.00    -0.079 C  
HETATM   20  C   UNL     1      -8.198  14.540  68.661  1.00  0.00    -0.152 C  
BRANCH  17  21
HETATM   21  C   UNL     1     -11.089  12.727  65.579  1.00  0.00    -0.285 C  
HETATM   22  N   UNL     1     -11.962  12.097  66.578  1.00  0.00    -0.631 NA 
HETATM   23  H1  UNL     1     -12.697  11.604  66.071  1.00  0.00     0.000 HD 
HETATM   24  H2  UNL     1     -12.325  12.759  67.264  1.00  0.00     0.000 HD 
BRANCH  21  25
HETATM   25  C   UNL     1     -10.553  11.686  64.526  1.00  0.00    -0.318 C  
HETATM   26  H   UNL     1      -9.197  11.601  63.080  1.00  0.00     0.000 HD 
HETATM   27  O   UNL     1      -9.520  12.228  63.716  1.00  0.00    -0.032 OA 
BRANCH  25  28
HETATM   28  C   UNL     1     -10.063  10.433  65.280  1.00  0.00    -0.370 C  
HETATM   29  C   UNL     1      -9.151   9.386  64.599  1.00  0.00    -0.228 C  
HETATM   30  C   UNL     1      -8.993   8.280  65.663  1.00  0.00    -0.109 C  
HETATM   31  C   UNL     1      -7.769   9.910  64.113  1.00  0.00    -0.138 C  
HETATM   32  C   UNL     1      -6.950   8.858  63.353  1.00  0.00    -0.089 C  
HETATM   33  O   UNL     1      -8.861   8.512  66.864  1.00  0.00    -0.131 OA 
HETATM   34  N   UNL     1      -8.997   6.993  65.173  1.00  0.00    -0.318 N  
HETATM   35  C   UNL     1      -6.929  10.537  65.232  1.00  0.00    -0.045 C  
HETATM   36  H   UNL     1      -9.016   6.835  64.166  1.00  0.00     0.000 HD 
BRANCH  34  37
HETATM   37  C   UNL     1      -8.974   5.860  66.080  1.00  0.00    -0.151 C  
BRANCH  37  38
HETATM   38  C   UNL     1      -8.579   4.537  65.403  1.00  0.00    -0.126 C  
HETATM   39  C   UNL     1      -7.080   4.571  65.034  1.00  0.00    -0.063 C  
HETATM   40  C   UNL     1      -8.843   3.345  66.338  1.00  0.00    -0.137 C  
BRANCH  38  41
HETATM   41  C   UNL     1      -9.394   4.376  64.113  1.00  0.00    -0.118 C  
HETATM   42  N   UNL     1     -10.442   3.509  64.140  1.00  0.00    -0.352 N  
HETATM   43  O   UNL     1      -9.155   4.989  63.075  1.00  0.00    -0.063 OA 
HETATM   44  H2  UNL     1     -10.676   2.987  64.985  1.00  0.00     0.000 HD 
HETATM   45  H1  UNL     1     -10.983   3.401  63.283  1.00  0.00     0.000 HD 
ENDBRANCH  38  41
ENDBRANCH  37  38
ENDBRANCH  34  37
ENDBRANCH  25  28
ENDBRANCH  21  25
ENDBRANCH  17  21
ENDBRANCH  11  15
ENDBRANCH   6   7
ENDBRANCH   5   6
ENDBRANCH   4   5
ENDBRANCH   3   4
ENDBRANCH   2   3
TORSDOF 13
ENDMDL
MODEL      156
REMARK 921   NORMALIZED FREE ENERGY PREDICTED BY IDOCK:   -2.50 KCAL/MOL
REMARK 922        TOTAL FREE ENERGY PREDICTED BY IDOCK:   -6.70 KCAL/MOL
REMARK 923 INTER-LIGAND FREE ENERGY PREDICTED BY IDOCK:   -5.43 KCAL/MOL
REMARK 924 INTRA-LIGAND FREE ENERGY PREDICTED BY IDOCK:   -1.27 KCAL/MOL
REMARK 927      BINDING AFFINITY PREDICTED BY RF-SCORE:    0.00 PKD
ROOT
HETATM    1  C   UNL     1     -11.749   5.582  72.480  1.00  0.00    -0.158 C  
HETATM    2  O   UNL     1     -11.333   4.635  73.454  1.00  0.00    -0.323 OA 
ENDROOT
BRANCH   2   3
HETATM    3  C   UNL     1     -10.220   5.123  74.201  1.00  0.00    -0.250 C  
BRANCH   3   4
HETATM    4  C   UNL     1      -8.964   4.356  73.809  1.00  0.00    -0.102 C  
BRANCH   4   5
HETATM    5  C   UNL     1      -8.778   4.204  72.299  1.00  0.00    -0.107 C  
BRANCH   5   6
HETATM    6  O   UNL     1      -7.602   4.888  71.877  1.00  0.00    -0.091 OA 
BRANCH   6   7
HETATM    7  C   UNL     1      -7.400   5.158  70.545  1.00  0.00    -0.066 A  
HETATM    8  C   UNL     1      -6.525   4.273  69.878  1.00  0.00    -0.032 A  
HETATM    9  C   UNL     1      -6.139   4.548  68.564  1.00  0.00    -0.031 A  
HETATM   10  C   UNL     1      -7.871   6.302  69.889  1.00  0.00    -0.110 A  
HETATM   11  C   UNL     1      -7.416   6.620  68.595  1.00  0.00    -0.088 A  
HETATM   12  C   UNL     1      -6.567   5.724  67.941  1.00  0.00    -0.053 A  
BRANCH   8  13
HETATM   13  O   UNL     1      -6.098   3.186  70.602  1.00  0.00    -0.018 OA 
HETATM   14  C   UNL     1      -6.547   1.901  70.193  1.00  0.00    -0.029 C  
ENDBRANCH   8  13
BRANCH  11  15
HETATM   15  C   UNL     1      -7.653   7.997  68.009  1.00  0.00    -0.112 C  
HETATM   16  C   UNL     1      -6.519   9.052  67.925  1.00  0.00    -0.057 C  
HETATM   17  C   UNL     1      -7.016  10.281  67.073  1.00  0.00    -0.089 C  
HETATM   18  C   UNL     1      -5.970   9.586  69.284  1.00  0.00    -0.034 C  
HETATM   19  C   UNL     1      -5.159   8.547  70.060  1.00  0.00    -0.022 C  
HETATM   20  C   UNL     1      -7.039  10.212  70.182  1.00  0.00    -0.162 C  
BRANCH  17  21
HETATM   21  C   UNL     1      -7.360   9.979  65.601  1.00  0.00    -0.127 C  
HETATM   22  N   UNL     1      -6.618  10.937  64.773  1.00  0.00    -0.318 NA 
HETATM   23  H1  UNL     1      -6.846  10.737  63.799  1.00  0.00     0.000 HD 
HETATM   24  H2  UNL     1      -5.615  10.930  64.957  1.00  0.00     0.000 HD 
BRANCH  21  25
HETATM   25  C   UNL     1      -8.904  10.002  65.288  1.00  0.00    -0.178 C  
HETATM   26  H   UNL     1     -10.375   8.709  64.974  1.00  0.00     0.000 HD 
HETATM   27  O   UNL     1      -9.445   8.695  65.164  1.00  0.00     0.082 OA 
BRANCH  25  28
HETATM   28  C   UNL     1      -9.618  10.792  66.403  1.00  0.00    -0.226 C  
HETATM   29  C   UNL     1      -9.669  12.338  66.391  1.00  0.00    -0.243 C  
HETATM   30  C   UNL     1     -10.379  12.699  67.713  1.00  0.00    -0.220 C  
HETATM   31  C   UNL     1     -10.385  12.980  65.167  1.00  0.00    -0.321 C  
HETATM   32  C   UNL     1     -10.314  14.513  65.154  1.00  0.00    -0.438 C  
HETATM   33  O   UNL     1     -11.330  12.063  68.165  1.00  0.00    -0.246 OA 
HETATM   34  N   UNL     1      -9.878  13.806  68.361  1.00  0.00    -0.228 N  
HETATM   35  C   UNL     1     -11.834  12.509  64.995  1.00  0.00    -0.445 C  
HETATM   36  H   UNL     1      -9.150  14.366  67.919  1.00  0.00     0.000 HD 
BRANCH  34  37
HETATM   37  C   UNL     1     -10.380  14.180  69.671  1.00  0.00     0.292 C  
BRANCH  37  38
HETATM   38  C   UNL     1     -11.697  14.973  69.622  1.00  0.00    -0.353 C  
HETATM   39  C   UNL     1     -11.729  15.847  68.349  1.00  0.00    -0.246 C  
HETATM   40  C   UNL     1     -12.906  14.023  69.614  1.00  0.00     0.353 C  
BRANCH  38  41
HETATM   41  C   UNL     1     -11.769  15.895  70.846  1.00  0.00    -0.420 C  
HETATM   42  N   UNL     1     -10.907  16.946  70.888  1.00  0.00     0.203 N  
HETATM   43  O   UNL     1     -12.562  15.737  71.772  1.00  0.00    -0.415 OA 
HETATM   44  H2  UNL     1     -10.239  17.115  70.136  1.00  0.00     0.000 HD 
HETATM   45  H1  UNL     1     -10.954  17.559  71.702  1.00  0.00     0.000 HD 
ENDBRANCH  38  41
ENDBRANCH  37  38
ENDBRANCH  34  37
ENDBRANCH  25  28
ENDBRANCH  21  25
ENDBRANCH  17  21
ENDBRANCH  11  15
ENDBRANCH   6   7
ENDBRANCH   5   6
ENDBRANCH   4   5
ENDBRANCH   3   4
ENDBRANCH   2   3
TORSDOF 13
ENDMDL
MODEL      157
REMARK 921   NORMALIZED FREE ENERGY PREDICTED BY IDOCK:   -2.49 KCAL/MOL
REMARK 922        TOTAL FREE ENERGY PREDICTED BY IDOCK:   -6.70 KCAL/MOL
REMARK 923 INTER-LIGAND FREE ENERGY PREDICTED BY IDOCK:   -6.41 KCAL/MOL
REMARK 924 INTRA-LIGAND FREE ENERGY PREDICTED BY IDOCK:   -0.29 KCAL/MOL
REMARK 927      BINDING AFFINITY PREDICTED BY RF-SCORE:    0.00 PKD
ROOT
HETATM    1  C   UNL     1      -6.795   7.912  62.739  1.00  0.00    -0.084 C  
HETATM    2  O   UNL     1      -6.707   9.219  63.288  1.00  0.00    -0.091 OA 
ENDROOT
BRANCH   2   3
HETATM    3  C   UNL     1      -7.892   9.969  63.023  1.00  0.00    -0.142 C  
BRANCH   3   4
HETATM    4  C   UNL     1      -8.693  10.131  64.308  1.00  0.00    -0.218 C  
BRANCH   4   5
HETATM    5  C   UNL     1      -8.575   8.946  65.266  1.00  0.00    -0.184 C  
BRANCH   5   6
HETATM    6  O   UNL     1      -7.846   9.325  66.430  1.00  0.00    -0.102 OA 
BRANCH   6   7
HETATM    7  C   UNL     1      -7.881  10.624  66.875  1.00  0.00    -0.121 A  
HETATM    8  C   UNL     1      -6.626  11.266  66.952  1.00  0.00    -0.130 A  
HETATM    9  C   UNL     1      -6.537  12.535  67.531  1.00  0.00    -0.150 A  
HETATM   10  C   UNL     1      -9.023  11.258  67.380  1.00  0.00    -0.144 A  
HETATM   11  C   UNL     1      -8.918  12.498  68.037  1.00  0.00    -0.192 A  
HETATM   12  C   UNL     1      -7.672  13.131  68.087  1.00  0.00    -0.143 A  
BRANCH   8  13
HETATM   13  O   UNL     1      -5.556  10.566  66.447  1.00  0.00    -0.053 OA 
HETATM   14  C   UNL     1      -5.127  10.872  65.128  1.00  0.00    -0.104 C  
ENDBRANCH   8  13
BRANCH  11  15
HETATM   15  C   UNL     1     -10.067  13.035  68.866  1.00  0.00     0.031 C  
HETATM   16  C   UNL     1     -11.452  13.336  68.237  1.00  0.00    -0.351 C  
HETATM   17  C   UNL     1     -12.483  13.662  69.385  1.00  0.00    -0.036 C  
HETATM   18  C   UNL     1     -11.500  14.493  67.192  1.00  0.00    -0.383 C  
HETATM   19  C   UNL     1     -10.803  14.147  65.874  1.00  0.00    -0.294 C  
HETATM   20  C   UNL     1     -10.999  15.835  67.728  1.00  0.00    -0.314 C  
BRANCH  17  21
HETATM   21  C   UNL     1     -12.760  12.517  70.379  1.00  0.00     0.097 C  
HETATM   22  N   UNL     1     -11.950  12.771  71.576  1.00  0.00     0.268 NA 
HETATM   23  H1  UNL     1     -12.133  12.013  72.234  1.00  0.00     0.000 HD 
HETATM   24  H2  UNL     1     -12.110  13.695  71.978  1.00  0.00     0.000 HD 
BRANCH  21  25
HETATM   25  C   UNL     1     -12.502  11.079  69.788  1.00  0.00    -0.183 C  
HETATM   26  H   UNL     1     -12.239  10.228  68.015  1.00  0.00     0.000 HD 
HETATM   27  O   UNL     1     -12.394  11.095  68.372  1.00  0.00    -0.556 OA 
BRANCH  25  28
HETATM   28  C   UNL     1     -11.224  10.507  70.433  1.00  0.00    -0.378 C  
HETATM   29  C   UNL     1     -11.156   9.042  70.927  1.00  0.00    -0.343 C  
HETATM   30  C   UNL     1      -9.761   8.931  71.576  1.00  0.00    -0.302 C  
HETATM   31  C   UNL     1     -11.365   7.952  69.837  1.00  0.00     0.034 C  
HETATM   32  C   UNL     1     -11.393   6.524  70.399  1.00  0.00    -0.443 C  
HETATM   33  O   UNL     1      -8.754   9.463  71.109  1.00  0.00    -0.284 OA 
HETATM   34  N   UNL     1      -9.710   8.176  72.727  1.00  0.00    -0.273 N  
HETATM   35  C   UNL     1     -10.367   8.053  68.678  1.00  0.00    -0.224 C  
HETATM   36  H   UNL     1     -10.540   7.674  73.040  1.00  0.00     0.000 HD 
BRANCH  34  37
HETATM   37  C   UNL     1      -8.482   8.091  73.497  1.00  0.00    -0.245 C  
BRANCH  37  38
HETATM   38  C   UNL     1      -7.500   7.031  72.972  1.00  0.00    -0.075 C  
HETATM   39  C   UNL     1      -7.128   6.058  74.112  1.00  0.00    -0.088 C  
HETATM   40  C   UNL     1      -8.121   6.235  71.812  1.00  0.00    -0.103 C  
BRANCH  38  41
HETATM   41  C   UNL     1      -6.220   7.731  72.493  1.00  0.00    -0.052 C  
HETATM   42  N   UNL     1      -6.261   9.085  72.364  1.00  0.00    -0.019 N  
HETATM   43  O   UNL     1      -5.175   7.139  72.234  1.00  0.00    -0.035 OA 
HETATM   44  H2  UNL     1      -7.107   9.613  72.576  1.00  0.00     0.000 HD 
HETATM   45  H1  UNL     1      -5.412   9.551  72.046  1.00  0.00     0.000 HD 
ENDBRANCH  38  41
ENDBRANCH  37  38
ENDBRANCH  34  37
ENDBRANCH  25  28
ENDBRANCH  21  25
ENDBRANCH  17  21
ENDBRANCH  11  15
ENDBRANCH   6   7
ENDBRANCH   5   6
ENDBRANCH   4   5
ENDBRANCH   3   4
ENDBRANCH   2   3
TORSDOF 13
ENDMDL
MODEL      158
REMARK 921   NORMALIZED FREE ENERGY PREDICTED BY IDOCK:   -2.45 KCAL/MOL
REMARK 922        TOTAL FREE ENERGY PREDICTED BY IDOCK:   -6.62 KCAL/MOL
REMARK 923 INTER-LIGAND FREE ENERGY PREDICTED BY IDOCK:   -5.85 KCAL/MOL
REMARK 924 INTRA-LIGAND FREE ENERGY PREDICTED BY IDOCK:   -0.76 KCAL/MOL
REMARK 927      BINDING AFFINITY PREDICTED BY RF-SCORE:    0.00 PKD
ROOT
HETATM    1  C   UNL     1      -8.819  19.051  67.266  1.00  0.00    -0.281 C  
HETATM    2  O   UNL     1      -8.885  19.934  68.377  1.00  0.00    -0.286 OA 
ENDROOT
BRANCH   2   3
HETATM    3  C   UNL     1     -10.029  19.660  69.185  1.00  0.00    -0.339 C  
BRANCH   3   4
HETATM    4  C   UNL     1     -10.402  18.188  69.061  1.00  0.00    -0.135 C  
BRANCH   4   5
HETATM    5  C   UNL     1     -10.473  17.453  70.399  1.00  0.00     1.086 C  
BRANCH   5   6
HETATM    6  O   UNL     1     -11.714  16.764  70.517  1.00  0.00     0.248 OA 
BRANCH   6   7
HETATM    7  C   UNL     1     -11.896  15.554  69.894  1.00  0.00    -0.362 A  
HETATM    8  C   UNL     1     -12.001  14.442  70.758  1.00  0.00    -0.323 A  
HETATM    9  C   UNL     1     -12.037  13.153  70.220  1.00  0.00    -0.399 A  
HETATM   10  C   UNL     1     -11.827  15.358  68.509  1.00  0.00    -0.293 A  
HETATM   11  C   UNL     1     -11.780  14.057  67.974  1.00  0.00    -0.394 A  
HETATM   12  C   UNL     1     -11.906  12.968  68.841  1.00  0.00    -0.358 A  
BRANCH   8  13
HETATM   13  O   UNL     1     -12.046  14.724  72.103  1.00  0.00    -0.344 OA 
HETATM   14  C   UNL     1     -13.288  14.561  72.772  1.00  0.00    -0.507 C  
ENDBRANCH   8  13
BRANCH  11  15
HETATM   15  C   UNL     1     -11.380  13.827  66.531  1.00  0.00    -0.336 C  
HETATM   16  C   UNL     1      -9.894  13.826  66.089  1.00  0.00    -0.310 C  
HETATM   17  C   UNL     1      -9.798  13.343  64.592  1.00  0.00     0.021 C  
HETATM   18  C   UNL     1      -9.134  15.182  66.216  1.00  0.00    -0.313 C  
HETATM   19  C   UNL     1      -8.864  15.591  67.666  1.00  0.00    -0.185 C  
HETATM   20  C   UNL     1      -9.784  16.333  65.446  1.00  0.00     0.089 C  
BRANCH  17  21
HETATM   21  C   UNL     1     -10.274  11.901  64.323  1.00  0.00    -0.311 C  
HETATM   22  N   UNL     1     -10.487  11.773  62.876  1.00  0.00    -0.633 NA 
HETATM   23  H1  UNL     1     -10.801  10.820  62.698  1.00  0.00     0.000 HD 
HETATM   24  H2  UNL     1      -9.666  12.031  62.328  1.00  0.00     0.000 HD 
BRANCH  21  25
HETATM   25  C   UNL     1     -11.551  11.485  65.145  1.00  0.00     0.051 C  
HETATM   26  H   UNL     1     -13.472  11.112  64.817  1.00  0.00     0.000 HD 
HETATM   27  O   UNL     1     -12.701  11.362  64.321  1.00  0.00     0.150 OA 
BRANCH  25  28
HETATM   28  C   UNL     1     -11.252  10.162  65.879  1.00  0.00     0.952 C  
HETATM   29  C   UNL     1      -9.824   9.570  65.925  1.00  0.00    -0.360 C  
HETATM   30  C   UNL     1     -10.001   8.225  66.660  1.00  0.00    -0.278 C  
HETATM   31  C   UNL     1      -8.748  10.458  66.615  1.00  0.00    -0.141 C  
HETATM   32  C   UNL     1      -7.332   9.871  66.540  1.00  0.00    -0.099 C  
HETATM   33  O   UNL     1     -10.753   8.074  67.621  1.00  0.00    -0.216 OA 
HETATM   34  N   UNL     1      -9.240   7.187  66.168  1.00  0.00    -0.321 N  
HETATM   35  C   UNL     1      -9.100  10.826  68.061  1.00  0.00    -0.150 C  
HETATM   36  H   UNL     1      -8.559   7.363  65.430  1.00  0.00     0.000 HD 
BRANCH  34  37
HETATM   37  C   UNL     1      -9.402   5.844  66.695  1.00  0.00    -0.145 C  
BRANCH  37  38
HETATM   38  C   UNL     1      -8.219   5.376  67.559  1.00  0.00    -0.100 C  
HETATM   39  C   UNL     1      -7.538   4.161  66.892  1.00  0.00    -0.084 C  
HETATM   40  C   UNL     1      -7.187   6.503  67.731  1.00  0.00    -0.090 C  
BRANCH  38  41
HETATM   41  C   UNL     1      -8.747   4.943  68.934  1.00  0.00    -0.089 C  
HETATM   42  N   UNL     1      -9.654   3.929  68.963  1.00  0.00    -0.169 N  
HETATM   43  O   UNL     1      -8.391   5.454  69.993  1.00  0.00    -0.103 OA 
HETATM   44  H2  UNL     1      -9.969   3.474  68.106  1.00  0.00     0.000 HD 
HETATM   45  H1  UNL     1     -10.005   3.641  69.876  1.00  0.00     0.000 HD 
ENDBRANCH  38  41
ENDBRANCH  37  38
ENDBRANCH  34  37
ENDBRANCH  25  28
ENDBRANCH  21  25
ENDBRANCH  17  21
ENDBRANCH  11  15
ENDBRANCH   6   7
ENDBRANCH   5   6
ENDBRANCH   4   5
ENDBRANCH   3   4
ENDBRANCH   2   3
TORSDOF 13
ENDMDL
MODEL      159
REMARK 921   NORMALIZED FREE ENERGY PREDICTED BY IDOCK:   -2.31 KCAL/MOL
REMARK 922        TOTAL FREE ENERGY PREDICTED BY IDOCK:   -6.37 KCAL/MOL
REMARK 923 INTER-LIGAND FREE ENERGY PREDICTED BY IDOCK:   -7.42 KCAL/MOL
REMARK 924 INTRA-LIGAND FREE ENERGY PREDICTED BY IDOCK:    1.05 KCAL/MOL
REMARK 927      BINDING AFFINITY PREDICTED BY RF-SCORE:    0.00 PKD
ROOT
HETATM    1  C   UNL     1     -10.518  12.130  65.069  1.00  0.00    -0.290 C  
HETATM    2  O   UNL     1     -11.064  10.911  65.554  1.00  0.00    -0.039 OA 
ENDROOT
BRANCH   2   3
HETATM    3  C   UNL     1     -10.400  10.487  66.743  1.00  0.00    -0.245 C  
BRANCH   3   4
HETATM    4  C   UNL     1     -11.426  10.221  67.836  1.00  0.00    -0.030 C  
BRANCH   4   5
HETATM    5  C   UNL     1     -11.266   8.863  68.519  1.00  0.00     0.424 C  
BRANCH   5   6
HETATM    6  O   UNL     1     -11.111   9.034  69.925  1.00  0.00    -0.223 OA 
BRANCH   6   7
HETATM    7  C   UNL     1     -11.698  10.101  70.560  1.00  0.00    -0.322 A  
HETATM    8  C   UNL     1     -12.735   9.770  71.458  1.00  0.00    -0.406 A  
HETATM    9  C   UNL     1     -13.494  10.789  72.041  1.00  0.00    -0.296 A  
HETATM   10  C   UNL     1     -11.438  11.444  70.258  1.00  0.00    -0.244 A  
HETATM   11  C   UNL     1     -12.256  12.464  70.781  1.00  0.00    -0.336 A  
HETATM   12  C   UNL     1     -13.265  12.121  71.685  1.00  0.00    -0.358 A  
BRANCH   8  13
HETATM   13  O   UNL     1     -12.933   8.428  71.685  1.00  0.00    -0.323 OA 
HETATM   14  C   UNL     1     -14.269   7.947  71.683  1.00  0.00    -0.459 C  
ENDBRANCH   8  13
BRANCH  11  15
HETATM   15  C   UNL     1     -12.198  13.868  70.215  1.00  0.00    -0.428 C  
HETATM   16  C   UNL     1     -11.520  15.029  70.987  1.00  0.00    -0.344 C  
HETATM   17  C   UNL     1     -11.428  16.292  70.049  1.00  0.00    -0.218 C  
HETATM   18  C   UNL     1     -12.199  15.460  72.324  1.00  0.00    -0.475 C  
HETATM   19  C   UNL     1     -12.050  14.424  73.440  1.00  0.00     0.040 C  
HETATM   20  C   UNL     1     -13.663  15.877  72.170  1.00  0.00    -0.290 C  
BRANCH  17  21
HETATM   21  C   UNL     1     -10.562  16.124  68.784  1.00  0.00    -0.279 C  
HETATM   22  N   UNL     1     -10.572  17.408  68.073  1.00  0.00    -0.386 NA 
HETATM   23  H1  UNL     1     -10.000  17.296  67.236  1.00  0.00     0.000 HD 
HETATM   24  H2  UNL     1     -10.276  18.190  68.657  1.00  0.00     0.000 HD 
BRANCH  21  25
HETATM   25  C   UNL     1     -11.012  14.933  67.856  1.00  0.00    -0.286 C  
HETATM   26  H   UNL     1     -11.194  14.547  65.918  1.00  0.00     0.000 HD 
HETATM   27  O   UNL     1     -10.923  15.265  66.478  1.00  0.00    -0.315 OA 
BRANCH  25  28
HETATM   28  C   UNL     1     -10.145  13.701  68.185  1.00  0.00    -0.245 C  
HETATM   29  C   UNL     1      -8.692  13.576  67.669  1.00  0.00    -0.194 C  
HETATM   30  C   UNL     1      -8.247  12.176  68.141  1.00  0.00    -0.164 C  
HETATM   31  C   UNL     1      -7.707  14.680  68.152  1.00  0.00    -0.125 C  
HETATM   32  C   UNL     1      -6.310  14.567  67.527  1.00  0.00    -0.033 C  
HETATM   33  O   UNL     1      -8.545  11.707  69.239  1.00  0.00     0.218 OA 
HETATM   34  N   UNL     1      -7.471  11.476  67.244  1.00  0.00    -0.130 N  
HETATM   35  C   UNL     1      -7.605  14.777  69.678  1.00  0.00    -0.047 C  
HETATM   36  H   UNL     1      -7.165  11.925  66.381  1.00  0.00     0.000 HD 
BRANCH  34  37
HETATM   37  C   UNL     1      -7.086  10.104  67.519  1.00  0.00    -0.087 C  
BRANCH  37  38
HETATM   38  C   UNL     1      -6.175   9.493  66.442  1.00  0.00    -0.064 C  
HETATM   39  C   UNL     1      -5.398  10.616  65.722  1.00  0.00    -0.115 C  
HETATM   40  C   UNL     1      -5.174   8.506  67.067  1.00  0.00    -0.036 C  
BRANCH  38  41
HETATM   41  C   UNL     1      -7.045   8.764  65.408  1.00  0.00    -0.083 C  
HETATM   42  N   UNL     1      -6.823   9.045  64.096  1.00  0.00    -0.086 N  
HETATM   43  O   UNL     1      -7.913   7.946  65.704  1.00  0.00    -0.102 OA 
HETATM   44  H2  UNL     1      -6.107   9.713  63.810  1.00  0.00     0.000 HD 
HETATM   45  H1  UNL     1      -7.401   8.561  63.410  1.00  0.00     0.000 HD 
ENDBRANCH  38  41
ENDBRANCH  37  38
ENDBRANCH  34  37
ENDBRANCH  25  28
ENDBRANCH  21  25
ENDBRANCH  17  21
ENDBRANCH  11  15
ENDBRANCH   6   7
ENDBRANCH   5   6
ENDBRANCH   4   5
ENDBRANCH   3   4
ENDBRANCH   2   3
TORSDOF 13
ENDMDL
MODEL      160
REMARK 921   NORMALIZED FREE ENERGY PREDICTED BY IDOCK:   -2.25 KCAL/MOL
REMARK 922        TOTAL FREE ENERGY PREDICTED BY IDOCK:   -6.27 KCAL/MOL
REMARK 923 INTER-LIGAND FREE ENERGY PREDICTED BY IDOCK:   -6.62 KCAL/MOL
REMARK 924 INTRA-LIGAND FREE ENERGY PREDICTED BY IDOCK:    0.34 KCAL/MOL
REMARK 927      BINDING AFFINITY PREDICTED BY RF-SCORE:    0.00 PKD
ROOT
HETATM    1  C   UNL     1      -8.547  13.794  68.588  1.00  0.00    -0.057 C  
HETATM    2  O   UNL     1      -8.457  15.202  68.753  1.00  0.00    -0.159 OA 
ENDROOT
BRANCH   2   3
HETATM    3  C   UNL     1      -8.644  15.878  67.511  1.00  0.00    -0.168 C  
BRANCH   3   4
HETATM    4  C   UNL     1     -10.055  15.624  66.997  1.00  0.00    -0.253 C  
BRANCH   4   5
HETATM    5  C   UNL     1     -10.419  14.143  66.892  1.00  0.00    -0.272 C  
BRANCH   5   6
HETATM    6  O   UNL     1     -11.752  13.930  67.346  1.00  0.00    -0.345 OA 
BRANCH   6   7
HETATM    7  C   UNL     1     -12.003  13.033  68.356  1.00  0.00    -0.271 A  
HETATM    8  C   UNL     1     -12.145  13.600  69.641  1.00  0.00    -0.321 A  
HETATM    9  C   UNL     1     -12.254  12.762  70.754  1.00  0.00    -0.338 A  
HETATM   10  C   UNL     1     -11.969  11.642  68.206  1.00  0.00    -0.236 A  
HETATM   11  C   UNL     1     -11.996  10.801  69.335  1.00  0.00    -0.353 A  
HETATM   12  C   UNL     1     -12.158  11.376  70.598  1.00  0.00    -0.469 A  
BRANCH   8  13
HETATM   13  O   UNL     1     -12.152  14.973  69.699  1.00  0.00    -0.308 OA 
HETATM   14  C   UNL     1     -11.679  15.587  70.890  1.00  0.00    -0.375 C  
ENDBRANCH   8  13
BRANCH  11  15
HETATM   15  C   UNL     1     -11.634   9.335  69.217  1.00  0.00     0.450 C  
HETATM   16  C   UNL     1     -10.287   8.783  69.752  1.00  0.00    -0.214 C  
HETATM   17  C   UNL     1     -10.307   7.208  69.683  1.00  0.00    -0.224 C  
HETATM   18  C   UNL     1      -8.998   9.289  69.034  1.00  0.00    -0.140 C  
HETATM   19  C   UNL     1      -8.686  10.760  69.315  1.00  0.00    -0.044 C  
HETATM   20  C   UNL     1      -8.978   9.014  67.528  1.00  0.00    -0.131 C  
BRANCH  17  21
HETATM   21  C   UNL     1     -11.373   6.515  70.555  1.00  0.00    -0.367 C  
HETATM   22  N   UNL     1     -12.507   7.438  70.677  1.00  0.00    -0.567 NA 
HETATM   23  H1  UNL     1     -13.212   6.980  71.254  1.00  0.00     0.000 HD 
HETATM   24  H2  UNL     1     -12.869   7.747  69.775  1.00  0.00     0.000 HD 
BRANCH  21  25
HETATM   25  C   UNL     1     -10.841   6.045  71.962  1.00  0.00    -0.252 C  
HETATM   26  H   UNL     1     -11.565   5.278  73.642  1.00  0.00     0.000 HD 
HETATM   27  O   UNL     1     -11.885   5.561  72.794  1.00  0.00    -0.271 OA 
BRANCH  25  28
HETATM   28  C   UNL     1      -9.763   4.965  71.742  1.00  0.00    -0.223 C  
HETATM   29  C   UNL     1      -8.263   5.330  71.646  1.00  0.00    -0.118 C  
HETATM   30  C   UNL     1      -7.571   3.987  71.334  1.00  0.00    -0.063 C  
HETATM   31  C   UNL     1      -7.651   6.005  72.908  1.00  0.00    -0.102 C  
HETATM   32  C   UNL     1      -6.192   6.440  72.720  1.00  0.00    -0.054 C  
HETATM   33  O   UNL     1      -7.906   2.919  71.845  1.00  0.00    -0.052 OA 
HETATM   34  N   UNL     1      -6.528   4.062  70.437  1.00  0.00    -0.030 N  
HETATM   35  C   UNL     1      -7.800   5.163  74.180  1.00  0.00    -0.097 C  
HETATM   36  H   UNL     1      -6.215   4.972  70.099  1.00  0.00     0.000 HD 
BRANCH  34  37
HETATM   37  C   UNL     1      -5.871   2.855  69.970  1.00  0.00    -0.018 C  
BRANCH  37  38
HETATM   38  C   UNL     1      -6.190   2.509  68.506  1.00  0.00    -0.028 C  
HETATM   39  C   UNL     1      -5.140   1.511  67.969  1.00  0.00    -0.004 C  
HETATM   40  C   UNL     1      -7.590   1.885  68.383  1.00  0.00    -0.046 C  
BRANCH  38  41
HETATM   41  C   UNL     1      -6.117   3.790  67.665  1.00  0.00    -0.028 C  
HETATM   42  N   UNL     1      -6.982   3.901  66.620  1.00  0.00    -0.058 N  
HETATM   43  O   UNL     1      -5.335   4.710  67.891  1.00  0.00    -0.010 OA 
HETATM   44  H2  UNL     1      -7.651   3.163  66.405  1.00  0.00     0.000 HD 
HETATM   45  H1  UNL     1      -6.934   4.753  66.061  1.00  0.00     0.000 HD 
ENDBRANCH  38  41
ENDBRANCH  37  38
ENDBRANCH  34  37
ENDBRANCH  25  28
ENDBRANCH  21  25
ENDBRANCH  17  21
ENDBRANCH  11  15
ENDBRANCH   6   7
ENDBRANCH   5   6
ENDBRANCH   4   5
ENDBRANCH   3   4
ENDBRANCH   2   3
TORSDOF 13
ENDMDL
MODEL      161
REMARK 921   NORMALIZED FREE ENERGY PREDICTED BY IDOCK:   -2.14 KCAL/MOL
REMARK 922        TOTAL FREE ENERGY PREDICTED BY IDOCK:   -6.08 KCAL/MOL
REMARK 923 INTER-LIGAND FREE ENERGY PREDICTED BY IDOCK:   -5.64 KCAL/MOL
REMARK 924 INTRA-LIGAND FREE ENERGY PREDICTED BY IDOCK:   -0.44 KCAL/MOL
REMARK 927      BINDING AFFINITY PREDICTED BY RF-SCORE:    0.00 PKD
ROOT
HETATM    1  C   UNL     1     -11.252  11.031  66.048  1.00  0.00     0.120 C  
HETATM    2  O   UNL     1      -9.990  10.628  66.562  1.00  0.00    -0.200 OA 
ENDROOT
BRANCH   2   3
HETATM    3  C   UNL     1      -9.116  10.217  65.512  1.00  0.00    -0.178 C  
BRANCH   3   4
HETATM    4  C   UNL     1      -9.143   8.699  65.388  1.00  0.00    -0.150 C  
BRANCH   4   5
HETATM    5  C   UNL     1      -8.253   8.153  64.271  1.00  0.00    -0.091 C  
BRANCH   5   6
HETATM    6  O   UNL     1      -7.833   6.828  64.580  1.00  0.00    -0.107 OA 
BRANCH   6   7
HETATM    7  C   UNL     1      -8.059   6.305  65.831  1.00  0.00    -0.123 A  
HETATM    8  C   UNL     1      -8.859   5.143  65.861  1.00  0.00    -0.142 A  
HETATM    9  C   UNL     1      -9.269   4.621  67.090  1.00  0.00    -0.140 A  
HETATM   10  C   UNL     1      -7.684   6.927  67.028  1.00  0.00    -0.103 A  
HETATM   11  C   UNL     1      -8.166   6.448  68.261  1.00  0.00    -0.116 A  
HETATM   12  C   UNL     1      -8.940   5.285  68.276  1.00  0.00    -0.116 A  
BRANCH   8  13
HETATM   13  O   UNL     1      -9.194   4.608  64.640  1.00  0.00    -0.156 OA 
HETATM   14  C   UNL     1      -8.674   3.326  64.314  1.00  0.00    -0.093 C  
ENDBRANCH   8  13
BRANCH  11  15
HETATM   15  C   UNL     1      -8.044   7.286  69.518  1.00  0.00    -0.129 C  
HETATM   16  C   UNL     1      -6.704   7.407  70.288  1.00  0.00    -0.047 C  
HETATM   17  C   UNL     1      -6.845   8.512  71.404  1.00  0.00    -0.076 C  
HETATM   18  C   UNL     1      -6.169   6.103  70.955  1.00  0.00    -0.039 C  
HETATM   19  C   UNL     1      -5.675   5.065  69.945  1.00  0.00    -0.016 C  
HETATM   20  C   UNL     1      -7.148   5.465  71.944  1.00  0.00    -0.084 C  
BRANCH  17  21
HETATM   21  C   UNL     1      -7.120   9.942  70.897  1.00  0.00     0.149 C  
HETATM   22  N   UNL     1      -8.455   9.941  70.287  1.00  0.00    -0.311 NA 
HETATM   23  H1  UNL     1      -8.638  10.887  69.952  1.00  0.00     0.000 HD 
HETATM   24  H2  UNL     1      -9.180   9.594  70.915  1.00  0.00     0.000 HD 
BRANCH  21  25
HETATM   25  C   UNL     1      -6.023  10.493  69.910  1.00  0.00    -0.066 C  
HETATM   26  H   UNL     1      -4.576   9.784  68.753  1.00  0.00     0.000 HD 
HETATM   27  O   UNL     1      -5.238   9.452  69.348  1.00  0.00    -0.035 OA 
BRANCH  25  28
HETATM   28  C   UNL     1      -6.723  11.315  68.809  1.00  0.00    -0.070 C  
HETATM   29  C   UNL     1      -7.301  12.721  69.095  1.00  0.00     0.140 C  
HETATM   30  C   UNL     1      -7.979  13.123  67.770  1.00  0.00    -0.162 C  
HETATM   31  C   UNL     1      -6.271  13.793  69.555  1.00  0.00    -0.116 C  
HETATM   32  C   UNL     1      -6.913  15.136  69.926  1.00  0.00    -0.140 C  
HETATM   33  O   UNL     1      -7.501  12.876  66.664  1.00  0.00     0.317 OA 
HETATM   34  N   UNL     1      -9.172  13.798  67.906  1.00  0.00    -0.192 N  
HETATM   35  C   UNL     1      -5.126  14.003  68.558  1.00  0.00    -0.094 C  
HETATM   36  H   UNL     1      -9.499  14.068  68.833  1.00  0.00     0.000 HD 
BRANCH  34  37
HETATM   37  C   UNL     1      -9.967  14.128  66.737  1.00  0.00    -0.267 C  
BRANCH  37  38
HETATM   38  C   UNL     1     -10.158  15.640  66.529  1.00  0.00    -0.293 C  
HETATM   39  C   UNL     1     -11.030  16.214  67.667  1.00  0.00    -0.268 C  
HETATM   40  C   UNL     1      -8.802  16.365  66.516  1.00  0.00    -0.316 C  
BRANCH  38  41
HETATM   41  C   UNL     1     -10.883  15.872  65.196  1.00  0.00    -0.421 C  
HETATM   42  N   UNL     1     -11.475  14.795  64.612  1.00  0.00    -0.535 N  
HETATM   43  O   UNL     1     -10.961  16.967  64.645  1.00  0.00    -0.968 OA 
HETATM   44  H2  UNL     1     -11.438  13.871  65.042  1.00  0.00     0.000 HD 
HETATM   45  H1  UNL     1     -11.956  14.949  63.726  1.00  0.00     0.000 HD 
ENDBRANCH  38  41
ENDBRANCH  37  38
ENDBRANCH  34  37
ENDBRANCH  25  28
ENDBRANCH  21  25
ENDBRANCH  17  21
ENDBRANCH  11  15
ENDBRANCH   6   7
ENDBRANCH   5   6
ENDBRANCH   4   5
ENDBRANCH   3   4
ENDBRANCH   2   3
TORSDOF 13
ENDMDL
MODEL      162
REMARK 921   NORMALIZED FREE ENERGY PREDICTED BY IDOCK:   -2.02 KCAL/MOL
REMARK 922        TOTAL FREE ENERGY PREDICTED BY IDOCK:   -5.86 KCAL/MOL
REMARK 923 INTER-LIGAND FREE ENERGY PREDICTED BY IDOCK:   -5.90 KCAL/MOL
REMARK 924 INTRA-LIGAND FREE ENERGY PREDICTED BY IDOCK:    0.03 KCAL/MOL
REMARK 927      BINDING AFFINITY PREDICTED BY RF-SCORE:    0.00 PKD
ROOT
HETATM    1  C   UNL     1      -6.683   9.827  66.012  1.00  0.00    -0.087 C  
HETATM    2  O   UNL     1      -7.925   9.206  65.708  1.00  0.00    -0.100 OA 
ENDROOT
BRANCH   2   3
HETATM    3  C   UNL     1      -8.537   8.680  66.884  1.00  0.00    -0.120 C  
BRANCH   3   4
HETATM    4  C   UNL     1      -8.515   7.158  66.835  1.00  0.00    -0.123 C  
BRANCH   4   5
HETATM    5  C   UNL     1      -7.183   6.543  67.263  1.00  0.00    -0.078 C  
BRANCH   5   6
HETATM    6  O   UNL     1      -7.117   5.179  66.858  1.00  0.00    -0.069 OA 
BRANCH   6   7
HETATM    7  C   UNL     1      -7.841   4.223  67.529  1.00  0.00    -0.088 A  
HETATM    8  C   UNL     1      -8.530   3.304  66.708  1.00  0.00    -0.106 A  
HETATM    9  C   UNL     1      -9.410   2.388  67.289  1.00  0.00    -0.094 A  
HETATM   10  C   UNL     1      -8.045   4.212  68.914  1.00  0.00    -0.074 A  
HETATM   11  C   UNL     1      -8.993   3.345  69.489  1.00  0.00    -0.177 A  
HETATM   12  C   UNL     1      -9.652   2.427  68.666  1.00  0.00    -0.093 A  
BRANCH   8  13
HETATM   13  O   UNL     1      -8.283   3.396  65.359  1.00  0.00    -0.096 OA 
HETATM   14  C   UNL     1      -9.186   2.746  64.476  1.00  0.00    -0.133 C  
ENDBRANCH   8  13
BRANCH  11  15
HETATM   15  C   UNL     1      -9.459   3.544  70.917  1.00  0.00    -0.236 C  
HETATM   16  C   UNL     1      -8.517   4.114  72.008  1.00  0.00    -0.111 C  
HETATM   17  C   UNL     1      -9.351   4.407  73.313  1.00  0.00    -0.132 C  
HETATM   18  C   UNL     1      -7.293   3.228  72.397  1.00  0.00    -0.051 C  
HETATM   19  C   UNL     1      -6.230   3.148  71.299  1.00  0.00    -0.018 C  
HETATM   20  C   UNL     1      -7.671   1.826  72.881  1.00  0.00    -0.037 C  
BRANCH  17  21
HETATM   21  C   UNL     1     -10.456   5.473  73.174  1.00  0.00    -0.222 C  
HETATM   22  N   UNL     1     -11.090   5.278  71.864  1.00  0.00    -0.109 NA 
HETATM   23  H1  UNL     1     -11.821   5.983  71.772  1.00  0.00     0.000 HD 
HETATM   24  H2  UNL     1     -11.433   4.327  71.725  1.00  0.00     0.000 HD 
BRANCH  21  25
HETATM   25  C   UNL     1      -9.947   6.951  73.367  1.00  0.00    -0.236 C  
HETATM   26  H   UNL     1      -8.364   7.892  74.104  1.00  0.00     0.000 HD 
HETATM   27  O   UNL     1      -8.671   7.001  73.987  1.00  0.00    -0.144 OA 
BRANCH  25  28
HETATM   28  C   UNL     1      -9.921   7.644  71.990  1.00  0.00    -0.220 C  
HETATM   29  C   UNL     1      -8.880   8.739  71.658  1.00  0.00    -0.278 C  
HETATM   30  C   UNL     1      -9.274   9.212  70.243  1.00  0.00    -0.218 C  
HETATM   31  C   UNL     1      -7.390   8.292  71.714  1.00  0.00    -0.105 C  
HETATM   32  C   UNL     1      -6.399   9.441  71.479  1.00  0.00     0.015 C  
HETATM   33  O   UNL     1      -9.658   8.449  69.358  1.00  0.00    -0.168 OA 
HETATM   34  N   UNL     1      -9.156  10.567  70.027  1.00  0.00    -0.269 N  
HETATM   35  C   UNL     1      -7.073   7.114  70.786  1.00  0.00    -0.066 C  
HETATM   36  H   UNL     1      -8.751  11.162  70.749  1.00  0.00     0.000 HD 
BRANCH  34  37
HETATM   37  C   UNL     1      -9.607  11.154  68.778  1.00  0.00    -0.172 C  
BRANCH  37  38
HETATM   38  C   UNL     1     -11.042  11.704  68.839  1.00  0.00    -0.287 C  
HETATM   39  C   UNL     1     -11.886  11.076  67.709  1.00  0.00    -0.006 C  
HETATM   40  C   UNL     1     -11.693  11.385  70.195  1.00  0.00    -0.414 C  
BRANCH  38  41
HETATM   41  C   UNL     1     -11.001  13.224  68.628  1.00  0.00    -0.264 C  
HETATM   42  N   UNL     1     -11.128  14.011  69.730  1.00  0.00    -0.452 N  
HETATM   43  O   UNL     1     -10.854  13.756  67.530  1.00  0.00    -0.261 OA 
HETATM   44  H2  UNL     1     -11.244  13.608  70.659  1.00  0.00     0.000 HD 
HETATM   45  H1  UNL     1     -11.101  15.021  69.590  1.00  0.00     0.000 HD 
ENDBRANCH  38  41
ENDBRANCH  37  38
ENDBRANCH  34  37
ENDBRANCH  25  28
ENDBRANCH  21  25
ENDBRANCH  17  21
ENDBRANCH  11  15
ENDBRANCH   6   7
ENDBRANCH   5   6
ENDBRANCH   4   5
ENDBRANCH   3   4
ENDBRANCH   2   3
TORSDOF 13
ENDMDL
MODEL      163
REMARK 921   NORMALIZED FREE ENERGY PREDICTED BY IDOCK:   -1.91 KCAL/MOL
REMARK 922        TOTAL FREE ENERGY PREDICTED BY IDOCK:   -5.67 KCAL/MOL
REMARK 923 INTER-LIGAND FREE ENERGY PREDICTED BY IDOCK:   -5.37 KCAL/MOL
REMARK 924 INTRA-LIGAND FREE ENERGY PREDICTED BY IDOCK:   -0.29 KCAL/MOL
REMARK 927      BINDING AFFINITY PREDICTED BY RF-SCORE:    0.00 PKD
ROOT
HETATM    1  C   UNL     1      -7.867   6.441  64.535  1.00  0.00    -0.115 C  
HETATM    2  O   UNL     1      -6.953   5.651  65.284  1.00  0.00    -0.057 OA 
ENDROOT
BRANCH   2   3
HETATM    3  C   UNL     1      -7.138   5.842  66.686  1.00  0.00    -0.069 C  
BRANCH   3   4
HETATM    4  C   UNL     1      -6.479   7.145  67.116  1.00  0.00    -0.057 C  
BRANCH   4   5
HETATM    5  C   UNL     1      -7.430   8.123  67.806  1.00  0.00    -0.094 C  
BRANCH   5   6
HETATM    6  O   UNL     1      -7.090   9.464  67.466  1.00  0.00    -0.077 OA 
BRANCH   6   7
HETATM    7  C   UNL     1      -8.005  10.270  66.835  1.00  0.00    -0.112 A  
HETATM    8  C   UNL     1      -7.983  10.215  65.424  1.00  0.00    -0.144 A  
HETATM    9  C   UNL     1      -8.770  11.105  64.688  1.00  0.00     0.140 A  
HETATM   10  C   UNL     1      -8.810  11.214  67.485  1.00  0.00    -0.139 A  
HETATM   11  C   UNL     1      -9.538  12.163  66.742  1.00  0.00    -0.216 A  
HETATM   12  C   UNL     1      -9.522  12.082  65.347  1.00  0.00    -0.080 A  
BRANCH   8  13
HETATM   13  O   UNL     1      -7.153   9.271  64.869  1.00  0.00    -0.097 OA 
HETATM   14  C   UNL     1      -5.781   9.604  64.715  1.00  0.00    -0.074 C  
ENDBRANCH   8  13
BRANCH  11  15
HETATM   15  C   UNL     1     -10.142  13.377  67.418  1.00  0.00    -0.237 C  
HETATM   16  C   UNL     1     -11.676  13.594  67.482  1.00  0.00    -0.406 C  
HETATM   17  C   UNL     1     -11.989  14.812  68.432  1.00  0.00    -0.270 C  
HETATM   18  C   UNL     1     -12.397  13.837  66.120  1.00  0.00    -0.496 C  
HETATM   19  C   UNL     1     -12.453  12.591  65.234  1.00  0.00    -0.390 C  
HETATM   20  C   UNL     1     -11.852  15.031  65.333  1.00  0.00    -0.105 C  
BRANCH  17  21
HETATM   21  C   UNL     1     -11.571  14.634  69.906  1.00  0.00    -0.285 C  
HETATM   22  N   UNL     1     -10.122  14.395  69.924  1.00  0.00    -0.225 NA 
HETATM   23  H1  UNL     1      -9.846  14.278  70.898  1.00  0.00     0.000 HD 
HETATM   24  H2  UNL     1      -9.592  15.123  69.444  1.00  0.00     0.000 HD 
BRANCH  21  25
HETATM   25  C   UNL     1     -12.364  13.503  70.663  1.00  0.00    -0.358 C  
HETATM   26  H   UNL     1     -14.231  12.856  70.830  1.00  0.00     0.000 HD 
HETATM   27  O   UNL     1     -13.753  13.538  70.373  1.00  0.00     0.710 OA 
BRANCH  25  28
HETATM   28  C   UNL     1     -11.753  12.139  70.284  1.00  0.00    -0.240 C  
HETATM   29  C   UNL     1     -11.782  10.942  71.263  1.00  0.00     0.097 C  
HETATM   30  C   UNL     1     -10.993   9.839  70.527  1.00  0.00    -0.321 C  
HETATM   31  C   UNL     1     -13.197  10.446  71.681  1.00  0.00    -0.502 C  
HETATM   32  C   UNL     1     -13.165   9.329  72.733  1.00  0.00    -0.172 C  
HETATM   33  O   UNL     1     -11.082   9.637  69.317  1.00  0.00    -0.208 OA 
HETATM   34  N   UNL     1     -10.175   9.073  71.328  1.00  0.00    -0.286 N  
HETATM   35  C   UNL     1     -14.075  10.040  70.493  1.00  0.00     1.092 C  
HETATM   36  H   UNL     1     -10.190   9.203  72.339  1.00  0.00     0.000 HD 
BRANCH  34  37
HETATM   37  C   UNL     1      -9.292   8.080  70.742  1.00  0.00    -0.157 C  
BRANCH  37  38
HETATM   38  C   UNL     1      -9.352   6.713  71.443  1.00  0.00    -0.151 C  
HETATM   39  C   UNL     1      -8.751   5.631  70.520  1.00  0.00    -0.140 C  
HETATM   40  C   UNL     1      -8.570   6.742  72.766  1.00  0.00    -0.129 C  
BRANCH  38  41
HETATM   41  C   UNL     1     -10.821   6.358  71.716  1.00  0.00    -0.241 C  
HETATM   42  N   UNL     1     -11.175   6.116  73.006  1.00  0.00    -0.426 N  
HETATM   43  O   UNL     1     -11.680   6.291  70.839  1.00  0.00    -0.333 OA 
HETATM   44  H2  UNL     1     -10.493   6.168  73.763  1.00  0.00     0.000 HD 
HETATM   45  H1  UNL     1     -12.150   5.880  73.188  1.00  0.00     0.000 HD 
ENDBRANCH  38  41
ENDBRANCH  37  38
ENDBRANCH  34  37
ENDBRANCH  25  28
ENDBRANCH  21  25
ENDBRANCH  17  21
ENDBRANCH  11  15
ENDBRANCH   6   7
ENDBRANCH   5   6
ENDBRANCH   4   5
ENDBRANCH   3   4
ENDBRANCH   2   3
TORSDOF 13
ENDMDL
MODEL      164
REMARK 921   NORMALIZED FREE ENERGY PREDICTED BY IDOCK:   -1.81 KCAL/MOL
REMARK 922        TOTAL FREE ENERGY PREDICTED BY IDOCK:   -5.49 KCAL/MOL
REMARK 923 INTER-LIGAND FREE ENERGY PREDICTED BY IDOCK:   -4.06 KCAL/MOL
REMARK 924 INTRA-LIGAND FREE ENERGY PREDICTED BY IDOCK:   -1.43 KCAL/MOL
REMARK 927      BINDING AFFINITY PREDICTED BY RF-SCORE:    0.00 PKD
ROOT
HETATM    1  C   UNL     1      -8.698   9.427  65.074  1.00  0.00    -0.186 C  
HETATM    2  O   UNL     1      -8.315   8.634  63.960  1.00  0.00    -0.168 OA 
ENDROOT
BRANCH   2   3
HETATM    3  C   UNL     1      -7.408   7.604  64.350  1.00  0.00    -0.088 C  
BRANCH   3   4
HETATM    4  C   UNL     1      -8.038   6.755  65.446  1.00  0.00    -0.129 C  
BRANCH   4   5
HETATM    5  C   UNL     1      -7.349   6.885  66.804  1.00  0.00    -0.078 C  
BRANCH   5   6
HETATM    6  O   UNL     1      -8.251   6.535  67.849  1.00  0.00    -0.115 OA 
BRANCH   6   7
HETATM    7  C   UNL     1      -8.458   7.394  68.900  1.00  0.00    -0.129 A  
HETATM    8  C   UNL     1      -7.618   7.191  70.017  1.00  0.00    -0.091 A  
HETATM    9  C   UNL     1      -7.848   7.914  71.191  1.00  0.00    -0.086 A  
HETATM   10  C   UNL     1      -9.512   8.312  68.976  1.00  0.00    -0.155 A  
HETATM   11  C   UNL     1      -9.793   8.977  70.185  1.00  0.00    -0.213 A  
HETATM   12  C   UNL     1      -8.940   8.782  71.275  1.00  0.00    -0.295 A  
BRANCH   8  13
HETATM   13  O   UNL     1      -6.619   6.261  69.861  1.00  0.00    -0.044 OA 
HETATM   14  C   UNL     1      -5.579   6.238  70.828  1.00  0.00    -0.018 C  
ENDBRANCH   8  13
BRANCH  11  15
HETATM   15  C   UNL     1     -11.105   9.710  70.378  1.00  0.00    -0.346 C  
HETATM   16  C   UNL     1     -11.933   9.566  71.681  1.00  0.00    -0.474 C  
HETATM   17  C   UNL     1     -13.112  10.612  71.665  1.00  0.00    -0.555 C  
HETATM   18  C   UNL     1     -12.534   8.155  71.967  1.00  0.00    -0.375 C  
HETATM   19  C   UNL     1     -11.478   7.111  72.337  1.00  0.00    -0.303 C  
HETATM   20  C   UNL     1     -13.440   7.629  70.851  1.00  0.00     0.064 C  
BRANCH  17  21
HETATM   21  C   UNL     1     -12.689  12.095  71.648  1.00  0.00    -0.209 C  
HETATM   22  N   UNL     1     -13.326  12.745  72.800  1.00  0.00    -0.501 NA 
HETATM   23  H1  UNL     1     -13.047  13.726  72.788  1.00  0.00     0.000 HD 
HETATM   24  H2  UNL     1     -13.118  12.282  73.684  1.00  0.00     0.000 HD 
BRANCH  21  25
HETATM   25  C   UNL     1     -13.017  12.838  70.297  1.00  0.00     0.491 C  
HETATM   26  H   UNL     1     -14.198  14.295  69.653  1.00  0.00     0.000 HD 
HETATM   27  O   UNL     1     -14.000  13.848  70.468  1.00  0.00     0.573 OA 
BRANCH  25  28
HETATM   28  C   UNL     1     -11.709  13.428  69.733  1.00  0.00    -0.355 C  
HETATM   29  C   UNL     1     -11.463  14.955  69.696  1.00  0.00    -0.325 C  
HETATM   30  C   UNL     1     -10.105  15.097  68.979  1.00  0.00    -0.244 C  
HETATM   31  C   UNL     1     -11.456  15.671  71.077  1.00  0.00    -0.439 C  
HETATM   32  C   UNL     1     -11.313  17.195  70.973  1.00  0.00     1.122 C  
HETATM   33  O   UNL     1      -9.159  14.333  69.167  1.00  0.00    -0.012 OA 
HETATM   34  N   UNL     1     -10.012  16.159  68.108  1.00  0.00    -0.227 N  
HETATM   35  C   UNL     1     -10.419  15.101  72.052  1.00  0.00     1.434 C  
HETATM   36  H   UNL     1     -10.779  16.828  68.040  1.00  0.00     0.000 HD 
BRANCH  34  37
HETATM   37  C   UNL     1      -8.829  16.334  67.285  1.00  0.00    -0.188 C  
BRANCH  37  38
HETATM   38  C   UNL     1      -8.701  17.744  66.683  1.00  0.00    -0.281 C  
HETATM   39  C   UNL     1      -8.226  18.731  67.772  1.00  0.00    -0.285 C  
HETATM   40  C   UNL     1      -7.696  17.753  65.519  1.00  0.00     0.561 C  
BRANCH  38  41
HETATM   41  C   UNL     1     -10.079  18.198  66.182  1.00  0.00    -0.336 C  
HETATM   42  N   UNL     1     -10.714  19.167  66.894  1.00  0.00    -0.445 N  
HETATM   43  O   UNL     1     -10.623  17.742  65.179  1.00  0.00    -0.610 OA 
HETATM   44  H2  UNL     1     -10.292  19.576  67.728  1.00  0.00     0.000 HD 
HETATM   45  H1  UNL     1     -11.629  19.469  66.562  1.00  0.00     0.000 HD 
ENDBRANCH  38  41
ENDBRANCH  37  38
ENDBRANCH  34  37
ENDBRANCH  25  28
ENDBRANCH  21  25
ENDBRANCH  17  21
ENDBRANCH  11  15
ENDBRANCH   6   7
ENDBRANCH   5   6
ENDBRANCH   4   5
ENDBRANCH   3   4
ENDBRANCH   2   3
TORSDOF 13
ENDMDL
MODEL      165
REMARK 921   NORMALIZED FREE ENERGY PREDICTED BY IDOCK:   -1.80 KCAL/MOL
REMARK 922        TOTAL FREE ENERGY PREDICTED BY IDOCK:   -5.48 KCAL/MOL
REMARK 923 INTER-LIGAND FREE ENERGY PREDICTED BY IDOCK:   -3.65 KCAL/MOL
REMARK 924 INTRA-LIGAND FREE ENERGY PREDICTED BY IDOCK:   -1.83 KCAL/MOL
REMARK 927      BINDING AFFINITY PREDICTED BY RF-SCORE:    0.00 PKD
ROOT
HETATM    1  C   UNL     1     -10.519   5.441  66.564  1.00  0.00    -0.294 C  
HETATM    2  O   UNL     1      -9.242   6.041  66.392  1.00  0.00    -0.146 OA 
ENDROOT
BRANCH   2   3
HETATM    3  C   UNL     1      -9.261   7.411  66.791  1.00  0.00    -0.156 C  
BRANCH   3   4
HETATM    4  C   UNL     1      -8.095   8.148  66.145  1.00  0.00    -0.109 C  
BRANCH   4   5
HETATM    5  C   UNL     1      -7.566   9.318  66.973  1.00  0.00    -0.091 C  
BRANCH   5   6
HETATM    6  O   UNL     1      -7.070  10.343  66.118  1.00  0.00    -0.116 OA 
BRANCH   6   7
HETATM    7  C   UNL     1      -7.762  10.692  64.984  1.00  0.00     0.038 A  
HETATM    8  C   UNL     1      -7.127  10.364  63.766  1.00  0.00     0.019 A  
HETATM    9  C   UNL     1      -7.677  10.809  62.561  1.00  0.00    -0.126 A  
HETATM   10  C   UNL     1      -8.933  11.460  64.976  1.00  0.00     0.060 A  
HETATM   11  C   UNL     1      -9.440  11.976  63.768  1.00  0.00     0.027 A  
HETATM   12  C   UNL     1      -8.812  11.625  62.570  1.00  0.00     0.288 A  
BRANCH   8  13
HETATM   13  O   UNL     1      -5.975   9.622  63.867  1.00  0.00    -0.089 OA 
HETATM   14  C   UNL     1      -5.521   8.943  62.704  1.00  0.00    -0.078 C  
ENDBRANCH   8  13
BRANCH  11  15
HETATM   15  C   UNL     1     -10.496  13.062  63.774  1.00  0.00    -0.104 C  
HETATM   16  C   UNL     1     -11.522  13.193  64.929  1.00  0.00    -0.337 C  
HETATM   17  C   UNL     1     -12.330  14.536  64.756  1.00  0.00    -0.403 C  
HETATM   18  C   UNL     1     -12.543  12.024  65.084  1.00  0.00     0.393 C  
HETATM   19  C   UNL     1     -11.906  10.727  65.588  1.00  0.00     1.867 C  
HETATM   20  C   UNL     1     -13.378  11.759  63.829  1.00  0.00     0.331 C  
BRANCH  17  21
HETATM   21  C   UNL     1     -11.498  15.832  64.840  1.00  0.00    -0.193 C  
HETATM   22  N   UNL     1     -11.188  16.243  63.465  1.00  0.00    -0.406 NA 
HETATM   23  H1  UNL     1     -10.638  17.100  63.520  1.00  0.00     0.000 HD 
HETATM   24  H2  UNL     1     -12.018  16.339  62.881  1.00  0.00     0.000 HD 
BRANCH  21  25
HETATM   25  C   UNL     1     -10.200  15.702  65.723  1.00  0.00    -0.367 C  
HETATM   26  H   UNL     1      -8.754  16.869  66.418  1.00  0.00     0.000 HD 
HETATM   27  O   UNL     1      -9.537  16.948  65.886  1.00  0.00    -0.469 OA 
BRANCH  25  28
HETATM   28  C   UNL     1     -10.594  15.102  67.088  1.00  0.00    -0.295 C  
HETATM   29  C   UNL     1      -9.827  13.904  67.694  1.00  0.00    -0.236 C  
HETATM   30  C   UNL     1     -10.603  13.579  68.987  1.00  0.00    -0.098 C  
HETATM   31  C   UNL     1      -8.317  14.146  67.982  1.00  0.00    -0.160 C  
HETATM   32  C   UNL     1      -7.583  12.894  68.483  1.00  0.00    -0.120 C  
HETATM   33  O   UNL     1     -11.069  14.442  69.730  1.00  0.00    -0.233 OA 
HETATM   34  N   UNL     1     -10.735  12.237  69.268  1.00  0.00    -0.442 N  
HETATM   35  C   UNL     1      -8.059  15.329  68.921  1.00  0.00    -0.180 C  
HETATM   36  H   UNL     1     -10.262  11.548  68.684  1.00  0.00     0.000 HD 
BRANCH  34  37
HETATM   37  C   UNL     1     -11.543  11.797  70.391  1.00  0.00    -0.015 C  
BRANCH  37  38
HETATM   38  C   UNL     1     -11.771  10.277  70.426  1.00  0.00    -0.404 C  
HETATM   39  C   UNL     1     -11.768   9.719  68.986  1.00  0.00     0.312 C  
HETATM   40  C   UNL     1     -10.672   9.577  71.242  1.00  0.00    -0.386 C  
BRANCH  38  41
HETATM   41  C   UNL     1     -13.143   9.994  71.054  1.00  0.00    -0.356 C  
HETATM   42  N   UNL     1     -13.681   8.762  70.850  1.00  0.00    -0.463 N  
HETATM   43  O   UNL     1     -13.765  10.812  71.728  1.00  0.00    -0.110 OA 
HETATM   44  H2  UNL     1     -13.193   8.053  70.302  1.00  0.00     0.000 HD 
HETATM   45  H1  UNL     1     -14.593   8.574  71.267  1.00  0.00     0.000 HD 
ENDBRANCH  38  41
ENDBRANCH  37  38
ENDBRANCH  34  37
ENDBRANCH  25  28
ENDBRANCH  21  25
ENDBRANCH  17  21
ENDBRANCH  11  15
ENDBRANCH   6   7
ENDBRANCH   5   6
ENDBRANCH   4   5
ENDBRANCH   3   4
ENDBRANCH   2   3
TORSDOF 13
ENDMDL
MODEL      166
REMARK 921   NORMALIZED FREE ENERGY PREDICTED BY IDOCK:   -1.68 KCAL/MOL
REMARK 922        TOTAL FREE ENERGY PREDICTED BY IDOCK:   -5.27 KCAL/MOL
REMARK 923 INTER-LIGAND FREE ENERGY PREDICTED BY IDOCK:   -4.77 KCAL/MOL
REMARK 924 INTRA-LIGAND FREE ENERGY PREDICTED BY IDOCK:   -0.50 KCAL/MOL
REMARK 927      BINDING AFFINITY PREDICTED BY RF-SCORE:    0.00 PKD
ROOT
HETATM    1  C   UNL     1      -7.112   3.261  69.494  1.00  0.00    -0.041 C  
HETATM    2  O   UNL     1      -7.765   4.514  69.343  1.00  0.00    -0.055 OA 
ENDROOT
BRANCH   2   3
HETATM    3  C   UNL     1      -8.903   4.607  70.198  1.00  0.00    -0.086 C  
BRANCH   3   4
HETATM    4  C   UNL     1      -9.475   3.217  70.442  1.00  0.00    -0.227 C  
BRANCH   4   5
HETATM    5  C   UNL     1      -9.712   2.894  71.917  1.00  0.00    -0.157 C  
BRANCH   5   6
HETATM    6  O   UNL     1      -8.746   3.557  72.727  1.00  0.00    -0.085 OA 
BRANCH   6   7
HETATM    7  C   UNL     1      -8.914   4.879  73.060  1.00  0.00    -0.112 A  
HETATM    8  C   UNL     1     -10.153   5.196  73.657  1.00  0.00    -0.188 A  
HETATM    9  C   UNL     1     -10.480   6.533  73.896  1.00  0.00    -0.329 A  
HETATM   10  C   UNL     1      -8.025   5.902  72.710  1.00  0.00    -0.104 A  
HETATM   11  C   UNL     1      -8.390   7.252  72.875  1.00  0.00    -0.132 A  
HETATM   12  C   UNL     1      -9.611   7.549  73.487  1.00  0.00    -0.339 A  
BRANCH   8  13
HETATM   13  O   UNL     1     -10.971   4.132  73.953  1.00  0.00    -0.241 OA 
HETATM   14  C   UNL     1     -12.199   4.024  73.246  1.00  0.00     0.528 C  
ENDBRANCH   8  13
BRANCH  11  15
HETATM   15  C   UNL     1      -7.594   8.356  72.210  1.00  0.00    -0.146 C  
HETATM   16  C   UNL     1      -6.073   8.216  71.946  1.00  0.00    -0.045 C  
HETATM   17  C   UNL     1      -5.588   9.420  71.051  1.00  0.00    -0.056 C  
HETATM   18  C   UNL     1      -5.156   8.142  73.205  1.00  0.00    -0.041 C  
HETATM   19  C   UNL     1      -5.300   6.831  73.982  1.00  0.00    -0.046 C  
HETATM   20  C   UNL     1      -5.295   9.341  74.146  1.00  0.00    -0.121 C  
BRANCH  17  21
HETATM   21  C   UNL     1      -6.211   9.500  69.643  1.00  0.00    -0.040 C  
HETATM   22  N   UNL     1      -5.330  10.340  68.822  1.00  0.00    -0.038 NA 
HETATM   23  H1  UNL     1      -5.742  10.393  67.890  1.00  0.00     0.000 HD 
HETATM   24  H2  UNL     1      -4.363  10.016  68.813  1.00  0.00     0.000 HD 
BRANCH  21  25
HETATM   25  C   UNL     1      -7.699  10.017  69.629  1.00  0.00    -0.156 C  
HETATM   26  H   UNL     1      -8.677  11.717  69.338  1.00  0.00     0.000 HD 
HETATM   27  O   UNL     1      -7.780  11.406  69.345  1.00  0.00    -0.007 OA 
BRANCH  25  28
HETATM   28  C   UNL     1      -8.494   9.193  68.596  1.00  0.00    -0.127 C  
HETATM   29  C   UNL     1      -9.416   8.029  69.029  1.00  0.00    -0.151 C  
HETATM   30  C   UNL     1      -9.922   7.438  67.697  1.00  0.00    -0.167 C  
HETATM   31  C   UNL     1     -10.597   8.417  69.965  1.00  0.00    -0.235 C  
HETATM   32  C   UNL     1     -11.415   7.210  70.447  1.00  0.00    -0.317 C  
HETATM   33  O   UNL     1     -10.228   8.127  66.725  1.00  0.00    -0.280 OA 
HETATM   34  N   UNL     1     -10.021   6.065  67.667  1.00  0.00    -0.126 N  
HETATM   35  C   UNL     1     -11.520   9.485  69.368  1.00  0.00     0.119 C  
HETATM   36  H   UNL     1      -9.847   5.526  68.515  1.00  0.00     0.000 HD 
BRANCH  34  37
HETATM   37  C   UNL     1     -10.372   5.379  66.437  1.00  0.00    -0.247 C  
BRANCH  37  38
HETATM   38  C   UNL     1      -9.314   4.362  65.976  1.00  0.00    -0.160 C  
HETATM   39  C   UNL     1      -7.902   4.937  66.219  1.00  0.00    -0.096 C  
HETATM   40  C   UNL     1      -9.460   3.037  66.742  1.00  0.00    -0.056 C  
BRANCH  38  41
HETATM   41  C   UNL     1      -9.485   4.114  64.471  1.00  0.00    -0.165 C  
HETATM   42  N   UNL     1     -10.288   3.081  64.096  1.00  0.00    -0.361 N  
HETATM   43  O   UNL     1      -8.948   4.797  63.602  1.00  0.00    -0.140 OA 
HETATM   44  H2  UNL     1     -10.757   2.495  64.787  1.00  0.00     0.000 HD 
HETATM   45  H1  UNL     1     -10.401   2.915  63.097  1.00  0.00     0.000 HD 
ENDBRANCH  38  41
ENDBRANCH  37  38
ENDBRANCH  34  37
ENDBRANCH  25  28
ENDBRANCH  21  25
ENDBRANCH  17  21
ENDBRANCH  11  15
ENDBRANCH   6   7
ENDBRANCH   5   6
ENDBRANCH   4   5
ENDBRANCH   3   4
ENDBRANCH   2   3
TORSDOF 13
ENDMDL
MODEL      167
REMARK 921   NORMALIZED FREE ENERGY PREDICTED BY IDOCK:   -1.65 KCAL/MOL
REMARK 922        TOTAL FREE ENERGY PREDICTED BY IDOCK:   -5.21 KCAL/MOL
REMARK 923 INTER-LIGAND FREE ENERGY PREDICTED BY IDOCK:   -7.20 KCAL/MOL
REMARK 924 INTRA-LIGAND FREE ENERGY PREDICTED BY IDOCK:    2.00 KCAL/MOL
REMARK 927      BINDING AFFINITY PREDICTED BY RF-SCORE:    0.00 PKD
ROOT
HETATM    1  C   UNL     1      -6.685   7.983  62.340  1.00  0.00    -0.086 C  
HETATM    2  O   UNL     1      -6.640   9.286  62.906  1.00  0.00    -0.094 OA 
ENDROOT
BRANCH   2   3
HETATM    3  C   UNL     1      -7.820  10.024  62.592  1.00  0.00    -0.130 C  
BRANCH   3   4
HETATM    4  C   UNL     1      -8.676  10.176  63.842  1.00  0.00    -0.220 C  
BRANCH   4   5
HETATM    5  C   UNL     1      -8.587   8.990  64.802  1.00  0.00    -0.175 C  
BRANCH   5   6
HETATM    6  O   UNL     1      -7.776   9.325  65.924  1.00  0.00    -0.097 OA 
BRANCH   6   7
HETATM    7  C   UNL     1      -7.691  10.627  66.351  1.00  0.00    -0.141 A  
HETATM    8  C   UNL     1      -6.379  11.111  66.548  1.00  0.00    -0.132 A  
HETATM    9  C   UNL     1      -6.189  12.371  67.122  1.00  0.00    -0.085 A  
HETATM   10  C   UNL     1      -8.788  11.408  66.734  1.00  0.00    -0.179 A  
HETATM   11  C   UNL     1      -8.594  12.640  67.387  1.00  0.00    -0.189 A  
HETATM   12  C   UNL     1      -7.290  13.115  67.555  1.00  0.00    -0.153 A  
BRANCH   8  13
HETATM   13  O   UNL     1      -5.361  10.273  66.160  1.00  0.00    -0.047 OA 
HETATM   14  C   UNL     1      -5.508   8.886  66.427  1.00  0.00    -0.034 C  
ENDBRANCH   8  13
BRANCH  11  15
HETATM   15  C   UNL     1      -9.743  13.332  68.091  1.00  0.00    -0.227 C  
HETATM   16  C   UNL     1     -11.124  13.513  67.411  1.00  0.00    -0.300 C  
HETATM   17  C   UNL     1     -12.157  14.060  68.469  1.00  0.00    -0.329 C  
HETATM   18  C   UNL     1     -11.163  14.446  66.161  1.00  0.00    -0.336 C  
HETATM   19  C   UNL     1     -10.464  13.848  64.938  1.00  0.00    -0.446 C  
HETATM   20  C   UNL     1     -10.656  15.864  66.429  1.00  0.00    -0.298 C  
BRANCH  17  21
HETATM   21  C   UNL     1     -12.444  13.130  69.665  1.00  0.00     0.073 C  
HETATM   22  N   UNL     1     -11.425  13.404  70.686  1.00  0.00    -0.319 NA 
HETATM   23  H1  UNL     1     -11.615  12.789  71.477  1.00  0.00     0.000 HD 
HETATM   24  H2  UNL     1     -11.378  14.388  70.948  1.00  0.00     0.000 HD 
BRANCH  21  25
HETATM   25  C   UNL     1     -12.503  11.602  69.287  1.00  0.00     0.172 C  
HETATM   26  H   UNL     1     -12.022  10.430  67.760  1.00  0.00     0.000 HD 
HETATM   27  O   UNL     1     -11.985  11.351  67.988  1.00  0.00    -0.613 OA 
BRANCH  25  28
HETATM   28  C   UNL     1     -11.728  10.803  70.354  1.00  0.00    -0.445 C  
HETATM   29  C   UNL     1     -11.610   9.262  70.282  1.00  0.00    -0.151 C  
HETATM   30  C   UNL     1     -10.853   8.884  71.572  1.00  0.00    -0.326 C  
HETATM   31  C   UNL     1     -10.897   8.699  69.018  1.00  0.00    -0.043 C  
HETATM   32  C   UNL     1     -10.902   7.166  68.948  1.00  0.00    -0.160 C  
HETATM   33  O   UNL     1      -9.920   9.545  72.026  1.00  0.00     0.110 OA 
HETATM   34  N   UNL     1     -11.290   7.733  72.189  1.00  0.00    -0.282 N  
HETATM   35  C   UNL     1      -9.475   9.240  68.831  1.00  0.00    -0.154 C  
HETATM   36  H   UNL     1     -12.004   7.158  71.742  1.00  0.00     0.000 HD 
BRANCH  34  37
HETATM   37  C   UNL     1     -10.740   7.332  73.472  1.00  0.00    -0.321 C  
BRANCH  37  38
HETATM   38  C   UNL     1      -9.591   6.316  73.358  1.00  0.00    -0.157 C  
HETATM   39  C   UNL     1      -8.821   6.550  72.040  1.00  0.00    -0.133 C  
HETATM   40  C   UNL     1      -8.620   6.454  74.543  1.00  0.00    -0.153 C  
BRANCH  38  41
HETATM   41  C   UNL     1     -10.181   4.899  73.333  1.00  0.00    -0.173 C  
HETATM   42  N   UNL     1      -9.314   3.866  73.158  1.00  0.00    -0.108 N  
HETATM   43  O   UNL     1     -11.377   4.657  73.470  1.00  0.00    -0.321 OA 
HETATM   44  H2  UNL     1      -8.313   4.025  73.047  1.00  0.00     0.000 HD 
HETATM   45  H1  UNL     1      -9.705   2.924  73.140  1.00  0.00     0.000 HD 
ENDBRANCH  38  41
ENDBRANCH  37  38
ENDBRANCH  34  37
ENDBRANCH  25  28
ENDBRANCH  21  25
ENDBRANCH  17  21
ENDBRANCH  11  15
ENDBRANCH   6   7
ENDBRANCH   5   6
ENDBRANCH   4   5
ENDBRANCH   3   4
ENDBRANCH   2   3
TORSDOF 13
ENDMDL
MODEL      168
REMARK 921   NORMALIZED FREE ENERGY PREDICTED BY IDOCK:   -1.61 KCAL/MOL
REMARK 922        TOTAL FREE ENERGY PREDICTED BY IDOCK:   -5.14 KCAL/MOL
REMARK 923 INTER-LIGAND FREE ENERGY PREDICTED BY IDOCK:   -6.60 KCAL/MOL
REMARK 924 INTRA-LIGAND FREE ENERGY PREDICTED BY IDOCK:    1.46 KCAL/MOL
REMARK 927      BINDING AFFINITY PREDICTED BY RF-SCORE:    0.00 PKD
ROOT
HETATM    1  C   UNL     1     -10.198  18.868  67.743  1.00  0.00    -0.393 C  
HETATM    2  O   UNL     1      -9.548  17.715  67.226  1.00  0.00    -0.262 OA 
ENDROOT
BRANCH   2   3
HETATM    3  C   UNL     1     -10.496  16.773  66.724  1.00  0.00    -0.258 C  
BRANCH   3   4
HETATM    4  C   UNL     1     -11.086  15.975  67.878  1.00  0.00    -0.307 C  
BRANCH   4   5
HETATM    5  C   UNL     1     -11.545  14.570  67.490  1.00  0.00    -0.381 C  
BRANCH   5   6
HETATM    6  O   UNL     1     -10.972  14.192  66.242  1.00  0.00    -0.297 OA 
BRANCH   6   7
HETATM    7  C   UNL     1     -10.244  13.032  66.138  1.00  0.00    -0.284 A  
HETATM    8  C   UNL     1     -10.966  11.908  65.684  1.00  0.00    -0.304 A  
HETATM    9  C   UNL     1     -10.355  10.651  65.686  1.00  0.00    -0.285 A  
HETATM   10  C   UNL     1      -8.926  12.881  66.588  1.00  0.00    -0.141 A  
HETATM   11  C   UNL     1      -8.342  11.603  66.668  1.00  0.00    -0.154 A  
HETATM   12  C   UNL     1      -9.062  10.503  66.195  1.00  0.00    -0.184 A  
BRANCH   8  13
HETATM   13  O   UNL     1     -12.257  12.143  65.276  1.00  0.00    -0.484 OA 
HETATM   14  C   UNL     1     -12.537  12.063  63.886  1.00  0.00    -0.406 C  
ENDBRANCH   8  13
BRANCH  11  15
HETATM   15  C   UNL     1      -7.061  11.385  67.447  1.00  0.00    -0.114 C  
HETATM   16  C   UNL     1      -6.868  11.961  68.874  1.00  0.00    -0.103 C  
HETATM   17  C   UNL     1      -5.541  11.379  69.494  1.00  0.00    -0.058 C  
HETATM   18  C   UNL     1      -6.824  13.515  68.992  1.00  0.00    -0.107 C  
HETATM   19  C   UNL     1      -8.178  14.181  68.737  1.00  0.00    -0.074 C  
HETATM   20  C   UNL     1      -5.735  14.172  68.140  1.00  0.00    -0.128 C  
BRANCH  17  21
HETATM   21  C   UNL     1      -5.511   9.851  69.696  1.00  0.00    -0.037 C  
HETATM   22  N   UNL     1      -5.169   9.245  68.403  1.00  0.00    -0.034 NA 
HETATM   23  H1  UNL     1      -5.149   8.234  68.537  1.00  0.00     0.000 HD 
HETATM   24  H2  UNL     1      -4.303   9.612  68.008  1.00  0.00     0.000 HD 
BRANCH  21  25
HETATM   25  C   UNL     1      -6.845   9.258  70.289  1.00  0.00    -0.071 C  
HETATM   26  H   UNL     1      -8.509   9.915  71.147  1.00  0.00     0.000 HD 
HETATM   27  O   UNL     1      -7.705  10.272  70.789  1.00  0.00     0.002 OA 
BRANCH  25  28
HETATM   28  C   UNL     1      -7.545   8.432  69.190  1.00  0.00    -0.087 C  
HETATM   29  C   UNL     1      -6.849   7.223  68.524  1.00  0.00    -0.073 C  
HETATM   30  C   UNL     1      -7.848   6.766  67.441  1.00  0.00    -0.110 C  
HETATM   31  C   UNL     1      -6.470   6.053  69.478  1.00  0.00    -0.042 C  
HETATM   32  C   UNL     1      -5.689   4.928  68.784  1.00  0.00    -0.016 C  
HETATM   33  O   UNL     1      -9.067   6.749  67.610  1.00  0.00    -0.119 OA 
HETATM   34  N   UNL     1      -7.279   6.361  66.254  1.00  0.00    -0.071 N  
HETATM   35  C   UNL     1      -7.668   5.480  70.244  1.00  0.00    -0.085 C  
HETATM   36  H   UNL     1      -6.264   6.300  66.174  1.00  0.00     0.000 HD 
BRANCH  34  37
HETATM   37  C   UNL     1      -8.114   6.020  65.117  1.00  0.00    -0.132 C  
BRANCH  37  38
HETATM   38  C   UNL     1      -8.399   4.514  64.992  1.00  0.00    -0.124 C  
HETATM   39  C   UNL     1      -7.167   3.801  64.393  1.00  0.00    -0.059 C  
HETATM   40  C   UNL     1      -8.719   3.902  66.366  1.00  0.00    -0.115 C  
BRANCH  38  41
HETATM   41  C   UNL     1      -9.588   4.309  64.043  1.00  0.00    -0.107 C  
HETATM   42  N   UNL     1      -9.544   4.943  62.841  1.00  0.00    -0.355 N  
HETATM   43  O   UNL     1     -10.559   3.604  64.310  1.00  0.00    -0.242 OA 
HETATM   44  H2  UNL     1      -8.753   5.532  62.580  1.00  0.00     0.000 HD 
HETATM   45  H1  UNL     1     -10.334   4.808  62.211  1.00  0.00     0.000 HD 
ENDBRANCH  38  41
ENDBRANCH  37  38
ENDBRANCH  34  37
ENDBRANCH  25  28
ENDBRANCH  21  25
ENDBRANCH  17  21
ENDBRANCH  11  15
ENDBRANCH   6   7
ENDBRANCH   5   6
ENDBRANCH   4   5
ENDBRANCH   3   4
ENDBRANCH   2   3
TORSDOF 13
ENDMDL
MODEL      169
REMARK 921   NORMALIZED FREE ENERGY PREDICTED BY IDOCK:   -1.59 KCAL/MOL
REMARK 922        TOTAL FREE ENERGY PREDICTED BY IDOCK:   -5.11 KCAL/MOL
REMARK 923 INTER-LIGAND FREE ENERGY PREDICTED BY IDOCK:   -5.17 KCAL/MOL
REMARK 924 INTRA-LIGAND FREE ENERGY PREDICTED BY IDOCK:    0.05 KCAL/MOL
REMARK 927      BINDING AFFINITY PREDICTED BY RF-SCORE:    0.00 PKD
ROOT
HETATM    1  C   UNL     1     -11.405   4.828  64.775  1.00  0.00     0.817 C  
HETATM    2  O   UNL     1     -10.186   4.905  65.501  1.00  0.00    -0.145 OA 
ENDROOT
BRANCH   2   3
HETATM    3  C   UNL     1      -9.246   5.749  64.838  1.00  0.00     0.385 C  
BRANCH   3   4
HETATM    4  C   UNL     1      -7.899   5.044  64.749  1.00  0.00    -0.092 C  
BRANCH   4   5
HETATM    5  C   UNL     1      -8.003   3.534  64.538  1.00  0.00    -0.086 C  
BRANCH   5   6
HETATM    6  O   UNL     1      -7.721   2.846  65.753  1.00  0.00    -0.079 OA 
BRANCH   6   7
HETATM    7  C   UNL     1      -7.160   3.517  66.812  1.00  0.00    -0.059 A  
HETATM    8  C   UNL     1      -6.171   2.801  67.521  1.00  0.00    -0.028 A  
HETATM    9  C   UNL     1      -5.646   3.336  68.701  1.00  0.00    -0.021 A  
HETATM   10  C   UNL     1      -7.609   4.752  67.295  1.00  0.00    -0.086 A  
HETATM   11  C   UNL     1      -7.140   5.250  68.526  1.00  0.00    -0.062 A  
HETATM   12  C   UNL     1      -6.146   4.540  69.205  1.00  0.00    -0.026 A  
BRANCH   8  13
HETATM   13  O   UNL     1      -5.800   1.591  66.985  1.00  0.00    -0.018 OA 
HETATM   14  C   UNL     1      -5.164   1.596  65.715  1.00  0.00    -0.005 C  
ENDBRANCH   8  13
BRANCH  11  15
HETATM   15  C   UNL     1      -7.845   6.402  69.214  1.00  0.00    -0.106 C  
HETATM   16  C   UNL     1      -8.674   6.192  70.507  1.00  0.00    -0.142 C  
HETATM   17  C   UNL     1      -9.087   7.597  71.092  1.00  0.00    -0.152 C  
HETATM   18  C   UNL     1      -9.961   5.321  70.371  1.00  0.00    -0.303 C  
HETATM   19  C   UNL     1      -9.665   3.838  70.134  1.00  0.00    -0.217 C  
HETATM   20  C   UNL     1     -10.956   5.842  69.332  1.00  0.00    -0.421 C  
BRANCH  17  21
HETATM   21  C   UNL     1      -7.922   8.506  71.532  1.00  0.00    -0.133 C  
HETATM   22  N   UNL     1      -7.899   8.507  73.000  1.00  0.00    -0.374 NA 
HETATM   23  H1  UNL     1      -7.129   9.108  73.292  1.00  0.00     0.000 HD 
HETATM   24  H2  UNL     1      -7.846   7.570  73.399  1.00  0.00     0.000 HD 
BRANCH  21  25
HETATM   25  C   UNL     1      -7.992   9.965  70.944  1.00  0.00     0.631 C  
HETATM   26  H   UNL     1      -6.760  11.320  70.181  1.00  0.00     0.000 HD 
HETATM   27  O   UNL     1      -6.717  10.440  70.536  1.00  0.00    -0.265 OA 
BRANCH  25  28
HETATM   28  C   UNL     1      -8.987   9.971  69.765  1.00  0.00    -0.209 C  
HETATM   29  C   UNL     1      -8.653  10.677  68.430  1.00  0.00    -0.134 C  
HETATM   30  C   UNL     1      -9.939  10.520  67.592  1.00  0.00    -0.173 C  
HETATM   31  C   UNL     1      -7.409  10.130  67.672  1.00  0.00    -0.089 C  
HETATM   32  C   UNL     1      -7.062  10.934  66.410  1.00  0.00    -0.133 C  
HETATM   33  O   UNL     1     -10.619   9.495  67.584  1.00  0.00    -0.248 OA 
HETATM   34  N   UNL     1     -10.277  11.616  66.830  1.00  0.00    -0.211 N  
HETATM   35  C   UNL     1      -7.504   8.636  67.346  1.00  0.00    -0.089 C  
HETATM   36  H   UNL     1      -9.647  12.417  66.787  1.00  0.00     0.000 HD 
BRANCH  34  37
HETATM   37  C   UNL     1     -11.525  11.639  66.089  1.00  0.00    -0.127 C  
BRANCH  37  38
HETATM   38  C   UNL     1     -11.460  12.475  64.800  1.00  0.00    -0.369 C  
HETATM   39  C   UNL     1     -10.051  13.089  64.652  1.00  0.00    -0.253 C  
HETATM   40  C   UNL     1     -11.765  11.607  63.569  1.00  0.00    -0.384 C  
BRANCH  38  41
HETATM   41  C   UNL     1     -12.480  13.618  64.896  1.00  0.00    -0.384 C  
HETATM   42  N   UNL     1     -12.368  14.633  63.997  1.00  0.00    -0.999 N  
HETATM   43  O   UNL     1     -13.385  13.655  65.726  1.00  0.00    -0.381 OA 
HETATM   44  H2  UNL     1     -11.635  14.634  63.288  1.00  0.00     0.000 HD 
HETATM   45  H1  UNL     1     -13.045  15.391  64.060  1.00  0.00     0.000 HD 
ENDBRANCH  38  41
ENDBRANCH  37  38
ENDBRANCH  34  37
ENDBRANCH  25  28
ENDBRANCH  21  25
ENDBRANCH  17  21
ENDBRANCH  11  15
ENDBRANCH   6   7
ENDBRANCH   5   6
ENDBRANCH   4   5
ENDBRANCH   3   4
ENDBRANCH   2   3
TORSDOF 13
ENDMDL
MODEL      170
REMARK 921   NORMALIZED FREE ENERGY PREDICTED BY IDOCK:   -1.50 KCAL/MOL
REMARK 922        TOTAL FREE ENERGY PREDICTED BY IDOCK:   -4.95 KCAL/MOL
REMARK 923 INTER-LIGAND FREE ENERGY PREDICTED BY IDOCK:   -6.76 KCAL/MOL
REMARK 924 INTRA-LIGAND FREE ENERGY PREDICTED BY IDOCK:    1.82 KCAL/MOL
REMARK 927      BINDING AFFINITY PREDICTED BY RF-SCORE:    0.00 PKD
ROOT
HETATM    1  C   UNL     1      -6.424  14.823  69.057  1.00  0.00    -0.096 C  
HETATM    2  O   UNL     1      -5.220  15.497  68.717  1.00  0.00    -0.097 OA 
ENDROOT
BRANCH   2   3
HETATM    3  C   UNL     1      -5.158  16.780  69.338  1.00  0.00    -0.132 C  
BRANCH   3   4
HETATM    4  C   UNL     1      -6.137  17.727  68.656  1.00  0.00    -0.192 C  
BRANCH   4   5
HETATM    5  C   UNL     1      -7.156  18.355  69.607  1.00  0.00     0.184 C  
BRANCH   5   6
HETATM    6  O   UNL     1      -8.459  18.303  69.035  1.00  0.00    -0.182 OA 
BRANCH   6   7
HETATM    7  C   UNL     1      -8.763  17.353  68.091  1.00  0.00    -0.256 A  
HETATM    8  C   UNL     1      -8.526  17.738  66.753  1.00  0.00    -0.248 A  
HETATM    9  C   UNL     1      -8.940  16.901  65.713  1.00  0.00     0.096 A  
HETATM   10  C   UNL     1      -9.410  16.142  68.366  1.00  0.00    -0.206 A  
HETATM   11  C   UNL     1      -9.900  15.341  67.316  1.00  0.00    -0.220 A  
HETATM   12  C   UNL     1      -9.639  15.725  65.998  1.00  0.00    -0.388 A  
BRANCH   8  13
HETATM   13  O   UNL     1      -7.901  18.948  66.574  1.00  0.00    -0.247 OA 
HETATM   14  C   UNL     1      -8.648  19.997  65.975  1.00  0.00    -0.204 C  
ENDBRANCH   8  13
BRANCH  11  15
HETATM   15  C   UNL     1     -10.874  14.215  67.593  1.00  0.00    -0.266 C  
HETATM   16  C   UNL     1     -10.972  12.977  66.665  1.00  0.00    -0.301 C  
HETATM   17  C   UNL     1     -11.903  11.897  67.337  1.00  0.00    -0.239 C  
HETATM   18  C   UNL     1     -11.489  13.237  65.217  1.00  0.00    -0.319 C  
HETATM   19  C   UNL     1     -10.492  14.005  64.347  1.00  0.00    -0.112 C  
HETATM   20  C   UNL     1     -12.869  13.895  65.160  1.00  0.00    -0.383 C  
BRANCH  17  21
HETATM   21  C   UNL     1     -11.403  11.325  68.679  1.00  0.00    -0.273 C  
HETATM   22  N   UNL     1     -11.419  12.421  69.655  1.00  0.00    -0.451 NA 
HETATM   23  H1  UNL     1     -11.088  12.043  70.542  1.00  0.00     0.000 HD 
HETATM   24  H2  UNL     1     -12.329  12.876  69.729  1.00  0.00     0.000 HD 
BRANCH  21  25
HETATM   25  C   UNL     1      -9.990  10.633  68.592  1.00  0.00    -0.181 C  
HETATM   26  H   UNL     1      -8.562  10.015  69.822  1.00  0.00     0.000 HD 
HETATM   27  O   UNL     1      -9.414  10.431  69.875  1.00  0.00    -0.111 OA 
BRANCH  25  28
HETATM   28  C   UNL     1     -10.145   9.296  67.839  1.00  0.00    -0.246 C  
HETATM   29  C   UNL     1      -9.430   8.012  68.320  1.00  0.00    -0.147 C  
HETATM   30  C   UNL     1      -9.777   6.965  67.242  1.00  0.00    -0.146 C  
HETATM   31  C   UNL     1      -9.822   7.515  69.742  1.00  0.00    -0.180 C  
HETATM   32  C   UNL     1      -9.008   6.300  70.210  1.00  0.00    -0.154 C  
HETATM   33  O   UNL     1     -10.884   6.883  66.711  1.00  0.00    -0.321 OA 
HETATM   34  N   UNL     1      -8.753   6.104  66.912  1.00  0.00    -0.109 N  
HETATM   35  C   UNL     1     -11.323   7.247  69.901  1.00  0.00    -0.145 C  
HETATM   36  H   UNL     1      -7.877   6.137  67.432  1.00  0.00     0.000 HD 
BRANCH  34  37
HETATM   37  C   UNL     1      -8.914   5.151  65.829  1.00  0.00    -0.152 C  
BRANCH  37  38
HETATM   38  C   UNL     1      -8.233   3.798  66.095  1.00  0.00    -0.101 C  
HETATM   39  C   UNL     1      -9.307   2.716  66.341  1.00  0.00    -0.000 C  
HETATM   40  C   UNL     1      -7.359   3.381  64.900  1.00  0.00    -0.071 C  
BRANCH  38  41
HETATM   41  C   UNL     1      -7.365   3.916  67.356  1.00  0.00    -0.068 C  
HETATM   42  N   UNL     1      -7.939   3.581  68.543  1.00  0.00    -0.065 N  
HETATM   43  O   UNL     1      -6.193   4.286  67.344  1.00  0.00    -0.033 OA 
HETATM   44  H2  UNL     1      -8.907   3.264  68.593  1.00  0.00     0.000 HD 
HETATM   45  H1  UNL     1      -7.363   3.660  69.380  1.00  0.00     0.000 HD 
ENDBRANCH  38  41
ENDBRANCH  37  38
ENDBRANCH  34  37
ENDBRANCH  25  28
ENDBRANCH  21  25
ENDBRANCH  17  21
ENDBRANCH  11  15
ENDBRANCH   6   7
ENDBRANCH   5   6
ENDBRANCH   4   5
ENDBRANCH   3   4
ENDBRANCH   2   3
TORSDOF 13
ENDMDL
MODEL      171
REMARK 921   NORMALIZED FREE ENERGY PREDICTED BY IDOCK:   -1.35 KCAL/MOL
REMARK 922        TOTAL FREE ENERGY PREDICTED BY IDOCK:   -4.69 KCAL/MOL
REMARK 923 INTER-LIGAND FREE ENERGY PREDICTED BY IDOCK:   -2.19 KCAL/MOL
REMARK 924 INTRA-LIGAND FREE ENERGY PREDICTED BY IDOCK:   -2.49 KCAL/MOL
REMARK 927      BINDING AFFINITY PREDICTED BY RF-SCORE:    0.00 PKD
ROOT
HETATM    1  C   UNL     1     -12.507  14.514  64.513  1.00  0.00    -0.324 C  
HETATM    2  O   UNL     1     -12.207  13.968  65.790  1.00  0.00    -0.404 OA 
ENDROOT
BRANCH   2   3
HETATM    3  C   UNL     1     -10.823  14.123  66.103  1.00  0.00    -0.296 C  
BRANCH   3   4
HETATM    4  C   UNL     1     -10.348  12.935  66.928  1.00  0.00    -0.247 C  
BRANCH   4   5
HETATM    5  C   UNL     1     -11.465  12.227  67.694  1.00  0.00    -0.336 C  
BRANCH   5   6
HETATM    6  O   UNL     1     -11.416  12.578  69.074  1.00  0.00    -0.264 OA 
BRANCH   6   7
HETATM    7  C   UNL     1     -11.547  11.610  70.039  1.00  0.00    -0.255 A  
HETATM    8  C   UNL     1     -12.736  11.675  70.798  1.00  0.00    -0.201 A  
HETATM    9  C   UNL     1     -12.897  10.830  71.899  1.00  0.00    -0.460 A  
HETATM   10  C   UNL     1     -10.541  10.703  70.394  1.00  0.00     0.175 A  
HETATM   11  C   UNL     1     -10.669   9.911  71.551  1.00  0.00     0.283 A  
HETATM   12  C   UNL     1     -11.860   9.973  72.279  1.00  0.00     0.823 A  
BRANCH   8  13
HETATM   13  O   UNL     1     -13.663  12.604  70.390  1.00  0.00     1.503 OA 
HETATM   14  C   UNL     1     -14.112  13.555  71.345  1.00  0.00     0.431 C  
ENDBRANCH   8  13
BRANCH  11  15
HETATM   15  C   UNL     1      -9.473   9.180  72.124  1.00  0.00     0.301 C  
HETATM   16  C   UNL     1      -9.080   7.759  71.642  1.00  0.00    -0.163 C  
HETATM   17  C   UNL     1      -7.683   7.370  72.258  1.00  0.00    -0.098 C  
HETATM   18  C   UNL     1     -10.092   6.616  71.962  1.00  0.00    -0.198 C  
HETATM   19  C   UNL     1     -11.384   6.705  71.146  1.00  0.00    -0.355 C  
HETATM   20  C   UNL     1     -10.408   6.465  73.451  1.00  0.00    -0.267 C  
BRANCH  17  21
HETATM   21  C   UNL     1      -6.495   8.256  71.832  1.00  0.00    -0.061 C  
HETATM   22  N   UNL     1      -6.102   9.052  73.001  1.00  0.00    -0.286 NA 
HETATM   23  H1  UNL     1      -5.316   9.638  72.720  1.00  0.00     0.000 HD 
HETATM   24  H2  UNL     1      -5.900   8.482  73.823  1.00  0.00     0.000 HD 
BRANCH  21  25
HETATM   25  C   UNL     1      -6.789   9.160  70.576  1.00  0.00    -0.074 C  
HETATM   26  H   UNL     1      -6.172  10.881  69.808  1.00  0.00     0.000 HD 
HETATM   27  O   UNL     1      -5.994  10.336  70.565  1.00  0.00    -0.083 OA 
BRANCH  25  28
HETATM   28  C   UNL     1      -6.553   8.321  69.304  1.00  0.00    -0.039 C  
HETATM   29  C   UNL     1      -7.666   8.127  68.247  1.00  0.00    -0.114 C  
HETATM   30  C   UNL     1      -7.041   7.162  67.218  1.00  0.00    -0.084 C  
HETATM   31  C   UNL     1      -8.185   9.427  67.567  1.00  0.00    -0.117 C  
HETATM   32  C   UNL     1      -9.358   9.187  66.607  1.00  0.00    -0.228 C  
HETATM   33  O   UNL     1      -5.866   7.227  66.859  1.00  0.00    -0.028 OA 
HETATM   34  N   UNL     1      -7.900   6.213  66.710  1.00  0.00    -0.103 N  
HETATM   35  C   UNL     1      -7.080  10.231  66.872  1.00  0.00    -0.092 C  
HETATM   36  H   UNL     1      -8.889   6.240  66.957  1.00  0.00     0.000 HD 
BRANCH  34  37
HETATM   37  C   UNL     1      -7.407   5.175  65.823  1.00  0.00    -0.077 C  
BRANCH  37  38
HETATM   38  C   UNL     1      -7.283   3.798  66.498  1.00  0.00    -0.068 C  
HETATM   39  C   UNL     1      -5.804   3.355  66.506  1.00  0.00    -0.023 C  
HETATM   40  C   UNL     1      -7.804   3.849  67.944  1.00  0.00    -0.074 C  
BRANCH  38  41
HETATM   41  C   UNL     1      -8.093   2.774  65.691  1.00  0.00    -0.087 C  
HETATM   42  N   UNL     1      -7.536   1.548  65.500  1.00  0.00    -0.059 N  
HETATM   43  O   UNL     1      -9.206   3.002  65.223  1.00  0.00    -0.146 OA 
HETATM   44  H2  UNL     1      -6.617   1.318  65.878  1.00  0.00     0.000 HD 
HETATM   45  H1  UNL     1      -8.074   0.868  64.964  1.00  0.00     0.000 HD 
ENDBRANCH  38  41
ENDBRANCH  37  38
ENDBRANCH  34  37
ENDBRANCH  25  28
ENDBRANCH  21  25
ENDBRANCH  17  21
ENDBRANCH  11  15
ENDBRANCH   6   7
ENDBRANCH   5   6
ENDBRANCH   4   5
ENDBRANCH   3   4
ENDBRANCH   2   3
TORSDOF 13
ENDMDL
MODEL      172
REMARK 921   NORMALIZED FREE ENERGY PREDICTED BY IDOCK:   -1.32 KCAL/MOL
REMARK 922        TOTAL FREE ENERGY PREDICTED BY IDOCK:   -4.63 KCAL/MOL
REMARK 923 INTER-LIGAND FREE ENERGY PREDICTED BY IDOCK:   -6.52 KCAL/MOL
REMARK 924 INTRA-LIGAND FREE ENERGY PREDICTED BY IDOCK:    1.89 KCAL/MOL
REMARK 927      BINDING AFFINITY PREDICTED BY RF-SCORE:    0.00 PKD
ROOT
HETATM    1  C   UNL     1     -12.115  15.228  70.401  1.00  0.00    -0.348 C  
HETATM    2  O   UNL     1     -10.724  15.459  70.225  1.00  0.00    -0.295 OA 
ENDROOT
BRANCH   2   3
HETATM    3  C   UNL     1     -10.437  15.874  68.891  1.00  0.00    -0.233 C  
BRANCH   3   4
HETATM    4  C   UNL     1     -10.769  14.748  67.921  1.00  0.00    -0.259 C  
BRANCH   4   5
HETATM    5  C   UNL     1     -10.901  15.200  66.467  1.00  0.00    -0.317 C  
BRANCH   5   6
HETATM    6  O   UNL     1      -9.924  14.552  65.659  1.00  0.00    -0.330 OA 
BRANCH   6   7
HETATM    7  C   UNL     1      -9.763  13.190  65.729  1.00  0.00    -0.138 A  
HETATM    8  C   UNL     1     -10.760  12.432  65.078  1.00  0.00    -0.294 A  
HETATM    9  C   UNL     1     -10.769  11.041  65.216  1.00  0.00    -0.234 A  
HETATM   10  C   UNL     1      -8.793  12.546  66.508  1.00  0.00    -0.090 A  
HETATM   11  C   UNL     1      -8.852  11.154  66.714  1.00  0.00    -0.162 A  
HETATM   12  C   UNL     1      -9.833  10.416  66.046  1.00  0.00    -0.289 A  
BRANCH   8  13
HETATM   13  O   UNL     1     -11.681  13.145  64.348  1.00  0.00    -0.344 OA 
HETATM   14  C   UNL     1     -13.031  13.128  64.789  1.00  0.00    -0.104 C  
ENDBRANCH   8  13
BRANCH  11  15
HETATM   15  C   UNL     1      -8.025  10.497  67.799  1.00  0.00    -0.106 C  
HETATM   16  C   UNL     1      -7.744  11.205  69.150  1.00  0.00    -0.076 C  
HETATM   17  C   UNL     1      -7.057  10.187  70.137  1.00  0.00    -0.162 C  
HETATM   18  C   UNL     1      -6.867  12.494  69.086  1.00  0.00    -0.062 C  
HETATM   19  C   UNL     1      -7.580  13.680  68.433  1.00  0.00    -0.132 C  
HETATM   20  C   UNL     1      -5.493  12.278  68.449  1.00  0.00    -0.055 C  
BRANCH  17  21
HETATM   21  C   UNL     1      -7.903   8.957  70.524  1.00  0.00    -0.112 C  
HETATM   22  N   UNL     1      -7.257   8.329  71.683  1.00  0.00    -0.080 NA 
HETATM   23  H1  UNL     1      -7.816   7.515  71.939  1.00  0.00     0.000 HD 
HETATM   24  H2  UNL     1      -7.115   8.975  72.459  1.00  0.00     0.000 HD 
BRANCH  21  25
HETATM   25  C   UNL     1      -8.121   7.934  69.345  1.00  0.00    -0.125 C  
HETATM   26  H   UNL     1      -7.080   7.146  67.852  1.00  0.00     0.000 HD 
HETATM   27  O   UNL     1      -6.948   7.762  68.563  1.00  0.00    -0.067 OA 
BRANCH  25  28
HETATM   28  C   UNL     1      -8.589   6.592  69.942  1.00  0.00    -0.139 C  
HETATM   29  C   UNL     1      -9.590   6.538  71.120  1.00  0.00    -0.181 C  
HETATM   30  C   UNL     1      -9.698   5.035  71.450  1.00  0.00    -0.171 C  
HETATM   31  C   UNL     1     -10.989   7.162  70.844  1.00  0.00    -0.276 C  
HETATM   32  C   UNL     1     -11.904   7.176  72.077  1.00  0.00    -0.333 C  
HETATM   33  O   UNL     1      -9.721   4.154  70.591  1.00  0.00    -0.183 OA 
HETATM   34  N   UNL     1      -9.780   4.736  72.792  1.00  0.00    -0.136 N  
HETATM   35  C   UNL     1     -11.711   6.532  69.648  1.00  0.00    -0.231 C  
HETATM   36  H   UNL     1      -9.849   5.489  73.475  1.00  0.00     0.000 HD 
BRANCH  34  37
HETATM   37  C   UNL     1      -9.766   3.355  73.240  1.00  0.00    -0.111 C  
BRANCH  37  38
HETATM   38  C   UNL     1      -8.352   2.796  73.470  1.00  0.00    -0.072 C  
HETATM   39  C   UNL     1      -8.404   1.676  74.532  1.00  0.00    -0.052 C  
HETATM   40  C   UNL     1      -7.769   2.230  72.165  1.00  0.00    -0.045 C  
BRANCH  38  41
HETATM   41  C   UNL     1      -7.452   3.923  73.995  1.00  0.00    -0.066 C  
HETATM   42  N   UNL     1      -6.111   3.694  74.012  1.00  0.00    -0.015 N  
HETATM   43  O   UNL     1      -7.876   5.008  74.386  1.00  0.00    -0.095 OA 
HETATM   44  H2  UNL     1      -5.720   2.809  73.690  1.00  0.00     0.000 HD 
HETATM   45  H1  UNL     1      -5.513   4.442  74.361  1.00  0.00     0.000 HD 
ENDBRANCH  38  41
ENDBRANCH  37  38
ENDBRANCH  34  37
ENDBRANCH  25  28
ENDBRANCH  21  25
ENDBRANCH  17  21
ENDBRANCH  11  15
ENDBRANCH   6   7
ENDBRANCH   5   6
ENDBRANCH   4   5
ENDBRANCH   3   4
ENDBRANCH   2   3
TORSDOF 13
ENDMDL
MODEL      173
REMARK 921   NORMALIZED FREE ENERGY PREDICTED BY IDOCK:   -1.14 KCAL/MOL
REMARK 922        TOTAL FREE ENERGY PREDICTED BY IDOCK:   -4.32 KCAL/MOL
REMARK 923 INTER-LIGAND FREE ENERGY PREDICTED BY IDOCK:   -5.78 KCAL/MOL
REMARK 924 INTRA-LIGAND FREE ENERGY PREDICTED BY IDOCK:    1.47 KCAL/MOL
REMARK 927      BINDING AFFINITY PREDICTED BY RF-SCORE:    0.00 PKD
ROOT
HETATM    1  C   UNL     1      -8.086   7.739  64.756  1.00  0.00    -0.131 C  
HETATM    2  O   UNL     1      -7.988   7.776  63.339  1.00  0.00    -0.139 OA 
ENDROOT
BRANCH   2   3
HETATM    3  C   UNL     1      -8.063   9.116  62.853  1.00  0.00    -0.157 C  
BRANCH   3   4
HETATM    4  C   UNL     1      -9.009   9.926  63.729  1.00  0.00    -0.279 C  
BRANCH   4   5
HETATM    5  C   UNL     1      -9.710  11.067  62.992  1.00  0.00    -0.354 C  
BRANCH   5   6
HETATM    6  O   UNL     1     -10.835  11.518  63.740  1.00  0.00    -0.364 OA 
BRANCH   6   7
HETATM    7  C   UNL     1     -10.780  12.711  64.420  1.00  0.00    -0.359 A  
HETATM    8  C   UNL     1     -11.796  13.636  64.095  1.00  0.00    -0.422 A  
HETATM    9  C   UNL     1     -11.742  14.930  64.619  1.00  0.00    -0.406 A  
HETATM   10  C   UNL     1      -9.727  13.095  65.260  1.00  0.00     0.009 A  
HETATM   11  C   UNL     1      -9.630  14.423  65.720  1.00  0.00    -0.216 A  
HETATM   12  C   UNL     1     -10.655  15.320  65.407  1.00  0.00    -0.413 A  
BRANCH   8  13
HETATM   13  O   UNL     1     -12.781  13.180  63.252  1.00  0.00    -0.664 OA 
HETATM   14  C   UNL     1     -13.343  11.903  63.519  1.00  0.00     0.473 C  
ENDBRANCH   8  13
BRANCH  11  15
HETATM   15  C   UNL     1      -8.349  14.933  66.346  1.00  0.00     0.226 C  
HETATM   16  C   UNL     1      -8.361  15.827  67.612  1.00  0.00    -0.170 C  
HETATM   17  C   UNL     1      -6.886  16.002  68.139  1.00  0.00    -0.130 C  
HETATM   18  C   UNL     1      -8.995  17.243  67.453  1.00  0.00    -0.224 C  
HETATM   19  C   UNL     1     -10.514  17.209  67.271  1.00  0.00    -0.313 C  
HETATM   20  C   UNL     1      -8.344  18.096  66.362  1.00  0.00    -0.272 C  
BRANCH  17  21
HETATM   21  C   UNL     1      -6.182  14.708  68.597  1.00  0.00    -0.086 C  
HETATM   22  N   UNL     1      -5.516  14.133  67.422  1.00  0.00    -0.305 NA 
HETATM   23  H1  UNL     1      -5.051  13.278  67.724  1.00  0.00     0.000 HD 
HETATM   24  H2  UNL     1      -4.885  14.789  66.960  1.00  0.00     0.000 HD 
BRANCH  21  25
HETATM   25  C   UNL     1      -7.141  13.672  69.296  1.00  0.00     0.018 C  
HETATM   26  H   UNL     1      -9.066  13.495  69.741  1.00  0.00     0.000 HD 
HETATM   27  O   UNL     1      -8.488  14.120  69.319  1.00  0.00     0.120 OA 
BRANCH  25  28
HETATM   28  C   UNL     1      -7.020  12.321  68.563  1.00  0.00    -0.092 C  
HETATM   29  C   UNL     1      -7.621  11.024  69.155  1.00  0.00    -0.113 C  
HETATM   30  C   UNL     1      -7.190   9.925  68.163  1.00  0.00    -0.078 C  
HETATM   31  C   UNL     1      -9.163  11.030  69.364  1.00  0.00     0.183 C  
HETATM   32  C   UNL     1      -9.691   9.762  70.050  1.00  0.00    -0.292 C  
HETATM   33  O   UNL     1      -7.172  10.085  66.943  1.00  0.00    -0.089 OA 
HETATM   34  N   UNL     1      -6.829   8.727  68.739  1.00  0.00    -0.061 N  
HETATM   35  C   UNL     1      -9.949  11.310  68.078  1.00  0.00    -0.191 C  
HETATM   36  H   UNL     1      -6.940   8.594  69.744  1.00  0.00     0.000 HD 
BRANCH  34  37
HETATM   37  C   UNL     1      -6.293   7.651  67.924  1.00  0.00    -0.050 C  
BRANCH  37  38
HETATM   38  C   UNL     1      -6.657   6.249  68.440  1.00  0.00    -0.058 C  
HETATM   39  C   UNL     1      -5.435   5.314  68.306  1.00  0.00    -0.011 C  
HETATM   40  C   UNL     1      -7.093   6.304  69.913  1.00  0.00    -0.072 C  
BRANCH  38  41
HETATM   41  C   UNL     1      -7.798   5.684  67.582  1.00  0.00    -0.097 C  
HETATM   42  N   UNL     1      -9.036   6.218  67.761  1.00  0.00    -0.115 N  
HETATM   43  O   UNL     1      -7.647   4.794  66.749  1.00  0.00    -0.085 OA 
HETATM   44  H2  UNL     1      -9.200   6.963  68.437  1.00  0.00     0.000 HD 
HETATM   45  H1  UNL     1      -9.794   5.842  67.191  1.00  0.00     0.000 HD 
ENDBRANCH  38  41
ENDBRANCH  37  38
ENDBRANCH  34  37
ENDBRANCH  25  28
ENDBRANCH  21  25
ENDBRANCH  17  21
ENDBRANCH  11  15
ENDBRANCH   6   7
ENDBRANCH   5   6
ENDBRANCH   4   5
ENDBRANCH   3   4
ENDBRANCH   2   3
TORSDOF 13
ENDMDL
MODEL      174
REMARK 921   NORMALIZED FREE ENERGY PREDICTED BY IDOCK:   -1.00 KCAL/MOL
REMARK 922        TOTAL FREE ENERGY PREDICTED BY IDOCK:   -4.07 KCAL/MOL
REMARK 923 INTER-LIGAND FREE ENERGY PREDICTED BY IDOCK:   -4.99 KCAL/MOL
REMARK 924 INTRA-LIGAND FREE ENERGY PREDICTED BY IDOCK:    0.92 KCAL/MOL
REMARK 927      BINDING AFFINITY PREDICTED BY RF-SCORE:    0.00 PKD
ROOT
HETATM    1  C   UNL     1      -7.975  19.194  66.838  1.00  0.00    -0.259 C  
HETATM    2  O   UNL     1      -7.141  18.642  67.847  1.00  0.00    -0.227 OA 
ENDROOT
BRANCH   2   3
HETATM    3  C   UNL     1      -7.415  17.254  68.038  1.00  0.00    -0.194 C  
BRANCH   3   4
HETATM    4  C   UNL     1      -6.273  16.608  68.810  1.00  0.00    -0.147 C  
BRANCH   4   5
HETATM    5  C   UNL     1      -6.701  15.422  69.673  1.00  0.00    -0.184 C  
BRANCH   5   6
HETATM    6  O   UNL     1      -6.445  14.198  68.990  1.00  0.00    -0.088 OA 
BRANCH   6   7
HETATM    7  C   UNL     1      -6.542  13.001  69.658  1.00  0.00     0.015 A  
HETATM    8  C   UNL     1      -5.775  12.908  70.839  1.00  0.00    -0.109 A  
HETATM    9  C   UNL     1      -5.687  11.685  71.509  1.00  0.00     0.507 A  
HETATM   10  C   UNL     1      -7.206  11.871  69.165  1.00  0.00    -0.020 A  
HETATM   11  C   UNL     1      -7.050  10.621  69.795  1.00  0.00    -0.140 A  
HETATM   12  C   UNL     1      -6.305  10.550  70.974  1.00  0.00     0.241 A  
BRANCH   8  13
HETATM   13  O   UNL     1      -5.143  14.060  71.242  1.00  0.00    -0.113 OA 
HETATM   14  C   UNL     1      -5.279  14.449  72.602  1.00  0.00    -0.200 C  
ENDBRANCH   8  13
BRANCH  11  15
HETATM   15  C   UNL     1      -7.485   9.346  69.101  1.00  0.00    -0.073 C  
HETATM   16  C   UNL     1      -7.864   8.074  69.901  1.00  0.00    -0.102 C  
HETATM   17  C   UNL     1      -8.479   7.006  68.917  1.00  0.00    -0.125 C  
HETATM   18  C   UNL     1      -6.714   7.393  70.705  1.00  0.00    -0.047 C  
HETATM   19  C   UNL     1      -6.258   8.209  71.917  1.00  0.00    -0.047 C  
HETATM   20  C   UNL     1      -5.512   6.989  69.848  1.00  0.00    -0.019 C  
BRANCH  17  21
HETATM   21  C   UNL     1      -9.790   7.418  68.219  1.00  0.00    -0.160 C  
HETATM   22  N   UNL     1     -10.900   6.923  69.043  1.00  0.00    -0.333 NA 
HETATM   23  H1  UNL     1     -11.767   7.196  68.581  1.00  0.00     0.000 HD 
HETATM   24  H2  UNL     1     -10.848   7.238  70.012  1.00  0.00     0.000 HD 
BRANCH  21  25
HETATM   25  C   UNL     1      -9.901   6.927  66.726  1.00  0.00    -0.181 C  
HETATM   26  H   UNL     1     -11.028   5.703  65.645  1.00  0.00     0.000 HD 
HETATM   27  O   UNL     1     -10.961   6.000  66.545  1.00  0.00    -0.245 OA 
BRANCH  25  28
HETATM   28  C   UNL     1     -10.084   8.160  65.818  1.00  0.00     0.794 C  
HETATM   29  C   UNL     1      -9.287   9.464  66.056  1.00  0.00    -0.279 C  
HETATM   30  C   UNL     1      -9.844  10.441  65.000  1.00  0.00    -0.319 C  
HETATM   31  C   UNL     1      -7.740   9.336  65.954  1.00  0.00    -0.098 C  
HETATM   32  C   UNL     1      -6.996  10.633  66.302  1.00  0.00    -0.133 C  
HETATM   33  O   UNL     1     -10.129  10.104  63.852  1.00  0.00    -0.130 OA 
HETATM   34  N   UNL     1      -9.994  11.741  65.429  1.00  0.00    -0.247 N  
HETATM   35  C   UNL     1      -7.263   8.792  64.602  1.00  0.00    -0.095 C  
HETATM   36  H   UNL     1      -9.666  12.010  66.356  1.00  0.00     0.000 HD 
BRANCH  34  37
HETATM   37  C   UNL     1     -10.618  12.731  64.570  1.00  0.00    -0.360 C  
BRANCH  37  38
HETATM   38  C   UNL     1     -11.103  13.982  65.324  1.00  0.00    -0.325 C  
HETATM   39  C   UNL     1     -11.923  14.877  64.370  1.00  0.00    -0.408 C  
HETATM   40  C   UNL     1     -11.976  13.590  66.527  1.00  0.00    -0.460 C  
BRANCH  38  41
HETATM   41  C   UNL     1      -9.881  14.776  65.806  1.00  0.00    -0.342 C  
HETATM   42  N   UNL     1      -9.326  14.409  66.993  1.00  0.00    -0.232 N  
HETATM   43  O   UNL     1      -9.383  15.708  65.178  1.00  0.00    -0.104 OA 
HETATM   44  H2  UNL     1      -9.707  13.637  67.540  1.00  0.00     0.000 HD 
HETATM   45  H1  UNL     1      -8.515  14.937  67.313  1.00  0.00     0.000 HD 
ENDBRANCH  38  41
ENDBRANCH  37  38
ENDBRANCH  34  37
ENDBRANCH  25  28
ENDBRANCH  21  25
ENDBRANCH  17  21
ENDBRANCH  11  15
ENDBRANCH   6   7
ENDBRANCH   5   6
ENDBRANCH   4   5
ENDBRANCH   3   4
ENDBRANCH   2   3
TORSDOF 13
ENDMDL
MODEL      175
REMARK 921   NORMALIZED FREE ENERGY PREDICTED BY IDOCK:   -0.88 KCAL/MOL
REMARK 922        TOTAL FREE ENERGY PREDICTED BY IDOCK:   -3.86 KCAL/MOL
REMARK 923 INTER-LIGAND FREE ENERGY PREDICTED BY IDOCK:   -3.40 KCAL/MOL
REMARK 924 INTRA-LIGAND FREE ENERGY PREDICTED BY IDOCK:   -0.47 KCAL/MOL
REMARK 927      BINDING AFFINITY PREDICTED BY RF-SCORE:    0.00 PKD
ROOT
HETATM    1  C   UNL     1     -10.753  14.835  72.699  1.00  0.00     2.222 C  
HETATM    2  O   UNL     1     -12.040  15.436  72.753  1.00  0.00    -0.367 OA 
ENDROOT
BRANCH   2   3
HETATM    3  C   UNL     1     -12.334  16.129  71.541  1.00  0.00    -0.240 C  
BRANCH   3   4
HETATM    4  C   UNL     1     -13.489  15.442  70.826  1.00  0.00    -0.324 C  
BRANCH   4   5
HETATM    5  C   UNL     1     -13.065  14.623  69.607  1.00  0.00     0.658 C  
BRANCH   5   6
HETATM    6  O   UNL     1     -11.731  14.150  69.771  1.00  0.00    -0.276 OA 
BRANCH   6   7
HETATM    7  C   UNL     1     -10.882  14.090  68.693  1.00  0.00    -0.258 A  
HETATM    8  C   UNL     1     -10.297  15.319  68.319  1.00  0.00    -0.234 A  
HETATM    9  C   UNL     1      -9.538  15.392  67.148  1.00  0.00    -0.218 A  
HETATM   10  C   UNL     1     -10.699  12.956  67.892  1.00  0.00    -0.235 A  
HETATM   11  C   UNL     1     -10.004  13.051  66.671  1.00  0.00    -0.250 A  
HETATM   12  C   UNL     1      -9.414  14.269  66.325  1.00  0.00    -0.277 A  
BRANCH   8  13
HETATM   13  O   UNL     1     -10.541  16.383  69.154  1.00  0.00    -0.265 OA 
HETATM   14  C   UNL     1     -10.915  17.618  68.560  1.00  0.00     0.083 C  
ENDBRANCH   8  13
BRANCH  11  15
HETATM   15  C   UNL     1     -10.078  11.934  65.650  1.00  0.00    -0.274 C  
HETATM   16  C   UNL     1     -10.180  12.226  64.131  1.00  0.00    -0.376 C  
HETATM   17  C   UNL     1     -10.015  10.878  63.331  1.00  0.00    -0.414 C  
HETATM   18  C   UNL     1     -11.488  12.925  63.647  1.00  0.00    -0.506 C  
HETATM   19  C   UNL     1     -11.594  14.385  64.094  1.00  0.00    -0.183 C  
HETATM   20  C   UNL     1     -12.767  12.162  64.000  1.00  0.00    -0.452 C  
BRANCH  17  21
HETATM   21  C   UNL     1      -8.655  10.169  63.489  1.00  0.00    -0.200 C  
HETATM   22  N   UNL     1      -7.831  10.540  62.332  1.00  0.00    -0.159 NA 
HETATM   23  H1  UNL     1      -6.932  10.071  62.436  1.00  0.00     0.000 HD 
HETATM   24  H2  UNL     1      -7.744  11.549  62.211  1.00  0.00     0.000 HD 
BRANCH  21  25
HETATM   25  C   UNL     1      -8.763   8.607  63.658  1.00  0.00     0.121 C  
HETATM   26  H   UNL     1      -8.497   6.973  62.565  1.00  0.00     0.000 HD 
HETATM   27  O   UNL     1      -8.431   7.915  62.463  1.00  0.00    -0.114 OA 
BRANCH  25  28
HETATM   28  C   UNL     1      -7.847   8.175  64.821  1.00  0.00    -0.137 C  
HETATM   29  C   UNL     1      -7.446   6.695  65.025  1.00  0.00    -0.089 C  
HETATM   30  C   UNL     1      -6.623   6.708  66.331  1.00  0.00    -0.044 C  
HETATM   31  C   UNL     1      -6.650   6.044  63.857  1.00  0.00    -0.037 C  
HETATM   32  C   UNL     1      -6.371   4.550  64.068  1.00  0.00    -0.030 C  
HETATM   33  O   UNL     1      -5.826   7.599  66.618  1.00  0.00    -0.037 OA 
HETATM   34  N   UNL     1      -6.835   5.632  67.165  1.00  0.00    -0.062 N  
HETATM   35  C   UNL     1      -5.354   6.788  63.516  1.00  0.00    -0.027 C  
HETATM   36  H   UNL     1      -7.433   4.865  66.860  1.00  0.00     0.000 HD 
BRANCH  34  37
HETATM   37  C   UNL     1      -6.211   5.585  68.475  1.00  0.00    -0.030 C  
BRANCH  37  38
HETATM   38  C   UNL     1      -7.207   5.748  69.636  1.00  0.00    -0.069 C  
HETATM   39  C   UNL     1      -8.493   6.431  69.124  1.00  0.00    -0.122 C  
HETATM   40  C   UNL     1      -7.567   4.382  70.243  1.00  0.00    -0.049 C  
BRANCH  38  41
HETATM   41  C   UNL     1      -6.575   6.643  70.711  1.00  0.00    -0.053 C  
HETATM   42  N   UNL     1      -5.371   6.261  71.213  1.00  0.00    -0.018 N  
HETATM   43  O   UNL     1      -7.093   7.677  71.126  1.00  0.00    -0.053 OA 
HETATM   44  H2  UNL     1      -4.906   5.413  70.889  1.00  0.00     0.000 HD 
HETATM   45  H1  UNL     1      -4.951   6.855  71.928  1.00  0.00     0.000 HD 
ENDBRANCH  38  41
ENDBRANCH  37  38
ENDBRANCH  34  37
ENDBRANCH  25  28
ENDBRANCH  21  25
ENDBRANCH  17  21
ENDBRANCH  11  15
ENDBRANCH   6   7
ENDBRANCH   5   6
ENDBRANCH   4   5
ENDBRANCH   3   4
ENDBRANCH   2   3
TORSDOF 13
ENDMDL
MODEL      176
REMARK 921   NORMALIZED FREE ENERGY PREDICTED BY IDOCK:   -0.76 KCAL/MOL
REMARK 922        TOTAL FREE ENERGY PREDICTED BY IDOCK:   -3.65 KCAL/MOL
REMARK 923 INTER-LIGAND FREE ENERGY PREDICTED BY IDOCK:   -2.68 KCAL/MOL
REMARK 924 INTRA-LIGAND FREE ENERGY PREDICTED BY IDOCK:   -0.97 KCAL/MOL
REMARK 927      BINDING AFFINITY PREDICTED BY RF-SCORE:    0.00 PKD
ROOT
HETATM    1  C   UNL     1      -7.690   2.040  68.472  1.00  0.00    -0.053 C  
HETATM    2  O   UNL     1      -8.288   3.322  68.334  1.00  0.00    -0.075 OA 
ENDROOT
BRANCH   2   3
HETATM    3  C   UNL     1      -9.281   3.535  69.336  1.00  0.00    -0.157 C  
BRANCH   3   4
HETATM    4  C   UNL     1      -9.578   2.224  70.051  1.00  0.00    -0.056 C  
BRANCH   4   5
HETATM    5  C   UNL     1      -9.623   2.345  71.574  1.00  0.00    -0.149 C  
BRANCH   5   6
HETATM    6  O   UNL     1      -8.435   2.966  72.055  1.00  0.00    -0.064 OA 
BRANCH   6   7
HETATM    7  C   UNL     1      -8.480   4.241  72.565  1.00  0.00    -0.105 A  
HETATM    8  C   UNL     1      -9.513   4.480  73.497  1.00  0.00    -0.117 A  
HETATM    9  C   UNL     1      -9.735   5.779  73.960  1.00  0.00    -0.177 A  
HETATM   10  C   UNL     1      -7.688   5.303  72.112  1.00  0.00    -0.100 A  
HETATM   11  C   UNL     1      -7.966   6.623  72.516  1.00  0.00    -0.102 A  
HETATM   12  C   UNL     1      -8.979   6.841  73.454  1.00  0.00    -0.149 A  
BRANCH   8  13
HETATM   13  O   UNL     1     -10.252   3.384  73.875  1.00  0.00    -0.123 OA 
HETATM   14  C   UNL     1     -11.627   3.582  74.171  1.00  0.00     0.717 C  
ENDBRANCH   8  13
BRANCH  11  15
HETATM   15  C   UNL     1      -7.344   7.801  71.794  1.00  0.00    -0.068 C  
HETATM   16  C   UNL     1      -5.813   8.043  71.802  1.00  0.00    -0.036 C  
HETATM   17  C   UNL     1      -5.465   9.201  70.790  1.00  0.00    -0.030 C  
HETATM   18  C   UNL     1      -5.174   8.391  73.182  1.00  0.00    -0.047 C  
HETATM   19  C   UNL     1      -5.150   7.208  74.153  1.00  0.00    -0.043 C  
HETATM   20  C   UNL     1      -5.783   9.624  73.854  1.00  0.00     0.200 C  
BRANCH  17  21
HETATM   21  C   UNL     1      -5.796   8.918  69.311  1.00  0.00    -0.035 C  
HETATM   22  N   UNL     1      -5.301  10.055  68.526  1.00  0.00    -0.039 NA 
HETATM   23  H1  UNL     1      -5.519   9.868  67.548  1.00  0.00     0.000 HD 
HETATM   24  H2  UNL     1      -4.312  10.248  68.684  1.00  0.00     0.000 HD 
BRANCH  21  25
HETATM   25  C   UNL     1      -7.321   8.634  69.039  1.00  0.00    -0.077 C  
HETATM   26  H   UNL     1      -9.036   9.632  69.017  1.00  0.00     0.000 HD 
HETATM   27  O   UNL     1      -8.116   9.803  69.181  1.00  0.00    -0.093 OA 
BRANCH  25  28
HETATM   28  C   UNL     1      -7.464   8.036  67.625  1.00  0.00    -0.097 C  
HETATM   29  C   UNL     1      -8.323   6.776  67.365  1.00  0.00    -0.122 C  
HETATM   30  C   UNL     1      -8.107   6.480  65.867  1.00  0.00    -0.125 C  
HETATM   31  C   UNL     1      -9.836   6.909  67.707  1.00  0.00    -0.161 C  
HETATM   32  C   UNL     1     -10.618   5.600  67.530  1.00  0.00    -0.296 C  
HETATM   33  O   UNL     1      -8.039   7.357  65.007  1.00  0.00    -0.124 OA 
HETATM   34  N   UNL     1      -8.005   5.145  65.544  1.00  0.00    -0.106 N  
HETATM   35  C   UNL     1     -10.529   8.054  66.960  1.00  0.00    -0.410 C  
HETATM   36  H   UNL     1      -8.156   4.437  66.263  1.00  0.00     0.000 HD 
BRANCH  34  37
HETATM   37  C   UNL     1      -7.684   4.738  64.188  1.00  0.00    -0.079 C  
BRANCH  37  38
HETATM   38  C   UNL     1      -6.410   3.883  64.087  1.00  0.00    -0.030 C  
HETATM   39  C   UNL     1      -6.045   3.668  62.602  1.00  0.00    -0.014 C  
HETATM   40  C   UNL     1      -5.234   4.567  64.804  1.00  0.00    -0.012 C  
BRANCH  38  41
HETATM   41  C   UNL     1      -6.679   2.513  64.725  1.00  0.00    -0.039 C  
HETATM   42  N   UNL     1      -5.602   1.727  64.995  1.00  0.00    -0.011 N  
HETATM   43  O   UNL     1      -7.802   2.101  65.006  1.00  0.00    -0.074 OA 
HETATM   44  H2  UNL     1      -4.653   2.036  64.783  1.00  0.00     0.000 HD 
HETATM   45  H1  UNL     1      -5.780   0.817  65.418  1.00  0.00     0.000 HD 
ENDBRANCH  38  41
ENDBRANCH  37  38
ENDBRANCH  34  37
ENDBRANCH  25  28
ENDBRANCH  21  25
ENDBRANCH  17  21
ENDBRANCH  11  15
ENDBRANCH   6   7
ENDBRANCH   5   6
ENDBRANCH   4   5
ENDBRANCH   3   4
ENDBRANCH   2   3
TORSDOF 13
ENDMDL
MODEL      177
REMARK 921   NORMALIZED FREE ENERGY PREDICTED BY IDOCK:   -0.67 KCAL/MOL
REMARK 922        TOTAL FREE ENERGY PREDICTED BY IDOCK:   -3.49 KCAL/MOL
REMARK 923 INTER-LIGAND FREE ENERGY PREDICTED BY IDOCK:   -5.25 KCAL/MOL
REMARK 924 INTRA-LIGAND FREE ENERGY PREDICTED BY IDOCK:    1.77 KCAL/MOL
REMARK 927      BINDING AFFINITY PREDICTED BY RF-SCORE:    0.00 PKD
ROOT
HETATM    1  C   UNL     1      -7.931   7.984  64.524  1.00  0.00    -0.151 C  
HETATM    2  O   UNL     1      -7.857   8.140  63.114  1.00  0.00    -0.135 OA 
ENDROOT
BRANCH   2   3
HETATM    3  C   UNL     1      -7.937   9.516  62.744  1.00  0.00    -0.126 C  
BRANCH   3   4
HETATM    4  C   UNL     1      -8.910  10.239  63.667  1.00  0.00    -0.233 C  
BRANCH   4   5
HETATM    5  C   UNL     1      -9.541  11.486  63.048  1.00  0.00    -0.346 C  
BRANCH   5   6
HETATM    6  O   UNL     1     -10.701  11.866  63.781  1.00  0.00    -0.336 OA 
BRANCH   6   7
HETATM    7  C   UNL     1     -10.781  13.114  64.349  1.00  0.00    -0.407 A  
HETATM    8  C   UNL     1     -11.792  13.949  63.826  1.00  0.00    -0.198 A  
HETATM    9  C   UNL     1     -11.859  15.285  64.231  1.00  0.00    -0.235 A  
HETATM   10  C   UNL     1      -9.855  13.628  65.265  1.00  0.00    -0.135 A  
HETATM   11  C   UNL     1      -9.873  14.993  65.609  1.00  0.00    -0.380 A  
HETATM   12  C   UNL     1     -10.893  15.802  65.098  1.00  0.00    -0.444 A  
BRANCH   8  13
HETATM   13  O   UNL     1     -12.648  13.368  62.921  1.00  0.00    -0.576 OA 
HETATM   14  C   UNL     1     -13.174  12.087  63.236  1.00  0.00     0.383 C  
ENDBRANCH   8  13
BRANCH  11  15
HETATM   15  C   UNL     1      -8.700  15.626  66.328  1.00  0.00    -0.325 C  
HETATM   16  C   UNL     1      -8.893  16.793  67.330  1.00  0.00    -0.209 C  
HETATM   17  C   UNL     1      -7.528  17.075  68.068  1.00  0.00    -0.185 C  
HETATM   18  C   UNL     1      -9.415  18.137  66.736  1.00  0.00    -0.294 C  
HETATM   19  C   UNL     1     -10.877  18.073  66.288  1.00  0.00     0.038 C  
HETATM   20  C   UNL     1      -8.537  18.704  65.619  1.00  0.00     0.657 C  
BRANCH  17  21
HETATM   21  C   UNL     1      -6.985  15.920  68.932  1.00  0.00    -0.143 C  
HETATM   22  N   UNL     1      -6.121  15.100  68.073  1.00  0.00    -0.136 NA 
HETATM   23  H1  UNL     1      -5.761  14.335  68.645  1.00  0.00     0.000 HD 
HETATM   24  H2  UNL     1      -5.384  15.638  67.618  1.00  0.00     0.000 HD 
BRANCH  21  25
HETATM   25  C   UNL     1      -8.106  15.061  69.631  1.00  0.00    -0.049 C  
HETATM   26  H   UNL     1     -10.011  15.247  70.150  1.00  0.00     0.000 HD 
HETATM   27  O   UNL     1      -9.335  15.765  69.728  1.00  0.00    -0.241 OA 
BRANCH  25  28
HETATM   28  C   UNL     1      -8.281  13.748  68.842  1.00  0.00     0.089 C  
HETATM   29  C   UNL     1      -9.247  12.640  69.323  1.00  0.00     0.929 C  
HETATM   30  C   UNL     1      -9.036  11.495  68.311  1.00  0.00    -0.185 C  
HETATM   31  C   UNL     1     -10.746  13.047  69.418  1.00  0.00     0.138 C  
HETATM   32  C   UNL     1     -11.642  11.945  69.999  1.00  0.00    -0.301 C  
HETATM   33  O   UNL     1      -8.875  11.680  67.106  1.00  0.00    -0.161 OA 
HETATM   34  N   UNL     1      -9.051  10.228  68.851  1.00  0.00    -0.158 N  
HETATM   35  C   UNL     1     -11.321  13.562  68.093  1.00  0.00    -0.319 C  
HETATM   36  H   UNL     1      -9.276  10.100  69.837  1.00  0.00     0.000 HD 
BRANCH  34  37
HETATM   37  C   UNL     1      -8.747   9.073  68.025  1.00  0.00    -0.129 C  
BRANCH  37  38
HETATM   38  C   UNL     1      -9.795   7.952  68.127  1.00  0.00    -0.193 C  
HETATM   39  C   UNL     1     -10.829   8.305  69.218  1.00  0.00    -0.063 C  
HETATM   40  C   UNL     1     -10.521   7.759  66.785  1.00  0.00    -0.318 C  
BRANCH  38  41
HETATM   41  C   UNL     1      -9.091   6.648  68.528  1.00  0.00    -0.128 C  
HETATM   42  N   UNL     1      -8.634   6.553  69.806  1.00  0.00    -0.135 N  
HETATM   43  O   UNL     1      -8.930   5.698  67.765  1.00  0.00    -0.110 OA 
HETATM   44  H2  UNL     1      -8.754   7.317  70.471  1.00  0.00     0.000 HD 
HETATM   45  H1  UNL     1      -8.166   5.687  70.072  1.00  0.00     0.000 HD 
ENDBRANCH  38  41
ENDBRANCH  37  38
ENDBRANCH  34  37
ENDBRANCH  25  28
ENDBRANCH  21  25
ENDBRANCH  17  21
ENDBRANCH  11  15
ENDBRANCH   6   7
ENDBRANCH   5   6
ENDBRANCH   4   5
ENDBRANCH   3   4
ENDBRANCH   2   3
TORSDOF 13
ENDMDL
MODEL      178
REMARK 921   NORMALIZED FREE ENERGY PREDICTED BY IDOCK:   -0.16 KCAL/MOL
REMARK 922        TOTAL FREE ENERGY PREDICTED BY IDOCK:   -2.60 KCAL/MOL
REMARK 923 INTER-LIGAND FREE ENERGY PREDICTED BY IDOCK:   -3.78 KCAL/MOL
REMARK 924 INTRA-LIGAND FREE ENERGY PREDICTED BY IDOCK:    1.18 KCAL/MOL
REMARK 927      BINDING AFFINITY PREDICTED BY RF-SCORE:    0.00 PKD
ROOT
HETATM    1  C   UNL     1     -11.997   5.866  71.640  1.00  0.00     0.156 C  
HETATM    2  O   UNL     1     -11.900   5.267  72.925  1.00  0.00    -0.271 OA 
ENDROOT
BRANCH   2   3
HETATM    3  C   UNL     1     -11.197   6.111  73.834  1.00  0.00     0.643 C  
BRANCH   3   4
HETATM    4  C   UNL     1      -9.697   5.965  73.613  1.00  0.00    -0.160 C  
BRANCH   4   5
HETATM    5  C   UNL     1      -9.310   5.675  72.163  1.00  0.00    -0.146 C  
BRANCH   5   6
HETATM    6  O   UNL     1      -8.380   6.648  71.697  1.00  0.00    -0.115 OA 
BRANCH   6   7
HETATM    7  C   UNL     1      -8.054   6.710  70.364  1.00  0.00    -0.117 A  
HETATM    8  C   UNL     1      -7.026   5.834  69.955  1.00  0.00    -0.065 A  
HETATM    9  C   UNL     1      -6.520   5.925  68.656  1.00  0.00    -0.045 A  
HETATM   10  C   UNL     1      -8.557   7.663  69.470  1.00  0.00    -0.132 A  
HETATM   11  C   UNL     1      -7.990   7.809  68.190  1.00  0.00    -0.122 A  
HETATM   12  C   UNL     1      -6.987   6.920  67.792  1.00  0.00    -0.083 A  
BRANCH   8  13
HETATM   13  O   UNL     1      -6.581   4.941  70.901  1.00  0.00    -0.032 OA 
HETATM   14  C   UNL     1      -5.399   4.207  70.613  1.00  0.00    -0.004 C  
ENDBRANCH   8  13
BRANCH  11  15
HETATM   15  C   UNL     1      -8.292   9.029  67.344  1.00  0.00    -0.112 C  
HETATM   16  C   UNL     1      -7.172  10.001  66.889  1.00  0.00    -0.091 C  
HETATM   17  C   UNL     1      -7.767  11.028  65.851  1.00  0.00    -0.012 C  
HETATM   18  C   UNL     1      -6.452  10.803  68.016  1.00  0.00    -0.062 C  
HETATM   19  C   UNL     1      -5.554   9.934  68.899  1.00  0.00    -0.035 C  
HETATM   20  C   UNL     1      -7.395  11.648  68.876  1.00  0.00    -0.107 C  
BRANCH  17  21
HETATM   21  C   UNL     1      -8.297  10.420  64.537  1.00  0.00    -0.146 C  
HETATM   22  N   UNL     1      -8.131  11.433  63.488  1.00  0.00     0.106 NA 
HETATM   23  H1  UNL     1      -8.482  11.031  62.619  1.00  0.00     0.000 HD 
HETATM   24  H2  UNL     1      -7.173  11.774  63.411  1.00  0.00     0.000 HD 
BRANCH  21  25
HETATM   25  C   UNL     1      -9.782   9.902  64.626  1.00  0.00    -0.195 C  
HETATM   26  H   UNL     1     -10.759   8.290  65.246  1.00  0.00     0.000 HD 
HETATM   27  O   UNL     1      -9.863   8.603  65.193  1.00  0.00     0.487 OA 
BRANCH  25  28
HETATM   28  C   UNL     1     -10.606  10.915  65.446  1.00  0.00    -0.243 C  
HETATM   29  C   UNL     1     -10.905  12.335  64.910  1.00  0.00    -0.342 C  
HETATM   30  C   UNL     1     -11.653  13.023  66.070  1.00  0.00    -0.365 C  
HETATM   31  C   UNL     1     -11.723  12.397  63.588  1.00  0.00    -0.596 C  
HETATM   32  C   UNL     1     -11.900  13.823  63.046  1.00  0.00     0.761 C  
HETATM   33  O   UNL     1     -12.486  12.451  66.771  1.00  0.00    -0.294 OA 
HETATM   34  N   UNL     1     -11.332  14.348  66.268  1.00  0.00    -0.343 N  
HETATM   35  C   UNL     1     -13.079  11.687  63.678  1.00  0.00     0.080 C  
HETATM   36  H   UNL     1     -10.706  14.820  65.616  1.00  0.00     0.000 HD 
BRANCH  34  37
HETATM   37  C   UNL     1     -11.878  15.076  67.399  1.00  0.00    -0.148 C  
BRANCH  37  38
HETATM   38  C   UNL     1     -11.195  14.739  68.735  1.00  0.00    -0.286 C  
HETATM   39  C   UNL     1     -11.894  15.500  69.882  1.00  0.00    -0.380 C  
HETATM   40  C   UNL     1     -11.260  13.228  69.017  1.00  0.00    -0.320 C  
BRANCH  38  41
HETATM   41  C   UNL     1      -9.729  15.192  68.673  1.00  0.00    -0.216 C  
HETATM   42  N   UNL     1      -9.471  16.505  68.917  1.00  0.00    -0.254 N  
HETATM   43  O   UNL     1      -8.793  14.436  68.425  1.00  0.00    -0.172 OA 
HETATM   44  H2  UNL     1     -10.220  17.162  69.133  1.00  0.00     0.000 HD 
HETATM   45  H1  UNL     1      -8.498  16.806  68.875  1.00  0.00     0.000 HD 
ENDBRANCH  38  41
ENDBRANCH  37  38
ENDBRANCH  34  37
ENDBRANCH  25  28
ENDBRANCH  21  25
ENDBRANCH  17  21
ENDBRANCH  11  15
ENDBRANCH   6   7
ENDBRANCH   5   6
ENDBRANCH   4   5
ENDBRANCH   3   4
ENDBRANCH   2   3
TORSDOF 13
ENDMDL
MODEL      179
REMARK 921   NORMALIZED FREE ENERGY PREDICTED BY IDOCK:   -0.04 KCAL/MOL
REMARK 922        TOTAL FREE ENERGY PREDICTED BY IDOCK:   -2.38 KCAL/MOL
REMARK 923 INTER-LIGAND FREE ENERGY PREDICTED BY IDOCK:   -5.64 KCAL/MOL
REMARK 924 INTRA-LIGAND FREE ENERGY PREDICTED BY IDOCK:    3.25 KCAL/MOL
REMARK 927      BINDING AFFINITY PREDICTED BY RF-SCORE:    0.00 PKD
ROOT
HETATM    1  C   UNL     1     -13.007  12.026  62.865  1.00  0.00     0.604 C  
HETATM    2  O   UNL     1     -12.871  13.157  63.714  1.00  0.00    -0.655 OA 
ENDROOT
BRANCH   2   3
HETATM    3  C   UNL     1     -11.732  13.028  64.563  1.00  0.00    -0.369 C  
BRANCH   3   4
HETATM    4  C   UNL     1     -12.167  12.511  65.928  1.00  0.00    -0.310 C  
BRANCH   4   5
HETATM    5  C   UNL     1     -11.199  12.858  67.059  1.00  0.00    -0.288 C  
BRANCH   5   6
HETATM    6  O   UNL     1     -10.803  11.676  67.749  1.00  0.00    -0.197 OA 
BRANCH   6   7
HETATM    7  C   UNL     1     -11.381  11.352  68.952  1.00  0.00    -0.270 A  
HETATM    8  C   UNL     1     -12.017  12.420  69.621  1.00  0.00    -0.274 A  
HETATM    9  C   UNL     1     -12.504  12.229  70.917  1.00  0.00    -0.371 A  
HETATM   10  C   UNL     1     -11.242  10.113  69.589  1.00  0.00    -0.310 A  
HETATM   11  C   UNL     1     -11.659   9.946  70.923  1.00  0.00    -0.456 A  
HETATM   12  C   UNL     1     -12.304  11.006  71.565  1.00  0.00    -0.299 A  
BRANCH   8  13
HETATM   13  O   UNL     1     -12.096  13.605  68.929  1.00  0.00    -0.347 OA 
HETATM   14  C   UNL     1     -12.161  14.808  69.682  1.00  0.00    -0.270 C  
ENDBRANCH   8  13
BRANCH  11  15
HETATM   15  C   UNL     1     -11.224   8.735  71.724  1.00  0.00    -0.410 C  
HETATM   16  C   UNL     1     -10.497   7.538  71.059  1.00  0.00    -0.222 C  
HETATM   17  C   UNL     1      -9.986   6.554  72.179  1.00  0.00    -0.173 C  
HETATM   18  C   UNL     1     -11.325   6.714  70.024  1.00  0.00    -0.440 C  
HETATM   19  C   UNL     1     -11.596   7.474  68.724  1.00  0.00     0.908 C  
HETATM   20  C   UNL     1     -12.624   6.136  70.588  1.00  0.00     1.109 C  
BRANCH  17  21
HETATM   21  C   UNL     1      -8.942   7.136  73.153  1.00  0.00    -0.133 C  
HETATM   22  N   UNL     1      -9.570   7.202  74.479  1.00  0.00    -0.437 NA 
HETATM   23  H1  UNL     1      -8.880   7.587  75.124  1.00  0.00     0.000 HD 
HETATM   24  H2  UNL     1      -9.947   6.306  74.787  1.00  0.00     0.000 HD 
BRANCH  21  25
HETATM   25  C   UNL     1      -8.358   8.530  72.708  1.00  0.00    -0.069 C  
HETATM   26  H   UNL     1      -6.677   9.565  72.898  1.00  0.00     0.000 HD 
HETATM   27  O   UNL     1      -7.028   8.724  73.167  1.00  0.00    -0.321 OA 
BRANCH  25  28
HETATM   28  C   UNL     1      -8.432   8.623  71.171  1.00  0.00    -0.211 C  
HETATM   29  C   UNL     1      -7.172   8.453  70.290  1.00  0.00    -0.044 C  
HETATM   30  C   UNL     1      -7.679   8.714  68.857  1.00  0.00    -0.100 C  
HETATM   31  C   UNL     1      -6.454   7.076  70.398  1.00  0.00    -0.043 C  
HETATM   32  C   UNL     1      -5.154   7.001  69.586  1.00  0.00    -0.015 C  
HETATM   33  O   UNL     1      -8.767   8.318  68.443  1.00  0.00    -0.132 OA 
HETATM   34  N   UNL     1      -6.815   9.423  68.052  1.00  0.00    -0.074 N  
HETATM   35  C   UNL     1      -7.364   5.889  70.064  1.00  0.00    -0.074 C  
HETATM   36  H   UNL     1      -5.883   9.659  68.393  1.00  0.00     0.000 HD 
BRANCH  34  37
HETATM   37  C   UNL     1      -7.221   9.835  66.721  1.00  0.00    -0.090 C  
BRANCH  37  38
HETATM   38  C   UNL     1      -6.680   8.928  65.603  1.00  0.00    -0.072 C  
HETATM   39  C   UNL     1      -5.955   9.786  64.544  1.00  0.00    -0.094 C  
HETATM   40  C   UNL     1      -5.699   7.889  66.170  1.00  0.00    -0.037 C  
BRANCH  38  41
HETATM   41  C   UNL     1      -7.859   8.214  64.927  1.00  0.00    -0.128 C  
HETATM   42  N   UNL     1      -8.680   8.967  64.147  1.00  0.00    -0.400 N  
HETATM   43  O   UNL     1      -8.087   7.012  65.048  1.00  0.00    -0.125 OA 
HETATM   44  H2  UNL     1      -8.520   9.965  64.017  1.00  0.00     0.000 HD 
HETATM   45  H1  UNL     1      -9.464   8.492  63.698  1.00  0.00     0.000 HD 
ENDBRANCH  38  41
ENDBRANCH  37  38
ENDBRANCH  34  37
ENDBRANCH  25  28
ENDBRANCH  21  25
ENDBRANCH  17  21
ENDBRANCH  11  15
ENDBRANCH   6   7
ENDBRANCH   5   6
ENDBRANCH   4   5
ENDBRANCH   3   4
ENDBRANCH   2   3
TORSDOF 13
ENDMDL
MODEL      180
REMARK 921   NORMALIZED FREE ENERGY PREDICTED BY IDOCK:   -0.04 KCAL/MOL
REMARK 922        TOTAL FREE ENERGY PREDICTED BY IDOCK:   -2.38 KCAL/MOL
REMARK 923 INTER-LIGAND FREE ENERGY PREDICTED BY IDOCK:   -3.70 KCAL/MOL
REMARK 924 INTRA-LIGAND FREE ENERGY PREDICTED BY IDOCK:    1.31 KCAL/MOL
REMARK 927      BINDING AFFINITY PREDICTED BY RF-SCORE:    0.00 PKD
ROOT
HETATM    1  C   UNL     1      -9.423  14.501  69.304  1.00  0.00     0.079 C  
HETATM    2  O   UNL     1      -9.176  15.815  69.786  1.00  0.00    -0.225 OA 
ENDROOT
BRANCH   2   3
HETATM    3  C   UNL     1      -9.524  16.795  68.809  1.00  0.00    -0.259 C  
BRANCH   3   4
HETATM    4  C   UNL     1     -11.028  16.770  68.572  1.00  0.00    -0.312 C  
BRANCH   4   5
HETATM    5  C   UNL     1     -11.590  15.374  68.305  1.00  0.00    -0.348 C  
BRANCH   5   6
HETATM    6  O   UNL     1     -12.790  15.176  69.046  1.00  0.00     0.333 OA 
BRANCH   6   7
HETATM    7  C   UNL     1     -12.874  14.160  69.967  1.00  0.00     0.030 A  
HETATM    8  C   UNL     1     -12.679  14.550  71.310  1.00  0.00    -0.342 A  
HETATM    9  C   UNL     1     -12.597  13.572  72.305  1.00  0.00    -0.069 A  
HETATM   10  C   UNL     1     -12.980  12.803  69.642  1.00  0.00     1.096 A  
HETATM   11  C   UNL     1     -12.814  11.817  70.633  1.00  0.00    -0.093 A  
HETATM   12  C   UNL     1     -12.643  12.219  71.961  1.00  0.00     0.071 A  
BRANCH   8  13
HETATM   13  O   UNL     1     -12.569  15.901  71.538  1.00  0.00    -0.444 OA 
HETATM   14  C   UNL     1     -12.808  16.372  72.857  1.00  0.00    -0.084 C  
ENDBRANCH   8  13
BRANCH  11  15
HETATM   15  C   UNL     1     -12.600  10.366  70.253  1.00  0.00    -0.262 C  
HETATM   16  C   UNL     1     -11.181   9.747  70.169  1.00  0.00    -0.324 C  
HETATM   17  C   UNL     1     -11.305   8.188  69.973  1.00  0.00     0.000 C  
HETATM   18  C   UNL     1     -10.247  10.309  69.053  1.00  0.00    -0.225 C  
HETATM   19  C   UNL     1      -9.777  11.740  69.320  1.00  0.00     0.400 C  
HETATM   20  C   UNL     1     -10.825  10.188  67.641  1.00  0.00    -0.346 C  
BRANCH  17  21
HETATM   21  C   UNL     1     -11.983   7.422  71.126  1.00  0.00    -0.320 C  
HETATM   22  N   UNL     1     -12.852   8.371  71.831  1.00  0.00    -0.339 NA 
HETATM   23  H1  UNL     1     -13.301   7.865  72.594  1.00  0.00     0.000 HD 
HETATM   24  H2  UNL     1     -13.519   8.836  71.215  1.00  0.00     0.000 HD 
BRANCH  21  25
HETATM   25  C   UNL     1     -10.972   6.711  72.103  1.00  0.00    -0.245 C  
HETATM   26  H   UNL     1     -11.028   5.522  73.691  1.00  0.00     0.000 HD 
HETATM   27  O   UNL     1     -11.637   5.950  73.101  1.00  0.00    -0.115 OA 
BRANCH  25  28
HETATM   28  C   UNL     1     -10.027   5.823  71.269  1.00  0.00    -0.241 C  
HETATM   29  C   UNL     1      -8.657   6.345  70.774  1.00  0.00    -0.135 C  
HETATM   30  C   UNL     1      -8.104   5.187  69.918  1.00  0.00    -0.082 C  
HETATM   31  C   UNL     1      -7.652   6.761  71.886  1.00  0.00    -0.095 C  
HETATM   32  C   UNL     1      -6.353   7.368  71.338  1.00  0.00    -0.036 C  
HETATM   33  O   UNL     1      -8.229   4.002  70.222  1.00  0.00    -0.060 OA 
HETATM   34  N   UNL     1      -7.439   5.572  68.775  1.00  0.00    -0.078 N  
HETATM   35  C   UNL     1      -7.340   5.633  72.877  1.00  0.00    -0.092 C  
HETATM   36  H   UNL     1      -7.272   6.562  68.594  1.00  0.00     0.000 HD 
BRANCH  34  37
HETATM   37  C   UNL     1      -6.974   4.578  67.824  1.00  0.00    -0.060 C  
BRANCH  37  38
HETATM   38  C   UNL     1      -7.764   4.571  66.505  1.00  0.00    -0.094 C  
HETATM   39  C   UNL     1      -7.722   3.158  65.883  1.00  0.00    -0.081 C  
HETATM   40  C   UNL     1      -9.229   4.975  66.743  1.00  0.00    -0.120 C  
BRANCH  38  41
HETATM   41  C   UNL     1      -7.107   5.554  65.526  1.00  0.00    -0.066 C  
HETATM   42  N   UNL     1      -7.653   6.796  65.428  1.00  0.00    -0.084 N  
HETATM   43  O   UNL     1      -6.123   5.280  64.844  1.00  0.00    -0.024 OA 
HETATM   44  H2  UNL     1      -8.466   7.064  65.983  1.00  0.00     0.000 HD 
HETATM   45  H1  UNL     1      -7.217   7.449  64.778  1.00  0.00     0.000 HD 
ENDBRANCH  38  41
ENDBRANCH  37  38
ENDBRANCH  34  37
ENDBRANCH  25  28
ENDBRANCH  21  25
ENDBRANCH  17  21
ENDBRANCH  11  15
ENDBRANCH   6   7
ENDBRANCH   5   6
ENDBRANCH   4   5
ENDBRANCH   3   4
ENDBRANCH   2   3
TORSDOF 13
ENDMDL
MODEL      181
REMARK 921   NORMALIZED FREE ENERGY PREDICTED BY IDOCK:    0.09 KCAL/MOL
REMARK 922        TOTAL FREE ENERGY PREDICTED BY IDOCK:   -2.15 KCAL/MOL
REMARK 923 INTER-LIGAND FREE ENERGY PREDICTED BY IDOCK:   -4.09 KCAL/MOL
REMARK 924 INTRA-LIGAND FREE ENERGY PREDICTED BY IDOCK:    1.94 KCAL/MOL
REMARK 927      BINDING AFFINITY PREDICTED BY RF-SCORE:    0.00 PKD
ROOT
HETATM    1  C   UNL     1     -10.384  12.077  64.789  1.00  0.00    -0.280 C  
HETATM    2  O   UNL     1     -10.792  10.747  65.080  1.00  0.00    -0.152 OA 
ENDROOT
BRANCH   2   3
HETATM    3  C   UNL     1     -10.043  10.207  66.168  1.00  0.00    -0.246 C  
BRANCH   3   4
HETATM    4  C   UNL     1     -10.994   9.743  67.263  1.00  0.00    -0.142 C  
BRANCH   4   5
HETATM    5  C   UNL     1     -10.526   8.487  67.999  1.00  0.00    -0.191 C  
BRANCH   5   6
HETATM    6  O   UNL     1     -10.380   8.758  69.390  1.00  0.00    -0.206 OA 
BRANCH   6   7
HETATM    7  C   UNL     1     -11.043   9.816  69.961  1.00  0.00    -0.267 A  
HETATM    8  C   UNL     1     -12.193   9.474  70.706  1.00  0.00    -0.196 A  
HETATM    9  C   UNL     1     -13.019  10.487  71.201  1.00  0.00    -0.506 A  
HETATM   10  C   UNL     1     -10.741  11.162  69.723  1.00  0.00    -0.069 A  
HETATM   11  C   UNL     1     -11.617  12.177  70.151  1.00  0.00    -0.202 A  
HETATM   12  C   UNL     1     -12.740  11.824  70.905  1.00  0.00    -0.328 A  
BRANCH   8  13
HETATM   13  O   UNL     1     -12.423   8.130  70.879  1.00  0.00    -0.163 OA 
HETATM   14  C   UNL     1     -11.296   7.280  71.035  1.00  0.00    -0.274 C  
ENDBRANCH   8  13
BRANCH  11  15
HETATM   15  C   UNL     1     -11.479  13.592  69.625  1.00  0.00    -0.283 C  
HETATM   16  C   UNL     1     -11.135  14.778  70.562  1.00  0.00    -0.131 C  
HETATM   17  C   UNL     1     -10.845  16.060  69.691  1.00  0.00    -0.329 C  
HETATM   18  C   UNL     1     -12.207  15.147  71.634  1.00  0.00    -0.412 C  
HETATM   19  C   UNL     1     -12.335  14.103  72.745  1.00  0.00    -0.037 C  
HETATM   20  C   UNL     1     -13.581  15.479  71.049  1.00  0.00    -0.377 C  
BRANCH  17  21
HETATM   21  C   UNL     1      -9.632  15.963  68.743  1.00  0.00    -0.219 C  
HETATM   22  N   UNL     1      -9.794  17.001  67.719  1.00  0.00    -0.264 NA 
HETATM   23  H1  UNL     1      -8.993  16.937  67.091  1.00  0.00     0.000 HD 
HETATM   24  H2  UNL     1      -9.919  17.934  68.112  1.00  0.00     0.000 HD 
BRANCH  21  25
HETATM   25  C   UNL     1      -9.430  14.535  68.108  1.00  0.00    -0.208 C  
HETATM   26  H   UNL     1      -8.960  13.745  66.350  1.00  0.00     0.000 HD 
HETATM   27  O   UNL     1      -9.082  14.606  66.733  1.00  0.00    -0.241 OA 
BRANCH  25  28
HETATM   28  C   UNL     1      -8.348  13.789  68.915  1.00  0.00     0.111 C  
HETATM   29  C   UNL     1      -7.176  13.063  68.214  1.00  0.00    -0.113 C  
HETATM   30  C   UNL     1      -6.411  12.387  69.370  1.00  0.00    -0.119 C  
HETATM   31  C   UNL     1      -6.238  13.964  67.360  1.00  0.00     0.154 C  
HETATM   32  C   UNL     1      -5.158  13.178  66.604  1.00  0.00     1.556 C  
HETATM   33  O   UNL     1      -6.228  12.921  70.463  1.00  0.00    -0.075 OA 
HETATM   34  N   UNL     1      -5.925  11.128  69.092  1.00  0.00    -0.042 N  
HETATM   35  C   UNL     1      -5.607  15.111  68.157  1.00  0.00    -0.130 C  
HETATM   36  H   UNL     1      -6.013  10.748  68.150  1.00  0.00     0.000 HD 
BRANCH  34  37
HETATM   37  C   UNL     1      -5.290  10.339  70.132  1.00  0.00    -0.042 C  
BRANCH  37  38
HETATM   38  C   UNL     1      -6.272   9.456  70.921  1.00  0.00    -0.074 C  
HETATM   39  C   UNL     1      -5.928   9.514  72.425  1.00  0.00     0.225 C  
HETATM   40  C   UNL     1      -7.720   9.930  70.714  1.00  0.00     0.280 C  
BRANCH  38  41
HETATM   41  C   UNL     1      -6.128   8.004  70.445  1.00  0.00    -0.029 C  
HETATM   42  N   UNL     1      -5.400   7.786  69.317  1.00  0.00    -0.022 N  
HETATM   43  O   UNL     1      -6.625   7.043  71.029  1.00  0.00    -0.047 OA 
HETATM   44  H2  UNL     1      -4.966   8.556  68.808  1.00  0.00     0.000 HD 
HETATM   45  H1  UNL     1      -5.304   6.821  69.000  1.00  0.00     0.000 HD 
ENDBRANCH  38  41
ENDBRANCH  37  38
ENDBRANCH  34  37
ENDBRANCH  25  28
ENDBRANCH  21  25
ENDBRANCH  17  21
ENDBRANCH  11  15
ENDBRANCH   6   7
ENDBRANCH   5   6
ENDBRANCH   4   5
ENDBRANCH   3   4
ENDBRANCH   2   3
TORSDOF 13
ENDMDL
MODEL      182
REMARK 921   NORMALIZED FREE ENERGY PREDICTED BY IDOCK:    0.17 KCAL/MOL
REMARK 922        TOTAL FREE ENERGY PREDICTED BY IDOCK:   -2.01 KCAL/MOL
REMARK 923 INTER-LIGAND FREE ENERGY PREDICTED BY IDOCK:   -3.32 KCAL/MOL
REMARK 924 INTRA-LIGAND FREE ENERGY PREDICTED BY IDOCK:    1.31 KCAL/MOL
REMARK 927      BINDING AFFINITY PREDICTED BY RF-SCORE:    0.00 PKD
ROOT
HETATM    1  C   UNL     1     -11.327  16.242  72.652  1.00  0.00     0.416 C  
HETATM    2  O   UNL     1     -11.359  14.959  72.043  1.00  0.00    -0.286 OA 
ENDROOT
BRANCH   2   3
HETATM    3  C   UNL     1     -11.167  15.055  70.632  1.00  0.00    -0.242 C  
BRANCH   3   4
HETATM    4  C   UNL     1     -10.691  16.457  70.275  1.00  0.00    -0.138 C  
BRANCH   4   5
HETATM    5  C   UNL     1     -11.629  17.206  69.328  1.00  0.00     1.111 C  
BRANCH   5   6
HETATM    6  O   UNL     1     -10.908  17.681  68.195  1.00  0.00    -0.349 OA 
BRANCH   6   7
HETATM    7  C   UNL     1     -10.338  16.792  67.317  1.00  0.00    -0.304 A  
HETATM    8  C   UNL     1     -10.294  17.220  65.972  1.00  0.00    -0.305 A  
HETATM    9  C   UNL     1      -9.871  16.331  64.981  1.00  0.00     0.673 A  
HETATM   10  C   UNL     1      -9.960  15.485  67.647  1.00  0.00    -0.233 A  
HETATM   11  C   UNL     1      -9.613  14.567  66.638  1.00  0.00    -0.291 A  
HETATM   12  C   UNL     1      -9.555  15.011  65.314  1.00  0.00     0.008 A  
BRANCH   8  13
HETATM   13  O   UNL     1     -10.698  18.512  65.736  1.00  0.00    -0.489 OA 
HETATM   14  C   UNL     1      -9.696  19.518  65.675  1.00  0.00     0.169 C  
ENDBRANCH   8  13
BRANCH  11  15
HETATM   15  C   UNL     1      -9.523  13.084  66.938  1.00  0.00    -0.242 C  
HETATM   16  C   UNL     1     -10.596  12.085  66.435  1.00  0.00    -0.278 C  
HETATM   17  C   UNL     1     -10.107  10.613  66.714  1.00  0.00    -0.272 C  
HETATM   18  C   UNL     1     -12.028  12.248  67.032  1.00  0.00    -0.213 C  
HETATM   19  C   UNL     1     -12.747  13.508  66.546  1.00  0.00     0.020 C  
HETATM   20  C   UNL     1     -12.076  12.158  68.559  1.00  0.00    -0.115 C  
BRANCH  17  21
HETATM   21  C   UNL     1      -8.819  10.186  65.982  1.00  0.00    -0.143 C  
HETATM   22  N   UNL     1      -9.098   8.908  65.316  1.00  0.00    -0.379 NA 
HETATM   23  H1  UNL     1      -8.247   8.625  64.831  1.00  0.00     0.000 HD 
HETATM   24  H2  UNL     1      -9.912   8.947  64.702  1.00  0.00     0.000 HD 
BRANCH  21  25
HETATM   25  C   UNL     1      -7.552  10.100  66.914  1.00  0.00    -0.100 C  
HETATM   26  H   UNL     1      -6.952  10.794  68.673  1.00  0.00     0.000 HD 
HETATM   27  O   UNL     1      -7.717  10.845  68.111  1.00  0.00    -0.097 OA 
BRANCH  25  28
HETATM   28  C   UNL     1      -7.270   8.615  67.221  1.00  0.00    -0.080 C  
HETATM   29  C   UNL     1      -7.505   7.514  66.161  1.00  0.00    -0.083 C  
HETATM   30  C   UNL     1      -7.194   6.202  66.911  1.00  0.00    -0.074 C  
HETATM   31  C   UNL     1      -6.661   7.639  64.859  1.00  0.00    -0.047 C  
HETATM   32  C   UNL     1      -7.010   6.582  63.802  1.00  0.00    -0.051 C  
HETATM   33  O   UNL     1      -6.270   6.085  67.714  1.00  0.00    -0.026 OA 
HETATM   34  N   UNL     1      -8.026   5.146  66.610  1.00  0.00    -0.104 N  
HETATM   35  C   UNL     1      -5.149   7.662  65.115  1.00  0.00    -0.029 C  
HETATM   36  H   UNL     1      -8.725   5.245  65.874  1.00  0.00     0.000 HD 
BRANCH  34  37
HETATM   37  C   UNL     1      -7.914   3.892  67.333  1.00  0.00    -0.091 C  
BRANCH  37  38
HETATM   38  C   UNL     1      -9.050   3.660  68.343  1.00  0.00    -0.200 C  
HETATM   39  C   UNL     1     -10.232   4.600  68.018  1.00  0.00    -0.008 C  
HETATM   40  C   UNL     1      -9.535   2.202  68.295  1.00  0.00    -0.232 C  
BRANCH  38  41
HETATM   41  C   UNL     1      -8.539   3.991  69.752  1.00  0.00    -0.061 C  
HETATM   42  N   UNL     1      -7.202   4.198  69.898  1.00  0.00    -0.045 N  
HETATM   43  O   UNL     1      -9.268   4.084  70.737  1.00  0.00    -0.104 OA 
HETATM   44  H2  UNL     1      -6.566   4.137  69.104  1.00  0.00     0.000 HD 
HETATM   45  H1  UNL     1      -6.863   4.418  70.834  1.00  0.00     0.000 HD 
ENDBRANCH  38  41
ENDBRANCH  37  38
ENDBRANCH  34  37
ENDBRANCH  25  28
ENDBRANCH  21  25
ENDBRANCH  17  21
ENDBRANCH  11  15
ENDBRANCH   6   7
ENDBRANCH   5   6
ENDBRANCH   4   5
ENDBRANCH   3   4
ENDBRANCH   2   3
TORSDOF 13
ENDMDL
MODEL      183
REMARK 921   NORMALIZED FREE ENERGY PREDICTED BY IDOCK:    0.22 KCAL/MOL
REMARK 922        TOTAL FREE ENERGY PREDICTED BY IDOCK:   -1.92 KCAL/MOL
REMARK 923 INTER-LIGAND FREE ENERGY PREDICTED BY IDOCK:   -2.01 KCAL/MOL
REMARK 924 INTRA-LIGAND FREE ENERGY PREDICTED BY IDOCK:    0.09 KCAL/MOL
REMARK 927      BINDING AFFINITY PREDICTED BY RF-SCORE:    0.00 PKD
ROOT
HETATM    1  C   UNL     1     -13.875  14.843  64.498  1.00  0.00     3.405 C  
HETATM    2  O   UNL     1     -12.991  14.041  65.268  1.00  0.00    -0.743 OA 
ENDROOT
BRANCH   2   3
HETATM    3  C   UNL     1     -12.039  13.381  64.435  1.00  0.00    -0.416 C  
BRANCH   3   4
HETATM    4  C   UNL     1     -11.888  11.932  64.879  1.00  0.00    -0.236 C  
BRANCH   4   5
HETATM    5  C   UNL     1     -10.697  11.211  64.248  1.00  0.00    -0.333 C  
BRANCH   5   6
HETATM    6  O   UNL     1      -9.755  10.844  65.252  1.00  0.00    -0.215 OA 
BRANCH   6   7
HETATM    7  C   UNL     1     -10.136  10.033  66.293  1.00  0.00    -0.243 A  
HETATM    8  C   UNL     1     -10.536  10.709  67.466  1.00  0.00    -0.230 A  
HETATM    9  C   UNL     1     -10.798   9.976  68.627  1.00  0.00    -0.265 A  
HETATM   10  C   UNL     1     -10.003   8.639  66.300  1.00  0.00    -0.287 A  
HETATM   11  C   UNL     1     -10.187   7.911  67.491  1.00  0.00    -0.308 A  
HETATM   12  C   UNL     1     -10.603   8.592  68.639  1.00  0.00    -0.165 A  
BRANCH   8  13
HETATM   13  O   UNL     1     -10.624  12.077  67.375  1.00  0.00    -0.215 OA 
HETATM   14  C   UNL     1     -10.649  12.821  68.585  1.00  0.00    -0.233 C  
ENDBRANCH   8  13
BRANCH  11  15
HETATM   15  C   UNL     1      -9.734   6.469  67.595  1.00  0.00    -0.137 C  
HETATM   16  C   UNL     1      -8.268   6.100  67.935  1.00  0.00    -0.117 C  
HETATM   17  C   UNL     1      -8.168   4.547  68.188  1.00  0.00    -0.090 C  
HETATM   18  C   UNL     1      -7.191   6.494  66.878  1.00  0.00    -0.078 C  
HETATM   19  C   UNL     1      -6.955   8.003  66.788  1.00  0.00    -0.073 C  
HETATM   20  C   UNL     1      -7.444   5.907  65.487  1.00  0.00    -0.082 C  
BRANCH  17  21
HETATM   21  C   UNL     1      -8.981   4.011  69.383  1.00  0.00    -0.108 C  
HETATM   22  N   UNL     1     -10.401   4.213  69.073  1.00  0.00     0.477 NA 
HETATM   23  H1  UNL     1     -10.939   3.858  69.864  1.00  0.00     0.000 HD 
HETATM   24  H2  UNL     1     -10.678   3.797  68.184  1.00  0.00     0.000 HD 
BRANCH  21  25
HETATM   25  C   UNL     1      -8.583   4.653  70.766  1.00  0.00    -0.097 C  
HETATM   26  H   UNL     1      -7.953   4.062  72.552  1.00  0.00     0.000 HD 
HETATM   27  O   UNL     1      -8.192   3.675  71.718  1.00  0.00    -0.065 OA 
BRANCH  25  28
HETATM   28  C   UNL     1      -7.451   5.673  70.525  1.00  0.00    -0.085 C  
HETATM   29  C   UNL     1      -7.409   7.024  71.276  1.00  0.00    -0.080 C  
HETATM   30  C   UNL     1      -6.191   7.751  70.669  1.00  0.00    -0.037 C  
HETATM   31  C   UNL     1      -7.301   6.931  72.826  1.00  0.00    -0.078 C  
HETATM   32  C   UNL     1      -7.369   8.295  73.526  1.00  0.00    -0.168 C  
HETATM   33  O   UNL     1      -5.139   7.183  70.380  1.00  0.00    -0.022 OA 
HETATM   34  N   UNL     1      -6.356   9.105  70.476  1.00  0.00    -0.046 N  
HETATM   35  C   UNL     1      -6.075   6.144  73.304  1.00  0.00    -0.061 C  
HETATM   36  H   UNL     1      -7.203   9.565  70.808  1.00  0.00     0.000 HD 
BRANCH  34  37
HETATM   37  C   UNL     1      -5.330   9.882  69.804  1.00  0.00    -0.037 C  
BRANCH  37  38
HETATM   38  C   UNL     1      -5.842  11.217  69.237  1.00  0.00    -0.044 C  
HETATM   39  C   UNL     1      -7.384  11.255  69.314  1.00  0.00    -0.068 C  
HETATM   40  C   UNL     1      -5.266  12.404  70.027  1.00  0.00    -0.093 C  
BRANCH  38  41
HETATM   41  C   UNL     1      -5.425  11.324  67.764  1.00  0.00    -0.044 C  
HETATM   42  N   UNL     1      -5.198  10.162  67.093  1.00  0.00    -0.041 N  
HETATM   43  O   UNL     1      -5.298  12.391  67.167  1.00  0.00    -0.248 OA 
HETATM   44  H2  UNL     1      -5.299   9.257  67.551  1.00  0.00     0.000 HD 
HETATM   45  H1  UNL     1      -4.921  10.233  66.115  1.00  0.00     0.000 HD 
ENDBRANCH  38  41
ENDBRANCH  37  38
ENDBRANCH  34  37
ENDBRANCH  25  28
ENDBRANCH  21  25
ENDBRANCH  17  21
ENDBRANCH  11  15
ENDBRANCH   6   7
ENDBRANCH   5   6
ENDBRANCH   4   5
ENDBRANCH   3   4
ENDBRANCH   2   3
TORSDOF 13
ENDMDL
MODEL      184
REMARK 921   NORMALIZED FREE ENERGY PREDICTED BY IDOCK:    0.38 KCAL/MOL
REMARK 922        TOTAL FREE ENERGY PREDICTED BY IDOCK:   -1.63 KCAL/MOL
REMARK 923 INTER-LIGAND FREE ENERGY PREDICTED BY IDOCK:   -4.85 KCAL/MOL
REMARK 924 INTRA-LIGAND FREE ENERGY PREDICTED BY IDOCK:    3.21 KCAL/MOL
REMARK 927      BINDING AFFINITY PREDICTED BY RF-SCORE:    0.00 PKD
ROOT
HETATM    1  C   UNL     1     -11.665  11.910  68.056  1.00  0.00    -0.312 C  
HETATM    2  O   UNL     1     -11.575  10.739  68.854  1.00  0.00    -0.281 OA 
ENDROOT
BRANCH   2   3
HETATM    3  C   UNL     1     -11.505  11.066  70.241  1.00  0.00    -0.273 C  
BRANCH   3   4
HETATM    4  C   UNL     1     -12.794  10.641  70.933  1.00  0.00    -0.473 C  
BRANCH   4   5
HETATM    5  C   UNL     1     -12.727   9.253  71.568  1.00  0.00    -0.350 C  
BRANCH   5   6
HETATM    6  O   UNL     1     -11.475   9.070  72.221  1.00  0.00    -0.323 OA 
BRANCH   6   7
HETATM    7  C   UNL     1     -10.371   8.680  71.502  1.00  0.00    -0.271 A  
HETATM    8  C   UNL     1      -9.184   8.540  72.252  1.00  0.00    -0.272 A  
HETATM    9  C   UNL     1      -7.977   8.293  71.591  1.00  0.00    -0.157 A  
HETATM   10  C   UNL     1     -10.333   8.573  70.106  1.00  0.00    -0.214 A  
HETATM   11  C   UNL     1      -9.105   8.407  69.437  1.00  0.00    -0.154 A  
HETATM   12  C   UNL     1      -7.942   8.250  70.195  1.00  0.00    -0.106 A  
BRANCH   8  13
HETATM   13  O   UNL     1      -9.309   8.676  73.614  1.00  0.00     0.133 OA 
HETATM   14  C   UNL     1      -8.162   9.078  74.348  1.00  0.00     0.999 C  
ENDBRANCH   8  13
BRANCH  11  15
HETATM   15  C   UNL     1      -9.006   8.617  67.940  1.00  0.00    -0.142 C  
HETATM   16  C   UNL     1     -10.212   8.360  67.000  1.00  0.00    -0.377 C  
HETATM   17  C   UNL     1      -9.862   8.878  65.553  1.00  0.00     0.142 C  
HETATM   18  C   UNL     1     -10.698   6.883  66.888  1.00  0.00    -0.386 C  
HETATM   19  C   UNL     1     -11.380   6.371  68.159  1.00  0.00    -0.097 C  
HETATM   20  C   UNL     1      -9.614   5.905  66.430  1.00  0.00    -0.173 C  
BRANCH  17  21
HETATM   21  C   UNL     1      -9.602  10.393  65.430  1.00  0.00    -0.246 C  
HETATM   22  N   UNL     1      -9.802  10.758  64.022  1.00  0.00    -0.304 NA 
HETATM   23  H1  UNL     1      -9.630  11.760  63.940  1.00  0.00     0.000 HD 
HETATM   24  H2  UNL     1     -10.715  10.479  63.663  1.00  0.00     0.000 HD 
BRANCH  21  25
HETATM   25  C   UNL     1      -8.189  10.845  65.961  1.00  0.00    -0.155 C  
HETATM   26  H   UNL     1      -7.395  11.593  67.617  1.00  0.00     0.000 HD 
HETATM   27  O   UNL     1      -8.247  11.320  67.298  1.00  0.00    -0.130 OA 
BRANCH  25  28
HETATM   28  C   UNL     1      -7.217   9.655  65.838  1.00  0.00    -0.099 C  
HETATM   29  C   UNL     1      -7.466   8.509  64.829  1.00  0.00    -0.095 C  
HETATM   30  C   UNL     1      -6.325   7.509  65.110  1.00  0.00    -0.038 C  
HETATM   31  C   UNL     1      -7.500   8.927  63.330  1.00  0.00    -0.105 C  
HETATM   32  C   UNL     1      -7.855   7.772  62.384  1.00  0.00    -0.132 C  
HETATM   33  O   UNL     1      -5.173   7.853  65.366  1.00  0.00    -0.028 OA 
HETATM   34  N   UNL     1      -6.684   6.181  65.044  1.00  0.00    -0.042 N  
HETATM   35  C   UNL     1      -6.219   9.627  62.864  1.00  0.00    -0.103 C  
HETATM   36  H   UNL     1      -7.623   5.924  64.741  1.00  0.00     0.000 HD 
BRANCH  34  37
HETATM   37  C   UNL     1      -5.733   5.144  65.402  1.00  0.00    -0.014 C  
BRANCH  37  38
HETATM   38  C   UNL     1      -6.373   3.757  65.577  1.00  0.00    -0.032 C  
HETATM   39  C   UNL     1      -7.605   3.634  64.655  1.00  0.00    -0.076 C  
HETATM   40  C   UNL     1      -5.369   2.644  65.230  1.00  0.00    -0.009 C  
BRANCH  38  41
HETATM   41  C   UNL     1      -6.836   3.602  67.032  1.00  0.00    -0.050 C  
HETATM   42  N   UNL     1      -7.530   2.476  67.350  1.00  0.00    -0.060 N  
HETATM   43  O   UNL     1      -6.607   4.429  67.912  1.00  0.00    -0.041 OA 
HETATM   44  H2  UNL     1      -7.735   1.763  66.650  1.00  0.00     0.000 HD 
HETATM   45  H1  UNL     1      -7.839   2.373  68.316  1.00  0.00     0.000 HD 
ENDBRANCH  38  41
ENDBRANCH  37  38
ENDBRANCH  34  37
ENDBRANCH  25  28
ENDBRANCH  21  25
ENDBRANCH  17  21
ENDBRANCH  11  15
ENDBRANCH   6   7
ENDBRANCH   5   6
ENDBRANCH   4   5
ENDBRANCH   3   4
ENDBRANCH   2   3
TORSDOF 13
ENDMDL
MODEL      185
REMARK 921   NORMALIZED FREE ENERGY PREDICTED BY IDOCK:    0.69 KCAL/MOL
REMARK 922        TOTAL FREE ENERGY PREDICTED BY IDOCK:   -1.09 KCAL/MOL
REMARK 923 INTER-LIGAND FREE ENERGY PREDICTED BY IDOCK:   -2.33 KCAL/MOL
REMARK 924 INTRA-LIGAND FREE ENERGY PREDICTED BY IDOCK:    1.24 KCAL/MOL
REMARK 927      BINDING AFFINITY PREDICTED BY RF-SCORE:    0.00 PKD
ROOT
HETATM    1  C   UNL     1     -11.825  11.796  68.104  1.00  0.00    -0.254 C  
HETATM    2  O   UNL     1     -11.661  10.559  68.782  1.00  0.00    -0.252 OA 
ENDROOT
BRANCH   2   3
HETATM    3  C   UNL     1     -11.503  10.760  70.186  1.00  0.00    -0.331 C  
BRANCH   3   4
HETATM    4  C   UNL     1     -12.656  10.099  70.930  1.00  0.00    -0.454 C  
BRANCH   4   5
HETATM    5  C   UNL     1     -12.426   8.620  71.240  1.00  0.00    -0.252 C  
BRANCH   5   6
HETATM    6  O   UNL     1     -11.214   8.451  71.968  1.00  0.00    -0.287 OA 
BRANCH   6   7
HETATM    7  C   UNL     1     -10.022   8.301  71.301  1.00  0.00    -0.192 A  
HETATM    8  C   UNL     1      -8.944   7.849  72.091  1.00  0.00    -0.146 A  
HETATM    9  C   UNL     1      -7.659   7.806  71.543  1.00  0.00    -0.082 A  
HETATM   10  C   UNL     1      -9.799   8.704  69.979  1.00  0.00    -0.185 A  
HETATM   11  C   UNL     1      -8.493   8.738  69.454  1.00  0.00    -0.125 A  
HETATM   12  C   UNL     1      -7.439   8.268  70.242  1.00  0.00    -0.066 A  
BRANCH   8  13
HETATM   13  O   UNL     1      -9.249   7.489  73.382  1.00  0.00    -0.181 OA 
HETATM   14  C   UNL     1      -8.397   6.554  74.028  1.00  0.00    -0.120 C  
ENDBRANCH   8  13
BRANCH  11  15
HETATM   15  C   UNL     1      -8.197   9.470  68.161  1.00  0.00    -0.114 C  
HETATM   16  C   UNL     1      -9.249   9.576  67.027  1.00  0.00    -0.166 C  
HETATM   17  C   UNL     1      -8.727  10.576  65.926  1.00  0.00    -0.178 C  
HETATM   18  C   UNL     1      -9.649   8.241  66.327  1.00  0.00    -0.266 C  
HETATM   19  C   UNL     1     -10.475   7.313  67.220  1.00  0.00    -0.380 C  
HETATM   20  C   UNL     1      -8.468   7.484  65.714  1.00  0.00    -0.151 C  
BRANCH  17  21
HETATM   21  C   UNL     1      -8.522  12.032  66.389  1.00  0.00     0.008 C  
HETATM   22  N   UNL     1      -8.539  12.879  65.189  1.00  0.00     1.339 NA 
HETATM   23  H1  UNL     1      -8.403  13.842  65.495  1.00  0.00     0.000 HD 
HETATM   24  H2  UNL     1      -9.380  12.754  64.626  1.00  0.00     0.000 HD 
BRANCH  21  25
HETATM   25  C   UNL     1      -7.219  12.253  67.246  1.00  0.00    -0.138 C  
HETATM   26  H   UNL     1      -5.264  11.959  67.080  1.00  0.00     0.000 HD 
HETATM   27  O   UNL     1      -6.049  11.827  66.562  1.00  0.00    -0.127 OA 
BRANCH  25  28
HETATM   28  C   UNL     1      -7.126  13.746  67.621  1.00  0.00    -0.187 C  
HETATM   29  C   UNL     1      -8.384  14.645  67.670  1.00  0.00    -0.186 C  
HETATM   30  C   UNL     1      -7.828  16.049  67.984  1.00  0.00    -0.137 C  
HETATM   31  C   UNL     1      -9.475  14.223  68.697  1.00  0.00    -0.178 C  
HETATM   32  C   UNL     1     -10.743  15.085  68.629  1.00  0.00    -0.244 C  
HETATM   33  O   UNL     1      -6.906  16.250  68.773  1.00  0.00    -0.135 OA 
HETATM   34  N   UNL     1      -8.448  17.085  67.320  1.00  0.00    -0.191 N  
HETATM   35  C   UNL     1      -8.957  14.144  70.137  1.00  0.00     1.943 C  
HETATM   36  H   UNL     1      -9.267  16.898  66.743  1.00  0.00     0.000 HD 
BRANCH  34  37
HETATM   37  C   UNL     1      -7.943  18.441  67.438  1.00  0.00    -0.238 C  
BRANCH  37  38
HETATM   38  C   UNL     1      -8.554  19.416  66.417  1.00  0.00    -0.372 C  
HETATM   39  C   UNL     1      -7.473  20.408  65.937  1.00  0.00    -0.157 C  
HETATM   40  C   UNL     1      -9.118  18.656  65.205  1.00  0.00     1.904 C  
BRANCH  38  41
HETATM   41  C   UNL     1      -9.676  20.211  67.099  1.00  0.00    -0.439 C  
HETATM   42  N   UNL     1     -10.911  19.642  67.136  1.00  0.00    -0.465 N  
HETATM   43  O   UNL     1      -9.513  21.316  67.612  1.00  0.00    -0.147 OA 
HETATM   44  H2  UNL     1     -11.085  18.724  66.727  1.00  0.00     0.000 HD 
HETATM   45  H1  UNL     1     -11.656  20.170  67.588  1.00  0.00     0.000 HD 
ENDBRANCH  38  41
ENDBRANCH  37  38
ENDBRANCH  34  37
ENDBRANCH  25  28
ENDBRANCH  21  25
ENDBRANCH  17  21
ENDBRANCH  11  15
ENDBRANCH   6   7
ENDBRANCH   5   6
ENDBRANCH   4   5
ENDBRANCH   3   4
ENDBRANCH   2   3
TORSDOF 13
ENDMDL
MODEL      186
REMARK 921   NORMALIZED FREE ENERGY PREDICTED BY IDOCK:    0.77 KCAL/MOL
REMARK 922        TOTAL FREE ENERGY PREDICTED BY IDOCK:   -0.95 KCAL/MOL
REMARK 923 INTER-LIGAND FREE ENERGY PREDICTED BY IDOCK:   -1.49 KCAL/MOL
REMARK 924 INTRA-LIGAND FREE ENERGY PREDICTED BY IDOCK:    0.53 KCAL/MOL
REMARK 927      BINDING AFFINITY PREDICTED BY RF-SCORE:    0.00 PKD
ROOT
HETATM    1  C   UNL     1      -9.469  20.782  66.828  1.00  0.00    -0.083 C  
HETATM    2  O   UNL     1      -8.263  20.323  66.234  1.00  0.00    -0.249 OA 
ENDROOT
BRANCH   2   3
HETATM    3  C   UNL     1      -7.206  20.270  67.191  1.00  0.00    -0.285 C  
BRANCH   3   4
HETATM    4  C   UNL     1      -7.163  18.889  67.831  1.00  0.00    -0.260 C  
BRANCH   4   5
HETATM    5  C   UNL     1      -5.887  18.615  68.627  1.00  0.00    -0.203 C  
BRANCH   5   6
HETATM    6  O   UNL     1      -6.157  17.709  69.692  1.00  0.00    -0.243 OA 
BRANCH   6   7
HETATM    7  C   UNL     1      -7.024  16.660  69.505  1.00  0.00    -0.111 A  
HETATM    8  C   UNL     1      -6.586  15.674  68.595  1.00  0.00    -0.110 A  
HETATM    9  C   UNL     1      -7.457  14.646  68.223  1.00  0.00    -0.117 A  
HETATM   10  C   UNL     1      -8.322  16.604  70.025  1.00  0.00     1.540 A  
HETATM   11  C   UNL     1      -9.225  15.616  69.586  1.00  0.00    -0.189 A  
HETATM   12  C   UNL     1      -8.770  14.635  68.701  1.00  0.00    -0.174 A  
BRANCH   8  13
HETATM   13  O   UNL     1      -5.304  15.814  68.121  1.00  0.00    -0.099 OA 
HETATM   14  C   UNL     1      -5.132  16.012  66.725  1.00  0.00     0.645 C  
ENDBRANCH   8  13
BRANCH  11  15
HETATM   15  C   UNL     1     -10.706  15.735  69.882  1.00  0.00    -0.332 C  
HETATM   16  C   UNL     1     -11.764  14.950  69.065  1.00  0.00    -0.347 C  
HETATM   17  C   UNL     1     -13.174  15.110  69.751  1.00  0.00     0.527 C  
HETATM   18  C   UNL     1     -11.905  15.340  67.561  1.00  0.00    -0.041 C  
HETATM   19  C   UNL     1     -10.705  14.915  66.711  1.00  0.00    -0.312 C  
HETATM   20  C   UNL     1     -12.229  16.817  67.331  1.00  0.00     2.207 C  
BRANCH  17  21
HETATM   21  C   UNL     1     -13.293  14.533  71.176  1.00  0.00    -0.354 C  
HETATM   22  N   UNL     1     -13.264  15.664  72.111  1.00  0.00    -0.447 NA 
HETATM   23  H1  UNL     1     -13.342  15.282  73.053  1.00  0.00     0.000 HD 
HETATM   24  H2  UNL     1     -13.972  16.369  71.906  1.00  0.00     0.000 HD 
BRANCH  21  25
HETATM   25  C   UNL     1     -12.197  13.455  71.523  1.00  0.00     0.134 C  
HETATM   26  H   UNL     1     -11.769  12.191  72.991  1.00  0.00     0.000 HD 
HETATM   27  O   UNL     1     -12.430  12.841  72.782  1.00  0.00     0.577 OA 
BRANCH  25  28
HETATM   28  C   UNL     1     -12.168  12.406  70.393  1.00  0.00    -0.370 C  
HETATM   29  C   UNL     1     -11.466  11.040  70.578  1.00  0.00    -0.241 C  
HETATM   30  C   UNL     1     -11.594  10.364  69.197  1.00  0.00    -0.164 C  
HETATM   31  C   UNL     1     -12.037  10.136  71.709  1.00  0.00    -0.259 C  
HETATM   32  C   UNL     1     -11.238   8.842  71.917  1.00  0.00    -0.447 C  
HETATM   33  O   UNL     1     -12.604  10.439  68.499  1.00  0.00     0.493 OA 
HETATM   34  N   UNL     1     -10.488   9.649  68.792  1.00  0.00    -0.209 N  
HETATM   35  C   UNL     1     -13.528   9.825  71.543  1.00  0.00    -0.417 C  
HETATM   36  H   UNL     1      -9.701   9.529  69.429  1.00  0.00     0.000 HD 
BRANCH  34  37
HETATM   37  C   UNL     1     -10.437   9.064  67.464  1.00  0.00    -0.272 C  
BRANCH  37  38
HETATM   38  C   UNL     1      -9.377   9.703  66.552  1.00  0.00    -0.212 C  
HETATM   39  C   UNL     1      -8.107  10.018  67.373  1.00  0.00    -0.114 C  
HETATM   40  C   UNL     1      -9.010   8.759  65.395  1.00  0.00    -0.211 C  
BRANCH  38  41
HETATM   41  C   UNL     1      -9.932  11.020  65.990  1.00  0.00    -0.237 C  
HETATM   42  N   UNL     1     -10.204  11.065  64.659  1.00  0.00    -0.307 N  
HETATM   43  O   UNL     1     -10.147  12.016  66.677  1.00  0.00    -0.196 OA 
HETATM   44  H2  UNL     1     -10.045  10.257  64.057  1.00  0.00     0.000 HD 
HETATM   45  H1  UNL     1     -10.572  11.940  64.286  1.00  0.00     0.000 HD 
ENDBRANCH  38  41
ENDBRANCH  37  38
ENDBRANCH  34  37
ENDBRANCH  25  28
ENDBRANCH  21  25
ENDBRANCH  17  21
ENDBRANCH  11  15
ENDBRANCH   6   7
ENDBRANCH   5   6
ENDBRANCH   4   5
ENDBRANCH   3   4
ENDBRANCH   2   3
TORSDOF 13
ENDMDL
MODEL      187
REMARK 921   NORMALIZED FREE ENERGY PREDICTED BY IDOCK:    1.40 KCAL/MOL
REMARK 922        TOTAL FREE ENERGY PREDICTED BY IDOCK:    0.16 KCAL/MOL
REMARK 923 INTER-LIGAND FREE ENERGY PREDICTED BY IDOCK:   -5.35 KCAL/MOL
REMARK 924 INTRA-LIGAND FREE ENERGY PREDICTED BY IDOCK:    5.51 KCAL/MOL
REMARK 927      BINDING AFFINITY PREDICTED BY RF-SCORE:    0.00 PKD
ROOT
HETATM    1  C   UNL     1     -13.646   7.730  71.844  1.00  0.00    -0.270 C  
HETATM    2  O   UNL     1     -12.421   8.238  71.333  1.00  0.00    -0.307 OA 
ENDROOT
BRANCH   2   3
HETATM    3  C   UNL     1     -11.312   7.775  72.102  1.00  0.00    -0.302 C  
BRANCH   3   4
HETATM    4  C   UNL     1     -11.294   6.252  72.109  1.00  0.00    -0.343 C  
BRANCH   4   5
HETATM    5  C   UNL     1     -10.462   5.637  70.984  1.00  0.00    -0.250 C  
BRANCH   5   6
HETATM    6  O   UNL     1      -9.341   6.466  70.691  1.00  0.00    -0.160 OA 
BRANCH   6   7
HETATM    7  C   UNL     1      -8.747   6.412  69.453  1.00  0.00    -0.129 A  
HETATM    8  C   UNL     1      -7.736   5.437  69.314  1.00  0.00    -0.085 A  
HETATM    9  C   UNL     1      -6.970   5.402  68.145  1.00  0.00    -0.061 A  
HETATM   10  C   UNL     1      -8.974   7.335  68.425  1.00  0.00    -0.126 A  
HETATM   11  C   UNL     1      -8.148   7.351  67.285  1.00  0.00    -0.112 A  
HETATM   12  C   UNL     1      -7.165   6.366  67.153  1.00  0.00    -0.075 A  
BRANCH   8  13
HETATM   13  O   UNL     1      -7.570   4.582  70.377  1.00  0.00    -0.052 OA 
HETATM   14  C   UNL     1      -8.178   4.935  71.611  1.00  0.00    -0.114 C  
ENDBRANCH   8  13
BRANCH  11  15
HETATM   15  C   UNL     1      -8.166   8.529  66.333  1.00  0.00    -0.108 C  
HETATM   16  C   UNL     1      -7.303   8.547  65.045  1.00  0.00    -0.086 C  
HETATM   17  C   UNL     1      -7.708   9.791  64.166  1.00  0.00    -0.134 C  
HETATM   18  C   UNL     1      -5.757   8.574  65.248  1.00  0.00    -0.044 C  
HETATM   19  C   UNL     1      -5.195   7.259  65.793  1.00  0.00    -0.024 C  
HETATM   20  C   UNL     1      -5.261   9.756  66.084  1.00  0.00    -0.039 C  
BRANCH  17  21
HETATM   21  C   UNL     1      -9.161   9.799  63.648  1.00  0.00    -0.232 C  
HETATM   22  N   UNL     1      -9.172  10.556  62.390  1.00  0.00    -0.371 NA 
HETATM   23  H1  UNL     1     -10.133  10.562  62.047  1.00  0.00     0.000 HD 
HETATM   24  H2  UNL     1      -8.506  10.201  61.704  1.00  0.00     0.000 HD 
BRANCH  21  25
HETATM   25  C   UNL     1     -10.206  10.362  64.684  1.00  0.00    -0.235 C  
HETATM   26  H   UNL     1     -11.582   9.666  65.932  1.00  0.00     0.000 HD 
HETATM   27  O   UNL     1     -10.951   9.327  65.308  1.00  0.00     2.177 OA 
BRANCH  25  28
HETATM   28  C   UNL     1      -9.452  11.208  65.729  1.00  0.00    -0.248 C  
HETATM   29  C   UNL     1      -9.851  12.674  66.020  1.00  0.00    -0.260 C  
HETATM   30  C   UNL     1      -8.794  13.154  67.036  1.00  0.00    -0.210 C  
HETATM   31  C   UNL     1     -11.295  12.886  66.558  1.00  0.00    -0.361 C  
HETATM   32  C   UNL     1     -11.672  14.364  66.729  1.00  0.00    -0.415 C  
HETATM   33  O   UNL     1      -8.364  12.449  67.948  1.00  0.00    -0.144 OA 
HETATM   34  N   UNL     1      -8.363  14.451  66.862  1.00  0.00    -0.394 N  
HETATM   35  C   UNL     1     -11.584  12.108  67.847  1.00  0.00    -0.413 C  
HETATM   36  H   UNL     1      -8.802  15.040  66.156  1.00  0.00     0.000 HD 
BRANCH  34  37
HETATM   37  C   UNL     1      -7.286  14.983  67.678  1.00  0.00    -0.188 C  
BRANCH  37  38
HETATM   38  C   UNL     1      -7.776  15.799  68.886  1.00  0.00    -0.186 C  
HETATM   39  C   UNL     1      -7.041  15.329  70.161  1.00  0.00     0.074 C  
HETATM   40  C   UNL     1      -7.514  17.299  68.675  1.00  0.00    -0.251 C  
BRANCH  38  41
HETATM   41  C   UNL     1      -9.280  15.556  69.074  1.00  0.00    -0.238 C  
HETATM   42  N   UNL     1      -9.674  14.290  69.376  1.00  0.00    -0.398 N  
HETATM   43  O   UNL     1     -10.130  16.438  68.975  1.00  0.00    -0.234 OA 
HETATM   44  H2  UNL     1      -8.999  13.532  69.474  1.00  0.00     0.000 HD 
HETATM   45  H1  UNL     1     -10.673  14.128  69.501  1.00  0.00     0.000 HD 
ENDBRANCH  38  41
ENDBRANCH  37  38
ENDBRANCH  34  37
ENDBRANCH  25  28
ENDBRANCH  21  25
ENDBRANCH  17  21
ENDBRANCH  11  15
ENDBRANCH   6   7
ENDBRANCH   5   6
ENDBRANCH   4   5
ENDBRANCH   3   4
ENDBRANCH   2   3
TORSDOF 13
ENDMDL
MODEL      188
REMARK 921   NORMALIZED FREE ENERGY PREDICTED BY IDOCK:    1.59 KCAL/MOL
REMARK 922        TOTAL FREE ENERGY PREDICTED BY IDOCK:    0.49 KCAL/MOL
REMARK 923 INTER-LIGAND FREE ENERGY PREDICTED BY IDOCK:    0.32 KCAL/MOL
REMARK 924 INTRA-LIGAND FREE ENERGY PREDICTED BY IDOCK:    0.17 KCAL/MOL
REMARK 927      BINDING AFFINITY PREDICTED BY RF-SCORE:    0.00 PKD
ROOT
HETATM    1  C   UNL     1     -11.540  18.404  65.993  1.00  0.00     2.217 C  
HETATM    2  O   UNL     1     -10.651  17.422  66.509  1.00  0.00    -0.285 OA 
ENDROOT
BRANCH   2   3
HETATM    3  C   UNL     1     -10.473  16.352  65.582  1.00  0.00    -0.347 C  
BRANCH   3   4
HETATM    4  C   UNL     1     -11.753  15.534  65.492  1.00  0.00     0.227 C  
BRANCH   4   5
HETATM    5  C   UNL     1     -11.953  14.842  64.143  1.00  0.00    -0.235 C  
BRANCH   5   6
HETATM    6  O   UNL     1     -10.750  14.199  63.737  1.00  0.00     0.442 OA 
BRANCH   6   7
HETATM    7  C   UNL     1     -10.372  13.011  64.315  1.00  0.00    -0.362 A  
HETATM    8  C   UNL     1     -11.287  11.948  64.157  1.00  0.00    -0.380 A  
HETATM    9  C   UNL     1     -11.067  10.744  64.832  1.00  0.00     0.247 A  
HETATM   10  C   UNL     1      -9.255  12.854  65.144  1.00  0.00     0.684 A  
HETATM   11  C   UNL     1      -9.079  11.671  65.887  1.00  0.00    -0.155 A  
HETATM   12  C   UNL     1      -9.982  10.621  65.705  1.00  0.00    -0.327 A  
BRANCH   8  13
HETATM   13  O   UNL     1     -12.364  12.193  63.339  1.00  0.00    -0.552 OA 
HETATM   14  C   UNL     1     -13.530  11.404  63.524  1.00  0.00     1.431 C  
ENDBRANCH   8  13
BRANCH  11  15
HETATM   15  C   UNL     1      -8.075  11.611  67.020  1.00  0.00    -0.164 C  
HETATM   16  C   UNL     1      -8.478  11.932  68.483  1.00  0.00    -0.113 C  
HETATM   17  C   UNL     1      -7.282  11.567  69.443  1.00  0.00     0.001 C  
HETATM   18  C   UNL     1      -8.910  13.402  68.775  1.00  0.00     0.122 C  
HETATM   19  C   UNL     1     -10.260  13.770  68.157  1.00  0.00    -0.253 C  
HETATM   20  C   UNL     1      -7.851  14.444  68.410  1.00  0.00    -0.138 C  
BRANCH  17  21
HETATM   21  C   UNL     1      -6.884  10.078  69.478  1.00  0.00    -0.071 C  
HETATM   22  N   UNL     1      -8.123   9.295  69.563  1.00  0.00    -0.104 NA 
HETATM   23  H1  UNL     1      -7.860   8.310  69.587  1.00  0.00     0.000 HD 
HETATM   24  H2  UNL     1      -8.785   9.513  68.818  1.00  0.00     0.000 HD 
BRANCH  21  25
HETATM   25  C   UNL     1      -5.876   9.713  70.633  1.00  0.00    -0.066 C  
HETATM   26  H   UNL     1      -4.875  10.634  72.076  1.00  0.00     0.000 HD 
HETATM   27  O   UNL     1      -5.483  10.854  71.381  1.00  0.00    -0.283 OA 
BRANCH  25  28
HETATM   28  C   UNL     1      -6.535   8.656  71.542  1.00  0.00    -0.069 C  
HETATM   29  C   UNL     1      -7.335   7.470  70.953  1.00  0.00    -0.068 C  
HETATM   30  C   UNL     1      -7.887   6.738  72.194  1.00  0.00    -0.095 C  
HETATM   31  C   UNL     1      -6.532   6.506  70.033  1.00  0.00    -0.040 C  
HETATM   32  C   UNL     1      -7.397   5.411  69.393  1.00  0.00    -0.065 C  
HETATM   33  O   UNL     1      -7.240   6.581  73.228  1.00  0.00    -0.081 OA 
HETATM   34  N   UNL     1      -9.169   6.253  72.064  1.00  0.00    -0.146 N  
HETATM   35  C   UNL     1      -5.308   5.889  70.720  1.00  0.00    -0.013 C  
HETATM   36  H   UNL     1      -9.647   6.318  71.165  1.00  0.00     0.000 HD 
BRANCH  34  37
HETATM   37  C   UNL     1      -9.845   5.648  73.197  1.00  0.00    -0.167 C  
BRANCH  37  38
HETATM   38  C   UNL     1     -10.421   4.254  72.899  1.00  0.00    -0.246 C  
HETATM   39  C   UNL     1     -11.962   4.301  72.986  1.00  0.00     0.223 C  
HETATM   40  C   UNL     1     -10.008   3.781  71.495  1.00  0.00    -0.195 C  
BRANCH  38  41
HETATM   41  C   UNL     1      -9.904   3.266  73.953  1.00  0.00    -0.108 C  
HETATM   42  N   UNL     1     -10.815   2.441  74.535  1.00  0.00    -0.069 N  
HETATM   43  O   UNL     1      -8.724   3.179  74.284  1.00  0.00    -0.079 OA 
HETATM   44  H2  UNL     1     -11.802   2.477  74.282  1.00  0.00     0.000 HD 
HETATM   45  H1  UNL     1     -10.472   1.784  75.235  1.00  0.00     0.000 HD 
ENDBRANCH  38  41
ENDBRANCH  37  38
ENDBRANCH  34  37
ENDBRANCH  25  28
ENDBRANCH  21  25
ENDBRANCH  17  21
ENDBRANCH  11  15
ENDBRANCH   6   7
ENDBRANCH   5   6
ENDBRANCH   4   5
ENDBRANCH   3   4
ENDBRANCH   2   3
TORSDOF 13
ENDMDL
MODEL      189
REMARK 921   NORMALIZED FREE ENERGY PREDICTED BY IDOCK:    1.66 KCAL/MOL
REMARK 922        TOTAL FREE ENERGY PREDICTED BY IDOCK:    0.61 KCAL/MOL
REMARK 923 INTER-LIGAND FREE ENERGY PREDICTED BY IDOCK:    0.11 KCAL/MOL
REMARK 924 INTRA-LIGAND FREE ENERGY PREDICTED BY IDOCK:    0.50 KCAL/MOL
REMARK 927      BINDING AFFINITY PREDICTED BY RF-SCORE:    0.00 PKD
ROOT
HETATM    1  C   UNL     1      -5.460  11.512  65.218  1.00  0.00     1.059 C  
HETATM    2  O   UNL     1      -5.949  10.199  65.456  1.00  0.00    -0.078 OA 
ENDROOT
BRANCH   2   3
HETATM    3  C   UNL     1      -6.263   9.538  64.231  1.00  0.00    -0.092 C  
BRANCH   3   4
HETATM    4  C   UNL     1      -5.686   8.129  64.247  1.00  0.00    -0.052 C  
BRANCH   4   5
HETATM    5  C   UNL     1      -6.415   7.150  63.327  1.00  0.00    -0.052 C  
BRANCH   5   6
HETATM    6  O   UNL     1      -6.902   6.040  64.075  1.00  0.00    -0.037 OA 
BRANCH   6   7
HETATM    7  C   UNL     1      -7.681   6.246  65.188  1.00  0.00    -0.099 A  
HETATM    8  C   UNL     1      -9.019   5.811  65.073  1.00  0.00     0.112 A  
HETATM    9  C   UNL     1      -9.928   6.108  66.092  1.00  0.00     0.032 A  
HETATM   10  C   UNL     1      -7.275   6.970  66.316  1.00  0.00    -0.075 A  
HETATM   11  C   UNL     1      -8.211   7.339  67.301  1.00  0.00    -0.115 A  
HETATM   12  C   UNL     1      -9.527   6.884  67.183  1.00  0.00    -0.168 A  
BRANCH   8  13
HETATM   13  O   UNL     1      -9.334   5.122  63.927  1.00  0.00     0.160 OA 
HETATM   14  C   UNL     1      -9.809   3.790  64.066  1.00  0.00    -0.179 C  
ENDBRANCH   8  13
BRANCH  11  15
HETATM   15  C   UNL     1      -7.867   8.385  68.342  1.00  0.00    -0.113 C  
HETATM   16  C   UNL     1      -6.399   8.791  68.633  1.00  0.00    -0.053 C  
HETATM   17  C   UNL     1      -6.387  10.042  69.591  1.00  0.00    -0.053 C  
HETATM   18  C   UNL     1      -5.487   7.689  69.254  1.00  0.00    -0.019 C  
HETATM   19  C   UNL     1      -5.146   6.563  68.277  1.00  0.00    -0.007 C  
HETATM   20  C   UNL     1      -6.016   7.115  70.570  1.00  0.00    -0.027 C  
BRANCH  17  21
HETATM   21  C   UNL     1      -7.028  11.325  69.023  1.00  0.00    -0.104 C  
HETATM   22  N   UNL     1      -6.247  11.721  67.845  1.00  0.00    -0.049 NA 
HETATM   23  H1  UNL     1      -6.671  12.569  67.470  1.00  0.00     0.000 HD 
HETATM   24  H2  UNL     1      -6.164  10.976  67.153  1.00  0.00     0.000 HD 
BRANCH  21  25
HETATM   25  C   UNL     1      -7.150  12.496  70.070  1.00  0.00     0.945 C  
HETATM   26  H   UNL     1      -5.996  13.894  70.875  1.00  0.00     0.000 HD 
HETATM   27  O   UNL     1      -5.922  13.188  70.244  1.00  0.00    -0.155 OA 
BRANCH  25  28
HETATM   28  C   UNL     1      -8.264  13.455  69.604  1.00  0.00     1.372 C  
HETATM   29  C   UNL     1      -9.155  13.125  68.383  1.00  0.00    -0.134 C  
HETATM   30  C   UNL     1     -10.045  14.375  68.221  1.00  0.00    -0.239 C  
HETATM   31  C   UNL     1     -10.009  11.829  68.503  1.00  0.00    -0.203 C  
HETATM   32  C   UNL     1     -10.791  11.495  67.225  1.00  0.00    -0.301 C  
HETATM   33  O   UNL     1     -10.521  14.993  69.172  1.00  0.00    -0.231 OA 
HETATM   34  N   UNL     1     -10.286  14.755  66.920  1.00  0.00    -0.264 N  
HETATM   35  C   UNL     1     -10.942  11.827  69.718  1.00  0.00     0.049 C  
HETATM   36  H   UNL     1      -9.954  14.172  66.151  1.00  0.00     0.000 HD 
BRANCH  34  37
HETATM   37  C   UNL     1     -11.010  15.981  66.634  1.00  0.00    -0.092 C  
BRANCH  37  38
HETATM   38  C   UNL     1     -10.143  17.246  66.740  1.00  0.00    -0.302 C  
HETATM   39  C   UNL     1     -10.313  18.100  65.465  1.00  0.00     0.129 C  
HETATM   40  C   UNL     1     -10.545  18.082  67.967  1.00  0.00    -0.361 C  
BRANCH  38  41
HETATM   41  C   UNL     1      -8.669  16.832  66.855  1.00  0.00    -0.216 C  
HETATM   42  N   UNL     1      -8.071  16.338  65.738  1.00  0.00     0.296 N  
HETATM   43  O   UNL     1      -8.012  16.931  67.889  1.00  0.00    -0.177 OA 
HETATM   44  H2  UNL     1      -8.581  16.247  64.859  1.00  0.00     0.000 HD 
HETATM   45  H1  UNL     1      -7.092  16.063  65.814  1.00  0.00     0.000 HD 
ENDBRANCH  38  41
ENDBRANCH  37  38
ENDBRANCH  34  37
ENDBRANCH  25  28
ENDBRANCH  21  25
ENDBRANCH  17  21
ENDBRANCH  11  15
ENDBRANCH   6   7
ENDBRANCH   5   6
ENDBRANCH   4   5
ENDBRANCH   3   4
ENDBRANCH   2   3
TORSDOF 13
ENDMDL
MODEL      190
REMARK 921   NORMALIZED FREE ENERGY PREDICTED BY IDOCK:    2.21 KCAL/MOL
REMARK 922        TOTAL FREE ENERGY PREDICTED BY IDOCK:    1.58 KCAL/MOL
REMARK 923 INTER-LIGAND FREE ENERGY PREDICTED BY IDOCK:    0.43 KCAL/MOL
REMARK 924 INTRA-LIGAND FREE ENERGY PREDICTED BY IDOCK:    1.15 KCAL/MOL
REMARK 927      BINDING AFFINITY PREDICTED BY RF-SCORE:    0.00 PKD
ROOT
HETATM    1  C   UNL     1     -12.087   4.884  65.293  1.00  0.00     2.989 C  
HETATM    2  O   UNL     1     -11.043   4.907  66.257  1.00  0.00    -0.044 OA 
ENDROOT
BRANCH   2   3
HETATM    3  C   UNL     1     -10.299   6.122  66.179  1.00  0.00     0.200 C  
BRANCH   3   4
HETATM    4  C   UNL     1      -8.854   5.815  65.811  1.00  0.00    -0.151 C  
BRANCH   4   5
HETATM    5  C   UNL     1      -8.705   4.873  64.617  1.00  0.00    -0.152 C  
BRANCH   5   6
HETATM    6  O   UNL     1      -8.054   3.671  65.016  1.00  0.00    -0.089 OA 
BRANCH   6   7
HETATM    7  C   UNL     1      -7.219   3.666  66.107  1.00  0.00    -0.068 A  
HETATM    8  C   UNL     1      -6.048   2.891  65.964  1.00  0.00    -0.024 A  
HETATM    9  C   UNL     1      -5.210   2.702  67.066  1.00  0.00    -0.009 A  
HETATM   10  C   UNL     1      -7.533   4.236  67.346  1.00  0.00    -0.073 A  
HETATM   11  C   UNL     1      -6.732   3.976  68.475  1.00  0.00    -0.046 A  
HETATM   12  C   UNL     1      -5.565   3.224  68.313  1.00  0.00    -0.018 A  
BRANCH   8  13
HETATM   13  O   UNL     1      -5.825   2.356  64.718  1.00  0.00    -0.016 OA 
HETATM   14  C   UNL     1      -5.352   3.226  63.699  1.00  0.00    -0.009 C  
ENDBRANCH   8  13
BRANCH  11  15
HETATM   15  C   UNL     1      -7.228   4.305  69.868  1.00  0.00    -0.046 C  
HETATM   16  C   UNL     1      -7.888   3.232  70.772  1.00  0.00    -0.046 C  
HETATM   17  C   UNL     1      -8.087   3.823  72.219  1.00  0.00    -0.077 C  
HETATM   18  C   UNL     1      -9.255   2.662  70.283  1.00  0.00    -0.202 C  
HETATM   19  C   UNL     1      -9.132   1.770  69.046  1.00  0.00    -0.172 C  
HETATM   20  C   UNL     1     -10.332   3.729  70.070  1.00  0.00     0.943 C  
BRANCH  17  21
HETATM   21  C   UNL     1      -6.794   4.205  72.968  1.00  0.00    -0.056 C  
HETATM   22  N   UNL     1      -7.087   4.142  74.406  1.00  0.00    -0.068 NA 
HETATM   23  H1  UNL     1      -6.232   4.395  74.901  1.00  0.00     0.000 HD 
HETATM   24  H2  UNL     1      -7.465   3.241  74.697  1.00  0.00     0.000 HD 
BRANCH  21  25
HETATM   25  C   UNL     1      -6.201   5.603  72.548  1.00  0.00    -0.047 C  
HETATM   26  H   UNL     1      -4.768   6.317  71.377  1.00  0.00     0.000 HD 
HETATM   27  O   UNL     1      -5.126   5.474  71.630  1.00  0.00    -0.008 OA 
BRANCH  25  28
HETATM   28  C   UNL     1      -7.338   6.458  71.952  1.00  0.00    -0.092 C  
HETATM   29  C   UNL     1      -8.772   6.407  72.528  1.00  0.00    -0.123 C  
HETATM   30  C   UNL     1      -9.584   7.323  71.589  1.00  0.00    -0.151 C  
HETATM   31  C   UNL     1      -8.918   6.844  74.014  1.00  0.00    -0.211 C  
HETATM   32  C   UNL     1     -10.342   6.674  74.563  1.00  0.00    -0.053 C  
HETATM   33  O   UNL     1      -9.149   8.379  71.132  1.00  0.00    -0.149 OA 
HETATM   34  N   UNL     1     -10.855   6.880  71.296  1.00  0.00    -0.231 N  
HETATM   35  C   UNL     1      -8.406   8.263  74.284  1.00  0.00    -0.190 C  
HETATM   36  H   UNL     1     -11.221   6.049  71.760  1.00  0.00     0.000 HD 
BRANCH  34  37
HETATM   37  C   UNL     1     -11.678   7.589  70.332  1.00  0.00    -0.092 C  
BRANCH  37  38
HETATM   38  C   UNL     1     -12.545   8.693  70.958  1.00  0.00    -0.079 C  
HETATM   39  C   UNL     1     -14.038   8.367  70.738  1.00  0.00     0.376 C  
HETATM   40  C   UNL     1     -12.271   8.815  72.466  1.00  0.00    -0.347 C  
BRANCH  38  41
HETATM   41  C   UNL     1     -12.231  10.026  70.264  1.00  0.00    -0.112 C  
HETATM   42  N   UNL     1     -11.693   9.969  69.017  1.00  0.00    -0.486 N  
HETATM   43  O   UNL     1     -12.448  11.125  70.770  1.00  0.00    -0.346 OA 
HETATM   44  H2  UNL     1     -11.505   9.076  68.560  1.00  0.00     0.000 HD 
HETATM   45  H1  UNL     1     -11.484  10.854  68.556  1.00  0.00     0.000 HD 
ENDBRANCH  38  41
ENDBRANCH  37  38
ENDBRANCH  34  37
ENDBRANCH  25  28
ENDBRANCH  21  25
ENDBRANCH  17  21
ENDBRANCH  11  15
ENDBRANCH   6   7
ENDBRANCH   5   6
ENDBRANCH   4   5
ENDBRANCH   3   4
ENDBRANCH   2   3
TORSDOF 13
ENDMDL
MODEL      191
REMARK 921   NORMALIZED FREE ENERGY PREDICTED BY IDOCK:    2.35 KCAL/MOL
REMARK 922        TOTAL FREE ENERGY PREDICTED BY IDOCK:    1.83 KCAL/MOL
REMARK 923 INTER-LIGAND FREE ENERGY PREDICTED BY IDOCK:   -4.27 KCAL/MOL
REMARK 924 INTRA-LIGAND FREE ENERGY PREDICTED BY IDOCK:    6.10 KCAL/MOL
REMARK 927      BINDING AFFINITY PREDICTED BY RF-SCORE:    0.00 PKD
ROOT
HETATM    1  C   UNL     1      -9.814   9.831  65.052  1.00  0.00    -0.173 C  
HETATM    2  O   UNL     1      -9.256   9.429  63.808  1.00  0.00    -0.148 OA 
ENDROOT
BRANCH   2   3
HETATM    3  C   UNL     1      -9.197  10.524  62.895  1.00  0.00    -0.304 C  
BRANCH   3   4
HETATM    4  C   UNL     1      -9.311  11.836  63.659  1.00  0.00     0.000 C  
BRANCH   4   5
HETATM    5  C   UNL     1     -10.590  12.618  63.359  1.00  0.00    -0.123 C  
BRANCH   5   6
HETATM    6  O   UNL     1     -11.161  13.109  64.568  1.00  0.00    -0.324 OA 
BRANCH   6   7
HETATM    7  C   UNL     1     -10.864  14.376  65.008  1.00  0.00    -0.407 A  
HETATM    8  C   UNL     1     -11.702  15.397  64.512  1.00  0.00    -0.277 A  
HETATM    9  C   UNL     1     -11.392  16.733  64.780  1.00  0.00     0.150 A  
HETATM   10  C   UNL     1      -9.731  14.706  65.762  1.00  0.00    -0.331 A  
HETATM   11  C   UNL     1      -9.375  16.054  65.961  1.00  0.00    -0.380 A  
HETATM   12  C   UNL     1     -10.226  17.053  65.481  1.00  0.00    -0.111 A  
BRANCH   8  13
HETATM   13  O   UNL     1     -12.782  14.985  63.768  1.00  0.00    -0.741 OA 
HETATM   14  C   UNL     1     -12.773  13.656  63.269  1.00  0.00     0.596 C  
ENDBRANCH   8  13
BRANCH  11  15
HETATM   15  C   UNL     1      -8.000  16.422  66.481  1.00  0.00    -0.342 C  
HETATM   16  C   UNL     1      -7.736  17.770  67.201  1.00  0.00    -0.224 C  
HETATM   17  C   UNL     1      -6.283  17.756  67.811  1.00  0.00    -0.172 C  
HETATM   18  C   UNL     1      -7.893  19.058  66.336  1.00  0.00    -0.291 C  
HETATM   19  C   UNL     1      -9.345  19.363  65.961  1.00  0.00    -0.224 C  
HETATM   20  C   UNL     1      -7.001  19.082  65.092  1.00  0.00     0.092 C  
BRANCH  17  21
HETATM   21  C   UNL     1      -6.024  16.692  68.896  1.00  0.00    -0.149 C  
HETATM   22  N   UNL     1      -5.499  15.499  68.221  1.00  0.00    -0.109 NA 
HETATM   23  H1  UNL     1      -5.327  14.794  68.938  1.00  0.00     0.000 HD 
HETATM   24  H2  UNL     1      -4.677  15.693  67.648  1.00  0.00     0.000 HD 
BRANCH  21  25
HETATM   25  C   UNL     1      -7.284  16.361  69.782  1.00  0.00     0.214 C  
HETATM   26  H   UNL     1      -8.900  17.284  70.468  1.00  0.00     0.000 HD 
HETATM   27  O   UNL     1      -8.141  17.483  69.934  1.00  0.00     0.985 OA 
BRANCH  25  28
HETATM   28  C   UNL     1      -8.034  15.175  69.142  1.00  0.00    -0.205 C  
HETATM   29  C   UNL     1      -9.218  14.487  69.861  1.00  0.00     0.731 C  
HETATM   30  C   UNL     1      -9.595  13.319  68.927  1.00  0.00     0.192 C  
HETATM   31  C   UNL     1     -10.446  15.396  70.159  1.00  0.00    -0.291 C  
HETATM   32  C   UNL     1     -11.546  14.691  70.965  1.00  0.00    -0.277 C  
HETATM   33  O   UNL     1      -9.598  13.408  67.701  1.00  0.00    -0.207 OA 
HETATM   34  N   UNL     1      -9.945  12.150  69.566  1.00  0.00     0.133 N  
HETATM   35  C   UNL     1     -11.037  16.050  68.905  1.00  0.00    -0.331 C  
HETATM   36  H   UNL     1     -10.021  12.131  70.583  1.00  0.00     0.000 HD 
BRANCH  34  37
HETATM   37  C   UNL     1     -10.206  10.944  68.801  1.00  0.00    -0.196 C  
BRANCH  37  38
HETATM   38  C   UNL     1      -9.443   9.712  69.316  1.00  0.00    -0.184 C  
HETATM   39  C   UNL     1     -10.111   9.188  70.605  1.00  0.00    -0.307 C  
HETATM   40  C   UNL     1      -9.434   8.593  68.260  1.00  0.00    -0.150 C  
BRANCH  38  41
HETATM   41  C   UNL     1      -8.001  10.122  69.648  1.00  0.00    -0.173 C  
HETATM   42  N   UNL     1      -7.244   9.234  70.346  1.00  0.00    -0.083 N  
HETATM   43  O   UNL     1      -7.504  11.194  69.311  1.00  0.00    -0.123 OA 
HETATM   44  H2  UNL     1      -7.618   8.331  70.637  1.00  0.00     0.000 HD 
HETATM   45  H1  UNL     1      -6.287   9.507  70.566  1.00  0.00     0.000 HD 
ENDBRANCH  38  41
ENDBRANCH  37  38
ENDBRANCH  34  37
ENDBRANCH  25  28
ENDBRANCH  21  25
ENDBRANCH  17  21
ENDBRANCH  11  15
ENDBRANCH   6   7
ENDBRANCH   5   6
ENDBRANCH   4   5
ENDBRANCH   3   4
ENDBRANCH   2   3
TORSDOF 13
ENDMDL
MODEL      192
REMARK 921   NORMALIZED FREE ENERGY PREDICTED BY IDOCK:    3.52 KCAL/MOL
REMARK 922        TOTAL FREE ENERGY PREDICTED BY IDOCK:    3.89 KCAL/MOL
REMARK 923 INTER-LIGAND FREE ENERGY PREDICTED BY IDOCK:   -1.24 KCAL/MOL
REMARK 924 INTRA-LIGAND FREE ENERGY PREDICTED BY IDOCK:    5.13 KCAL/MOL
REMARK 927      BINDING AFFINITY PREDICTED BY RF-SCORE:    0.00 PKD
ROOT
HETATM    1  C   UNL     1      -6.525  14.936  71.793  1.00  0.00     1.047 C  
HETATM    2  O   UNL     1      -7.654  14.922  70.930  1.00  0.00     0.967 OA 
ENDROOT
BRANCH   2   3
HETATM    3  C   UNL     1      -7.276  14.594  69.594  1.00  0.00    -0.098 C  
BRANCH   3   4
HETATM    4  C   UNL     1      -7.398  15.827  68.710  1.00  0.00    -0.141 C  
BRANCH   4   5
HETATM    5  C   UNL     1      -6.516  15.785  67.462  1.00  0.00    -0.173 C  
BRANCH   5   6
HETATM    6  O   UNL     1      -6.474  14.463  66.933  1.00  0.00     0.176 OA 
BRANCH   6   7
HETATM    7  C   UNL     1      -7.111  13.436  67.587  1.00  0.00    -0.162 A  
HETATM    8  C   UNL     1      -6.490  12.174  67.474  1.00  0.00    -0.134 A  
HETATM    9  C   UNL     1      -7.137  11.041  67.976  1.00  0.00    -0.077 A  
HETATM   10  C   UNL     1      -8.366  13.545  68.198  1.00  0.00    -0.167 A  
HETATM   11  C   UNL     1      -9.052  12.394  68.630  1.00  0.00     0.022 A  
HETATM   12  C   UNL     1      -8.415  11.154  68.529  1.00  0.00    -0.156 A  
BRANCH   8  13
HETATM   13  O   UNL     1      -5.268  12.156  66.846  1.00  0.00    -0.269 OA 
HETATM   14  C   UNL     1      -5.143  11.378  65.663  1.00  0.00     0.203 C  
ENDBRANCH   8  13
BRANCH  11  15
HETATM   15  C   UNL     1     -10.524  12.457  68.985  1.00  0.00    -0.033 C  
HETATM   16  C   UNL     1     -11.488  11.284  68.670  1.00  0.00    -0.362 C  
HETATM   17  C   UNL     1     -12.881  11.559  69.355  1.00  0.00     0.734 C  
HETATM   18  C   UNL     1     -11.736  10.978  67.161  1.00  0.00     0.259 C  
HETATM   19  C   UNL     1     -10.519  10.372  66.459  1.00  0.00    -0.262 C  
HETATM   20  C   UNL     1     -12.276  12.169  66.367  1.00  0.00     0.249 C  
BRANCH  17  21
HETATM   21  C   UNL     1     -12.865  11.633  70.895  1.00  0.00    -0.173 C  
HETATM   22  N   UNL     1     -12.385  12.971  71.264  1.00  0.00    -0.314 NA 
HETATM   23  H1  UNL     1     -12.375  13.020  72.283  1.00  0.00     0.000 HD 
HETATM   24  H2  UNL     1     -12.926  13.721  70.834  1.00  0.00     0.000 HD 
BRANCH  21  25
HETATM   25  C   UNL     1     -12.020  10.495  71.582  1.00  0.00     0.018 C  
HETATM   26  H   UNL     1     -12.177   9.250  73.119  1.00  0.00     0.000 HD 
HETATM   27  O   UNL     1     -12.687   9.936  72.704  1.00  0.00    -0.060 OA 
BRANCH  25  28
HETATM   28  C   UNL     1     -11.709   9.412  70.528  1.00  0.00    -0.254 C  
HETATM   29  C   UNL     1     -10.299   8.788  70.404  1.00  0.00    -0.230 C  
HETATM   30  C   UNL     1     -10.413   7.847  69.187  1.00  0.00    -0.209 C  
HETATM   31  C   UNL     1      -9.784   8.032  71.662  1.00  0.00    -0.222 C  
HETATM   32  C   UNL     1      -8.342   7.525  71.521  1.00  0.00    -0.111 C  
HETATM   33  O   UNL     1     -11.406   7.158  68.957  1.00  0.00     0.007 OA 
HETATM   34  N   UNL     1      -9.309   7.818  68.365  1.00  0.00    -0.143 N  
HETATM   35  C   UNL     1     -10.710   6.895  72.110  1.00  0.00    -0.248 C  
HETATM   36  H   UNL     1      -8.467   8.330  68.630  1.00  0.00     0.000 HD 
BRANCH  34  37
HETATM   37  C   UNL     1      -9.334   7.064  67.125  1.00  0.00    -0.143 C  
BRANCH  37  38
HETATM   38  C   UNL     1      -7.944   6.602  66.657  1.00  0.00    -0.105 C  
HETATM   39  C   UNL     1      -6.855   7.285  67.513  1.00  0.00    -0.074 C  
HETATM   40  C   UNL     1      -7.803   5.076  66.784  1.00  0.00    -0.100 C  
BRANCH  38  41
HETATM   41  C   UNL     1      -7.747   7.022  65.194  1.00  0.00    -0.113 C  
HETATM   42  N   UNL     1      -8.566   6.458  64.267  1.00  0.00    -0.333 N  
HETATM   43  O   UNL     1      -6.903   7.836  64.826  1.00  0.00    -0.050 OA 
HETATM   44  H2  UNL     1      -9.283   5.783  64.533  1.00  0.00     0.000 HD 
HETATM   45  H1  UNL     1      -8.435   6.736  63.295  1.00  0.00     0.000 HD 
ENDBRANCH  38  41
ENDBRANCH  37  38
ENDBRANCH  34  37
ENDBRANCH  25  28
ENDBRANCH  21  25
ENDBRANCH  17  21
ENDBRANCH  11  15
ENDBRANCH   6   7
ENDBRANCH   5   6
ENDBRANCH   4   5
ENDBRANCH   3   4
ENDBRANCH   2   3
TORSDOF 13
ENDMDL
MODEL      193
REMARK 921   NORMALIZED FREE ENERGY PREDICTED BY IDOCK:    3.65 KCAL/MOL
REMARK 922        TOTAL FREE ENERGY PREDICTED BY IDOCK:    4.11 KCAL/MOL
REMARK 923 INTER-LIGAND FREE ENERGY PREDICTED BY IDOCK:    2.37 KCAL/MOL
REMARK 924 INTRA-LIGAND FREE ENERGY PREDICTED BY IDOCK:    1.74 KCAL/MOL
REMARK 927      BINDING AFFINITY PREDICTED BY RF-SCORE:    0.00 PKD
ROOT
HETATM    1  C   UNL     1     -12.614  10.883  66.411  1.00  0.00     5.156 C  
HETATM    2  O   UNL     1     -11.644  10.510  67.380  1.00  0.00    -0.383 OA 
ENDROOT
BRANCH   2   3
HETATM    3  C   UNL     1     -10.469   9.991  66.758  1.00  0.00    -0.198 C  
BRANCH   3   4
HETATM    4  C   UNL     1     -10.656   8.507  66.470  1.00  0.00     0.054 C  
BRANCH   4   5
HETATM    5  C   UNL     1      -9.389   7.807  65.979  1.00  0.00    -0.037 C  
BRANCH   5   6
HETATM    6  O   UNL     1      -9.209   6.574  66.670  1.00  0.00    -0.144 OA 
BRANCH   6   7
HETATM    7  C   UNL     1      -8.829   6.571  67.990  1.00  0.00    -0.114 A  
HETATM    8  C   UNL     1      -9.459   5.597  68.794  1.00  0.00    -0.126 A  
HETATM    9  C   UNL     1      -9.253   5.608  70.176  1.00  0.00    -0.170 A  
HETATM   10  C   UNL     1      -8.006   7.538  68.579  1.00  0.00    -0.123 A  
HETATM   11  C   UNL     1      -7.865   7.598  69.979  1.00  0.00    -0.101 A  
HETATM   12  C   UNL     1      -8.479   6.615  70.760  1.00  0.00    -0.134 A  
BRANCH   8  13
HETATM   13  O   UNL     1     -10.262   4.696  68.136  1.00  0.00    -0.058 OA 
HETATM   14  C   UNL     1      -9.628   3.673  67.381  1.00  0.00    -0.149 C  
ENDBRANCH   8  13
BRANCH  11  15
HETATM   15  C   UNL     1      -7.257   8.816  70.644  1.00  0.00    -0.066 C  
HETATM   16  C   UNL     1      -5.736   8.914  70.927  1.00  0.00    -0.036 C  
HETATM   17  C   UNL     1      -5.391  10.373  71.413  1.00  0.00    -0.055 C  
HETATM   18  C   UNL     1      -5.159   7.902  71.965  1.00  0.00    -0.035 C  
HETATM   19  C   UNL     1      -5.129   6.460  71.453  1.00  0.00    -0.018 C  
HETATM   20  C   UNL     1      -5.830   7.971  73.338  1.00  0.00    -0.059 C  
BRANCH  17  21
HETATM   21  C   UNL     1      -5.659  11.498  70.393  1.00  0.00    -0.144 C  
HETATM   22  N   UNL     1      -7.093  11.806  70.448  1.00  0.00     0.165 NA 
HETATM   23  H1  UNL     1      -7.271  12.550  69.774  1.00  0.00     0.000 HD 
HETATM   24  H2  UNL     1      -7.416  12.034  71.388  1.00  0.00     0.000 HD 
BRANCH  21  25
HETATM   25  C   UNL     1      -5.185  11.160  68.929  1.00  0.00    -0.040 C  
HETATM   26  H   UNL     1      -4.850   9.557  67.809  1.00  0.00     0.000 HD 
HETATM   27  O   UNL     1      -5.136   9.761  68.692  1.00  0.00    -0.034 OA 
BRANCH  25  28
HETATM   28  C   UNL     1      -6.135  11.857  67.934  1.00  0.00    -0.057 C  
HETATM   29  C   UNL     1      -7.158  12.917  68.403  1.00  0.00    -0.099 C  
HETATM   30  C   UNL     1      -7.946  13.268  67.124  1.00  0.00    -0.065 C  
HETATM   31  C   UNL     1      -6.555  14.189  69.067  1.00  0.00    -0.104 C  
HETATM   32  C   UNL     1      -7.617  15.157  69.607  1.00  0.00    -0.163 C  
HETATM   33  O   UNL     1      -7.422  13.377  66.016  1.00  0.00     2.057 OA 
HETATM   34  N   UNL     1      -9.297  13.466  67.305  1.00  0.00    -0.224 N  
HETATM   35  C   UNL     1      -5.562  14.932  68.167  1.00  0.00    -0.132 C  
HETATM   36  H   UNL     1      -9.688  13.458  68.247  1.00  0.00     0.000 HD 
BRANCH  34  37
HETATM   37  C   UNL     1     -10.168  13.685  66.165  1.00  0.00    -0.304 C  
BRANCH  37  38
HETATM   38  C   UNL     1     -11.196  14.807  66.383  1.00  0.00    -0.342 C  
HETATM   39  C   UNL     1     -12.220  14.804  65.227  1.00  0.00    -0.158 C  
HETATM   40  C   UNL     1     -11.939  14.617  67.716  1.00  0.00    -0.302 C  
BRANCH  38  41
HETATM   41  C   UNL     1     -10.467  16.158  66.384  1.00  0.00    -0.301 C  
HETATM   42  N   UNL     1     -10.920  17.111  67.241  1.00  0.00    -0.100 N  
HETATM   43  O   UNL     1      -9.503  16.412  65.664  1.00  0.00    -0.486 OA 
HETATM   44  H2  UNL     1     -11.712  16.937  67.859  1.00  0.00     0.000 HD 
HETATM   45  H1  UNL     1     -10.436  18.009  67.241  1.00  0.00     0.000 HD 
ENDBRANCH  38  41
ENDBRANCH  37  38
ENDBRANCH  34  37
ENDBRANCH  25  28
ENDBRANCH  21  25
ENDBRANCH  17  21
ENDBRANCH  11  15
ENDBRANCH   6   7
ENDBRANCH   5   6
ENDBRANCH   4   5
ENDBRANCH   3   4
ENDBRANCH   2   3
TORSDOF 13
ENDMDL
MODEL      194
REMARK 921   NORMALIZED FREE ENERGY PREDICTED BY IDOCK:    3.68 KCAL/MOL
REMARK 922        TOTAL FREE ENERGY PREDICTED BY IDOCK:    4.17 KCAL/MOL
REMARK 923 INTER-LIGAND FREE ENERGY PREDICTED BY IDOCK:   -2.01 KCAL/MOL
REMARK 924 INTRA-LIGAND FREE ENERGY PREDICTED BY IDOCK:    6.18 KCAL/MOL
REMARK 927      BINDING AFFINITY PREDICTED BY RF-SCORE:    0.00 PKD
ROOT
HETATM    1  C   UNL     1      -5.879   2.546  65.921  1.00  0.00    -0.022 C  
HETATM    2  O   UNL     1      -6.533   1.973  67.045  1.00  0.00    -0.027 OA 
ENDROOT
BRANCH   2   3
HETATM    3  C   UNL     1      -7.503   2.869  67.586  1.00  0.00    -0.057 C  
BRANCH   3   4
HETATM    4  C   UNL     1      -7.138   4.301  67.220  1.00  0.00    -0.067 C  
BRANCH   4   5
HETATM    5  C   UNL     1      -8.346   5.200  66.957  1.00  0.00    -0.107 C  
BRANCH   5   6
HETATM    6  O   UNL     1      -9.412   4.862  67.838  1.00  0.00    -0.127 OA 
BRANCH   6   7
HETATM    7  C   UNL     1      -9.592   5.563  69.006  1.00  0.00    -0.136 A  
HETATM    8  C   UNL     1      -9.223   4.876  70.182  1.00  0.00    -0.130 A  
HETATM    9  C   UNL     1      -9.505   5.443  71.428  1.00  0.00    -0.188 A  
HETATM   10  C   UNL     1     -10.239   6.802  69.094  1.00  0.00    -0.195 A  
HETATM   11  C   UNL     1     -10.596   7.333  70.348  1.00  0.00    -0.240 A  
HETATM   12  C   UNL     1     -10.205   6.651  71.504  1.00  0.00    -0.218 A  
BRANCH   8  13
HETATM   13  O   UNL     1      -8.608   3.660  70.004  1.00  0.00    -0.058 OA 
HETATM   14  C   UNL     1      -8.384   2.857  71.154  1.00  0.00    -0.062 C  
ENDBRANCH   8  13
BRANCH  11  15
HETATM   15  C   UNL     1     -11.570   8.489  70.450  1.00  0.00    -0.075 C  
HETATM   16  C   UNL     1     -11.846   9.204  71.798  1.00  0.00    -0.453 C  
HETATM   17  C   UNL     1     -12.720  10.488  71.535  1.00  0.00    -0.558 C  
HETATM   18  C   UNL     1     -12.545   8.352  72.902  1.00  0.00     0.124 C  
HETATM   19  C   UNL     1     -11.646   7.261  73.486  1.00  0.00     0.809 C  
HETATM   20  C   UNL     1     -13.891   7.765  72.473  1.00  0.00     0.203 C  
BRANCH  17  21
HETATM   21  C   UNL     1     -12.065  11.575  70.659  1.00  0.00    -0.353 C  
HETATM   22  N   UNL     1     -13.123  12.161  69.825  1.00  0.00     1.029 NA 
HETATM   23  H1  UNL     1     -12.690  12.879  69.245  1.00  0.00     0.000 HD 
HETATM   24  H2  UNL     1     -13.912  12.509  70.369  1.00  0.00     0.000 HD 
BRANCH  21  25
HETATM   25  C   UNL     1     -10.855  11.055  69.795  1.00  0.00    -0.144 C  
HETATM   26  H   UNL     1     -10.551   9.932  68.188  1.00  0.00     0.000 HD 
HETATM   27  O   UNL     1     -11.281  10.245  68.709  1.00  0.00    -0.240 OA 
BRANCH  25  28
HETATM   28  C   UNL     1     -10.052  12.273  69.294  1.00  0.00     0.404 C  
HETATM   29  C   UNL     1     -10.085  12.707  67.810  1.00  0.00    -0.220 C  
HETATM   30  C   UNL     1      -9.086  13.880  67.741  1.00  0.00    -0.191 C  
HETATM   31  C   UNL     1     -11.481  13.116  67.258  1.00  0.00    -0.375 C  
HETATM   32  C   UNL     1     -11.474  13.435  65.756  1.00  0.00    -0.341 C  
HETATM   33  O   UNL     1      -8.983  14.733  68.622  1.00  0.00    -0.176 OA 
HETATM   34  N   UNL     1      -8.308  13.919  66.605  1.00  0.00    -0.395 N  
HETATM   35  C   UNL     1     -12.136  14.256  68.045  1.00  0.00    -0.289 C  
HETATM   36  H   UNL     1      -8.477  13.252  65.852  1.00  0.00     0.000 HD 
BRANCH  34  37
HETATM   37  C   UNL     1      -7.249  14.903  66.472  1.00  0.00     1.596 C  
BRANCH  37  38
HETATM   38  C   UNL     1      -7.701  16.339  66.785  1.00  0.00    -0.295 C  
HETATM   39  C   UNL     1      -9.139  16.555  66.267  1.00  0.00    -0.348 C  
HETATM   40  C   UNL     1      -7.664  16.606  68.299  1.00  0.00    -0.183 C  
BRANCH  38  41
HETATM   41  C   UNL     1      -6.770  17.323  66.062  1.00  0.00    -0.079 C  
HETATM   42  N   UNL     1      -7.345  18.219  65.216  1.00  0.00     0.363 N  
HETATM   43  O   UNL     1      -5.551  17.345  66.215  1.00  0.00    -0.190 OA 
HETATM   44  H2  UNL     1      -8.354  18.237  65.068  1.00  0.00     0.000 HD 
HETATM   45  H1  UNL     1      -6.727  18.872  64.735  1.00  0.00     0.000 HD 
ENDBRANCH  38  41
ENDBRANCH  37  38
ENDBRANCH  34  37
ENDBRANCH  25  28
ENDBRANCH  21  25
ENDBRANCH  17  21
ENDBRANCH  11  15
ENDBRANCH   6   7
ENDBRANCH   5   6
ENDBRANCH   4   5
ENDBRANCH   3   4
ENDBRANCH   2   3
TORSDOF 13
ENDMDL
MODEL      195
REMARK 921   NORMALIZED FREE ENERGY PREDICTED BY IDOCK:    4.23 KCAL/MOL
REMARK 922        TOTAL FREE ENERGY PREDICTED BY IDOCK:    5.14 KCAL/MOL
REMARK 923 INTER-LIGAND FREE ENERGY PREDICTED BY IDOCK:    2.23 KCAL/MOL
REMARK 924 INTRA-LIGAND FREE ENERGY PREDICTED BY IDOCK:    2.91 KCAL/MOL
REMARK 927      BINDING AFFINITY PREDICTED BY RF-SCORE:    0.00 PKD
ROOT
HETATM    1  C   UNL     1      -8.176  14.872  70.258  1.00  0.00     0.868 C  
HETATM    2  O   UNL     1      -6.760  14.764  70.278  1.00  0.00    -0.174 OA 
ENDROOT
BRANCH   2   3
HETATM    3  C   UNL     1      -6.151  16.038  70.479  1.00  0.00     0.155 C  
BRANCH   3   4
HETATM    4  C   UNL     1      -6.144  16.816  69.170  1.00  0.00    -0.180 C  
BRANCH   4   5
HETATM    5  C   UNL     1      -7.009  18.075  69.193  1.00  0.00    -0.207 C  
BRANCH   5   6
HETATM    6  O   UNL     1      -7.828  18.131  68.029  1.00  0.00    -0.247 OA 
BRANCH   6   7
HETATM    7  C   UNL     1      -8.189  16.974  67.382  1.00  0.00    -0.183 A  
HETATM    8  C   UNL     1      -7.721  16.857  66.055  1.00  0.00    -0.065 A  
HETATM    9  C   UNL     1      -8.155  15.790  65.264  1.00  0.00     3.848 A  
HETATM   10  C   UNL     1      -9.084  16.027  67.894  1.00  0.00    -0.187 A  
HETATM   11  C   UNL     1      -9.584  15.001  67.070  1.00  0.00    -0.233 A  
HETATM   12  C   UNL     1      -9.095  14.885  65.766  1.00  0.00     0.181 A  
BRANCH   8  13
HETATM   13  O   UNL     1      -6.859  17.839  65.629  1.00  0.00    -0.358 OA 
HETATM   14  C   UNL     1      -7.207  19.189  65.902  1.00  0.00    -0.266 C  
ENDBRANCH   8  13
BRANCH  11  15
HETATM   15  C   UNL     1     -10.782  14.178  67.499  1.00  0.00    -0.270 C  
HETATM   16  C   UNL     1     -11.465  13.171  66.538  1.00  0.00    -0.378 C  
HETATM   17  C   UNL     1     -12.523  12.323  67.341  1.00  0.00     1.061 C  
HETATM   18  C   UNL     1     -12.171  13.779  65.287  1.00  0.00    -0.461 C  
HETATM   19  C   UNL     1     -11.194  14.342  64.254  1.00  0.00    -0.111 C  
HETATM   20  C   UNL     1     -13.250  14.811  65.624  1.00  0.00     0.734 C  
BRANCH  17  21
HETATM   21  C   UNL     1     -11.954  11.441  68.471  1.00  0.00    -0.225 C  
HETATM   22  N   UNL     1     -12.281  12.096  69.744  1.00  0.00    -0.197 NA 
HETATM   23  H1  UNL     1     -11.905  11.513  70.491  1.00  0.00     0.000 HD 
HETATM   24  H2  UNL     1     -13.278  12.286  69.850  1.00  0.00     0.000 HD 
BRANCH  21  25
HETATM   25  C   UNL     1     -10.412  11.148  68.339  1.00  0.00    -0.188 C  
HETATM   26  H   UNL     1      -8.696  11.898  68.995  1.00  0.00     0.000 HD 
HETATM   27  O   UNL     1      -9.627  12.074  69.075  1.00  0.00     0.042 OA 
BRANCH  25  28
HETATM   28  C   UNL     1     -10.146   9.703  68.806  1.00  0.00    -0.193 C  
HETATM   29  C   UNL     1      -8.752   9.051  68.658  1.00  0.00    -0.133 C  
HETATM   30  C   UNL     1      -8.961   7.604  69.151  1.00  0.00    -0.135 C  
HETATM   31  C   UNL     1      -7.594   9.752  69.426  1.00  0.00    -0.104 C  
HETATM   32  C   UNL     1      -6.218   9.126  69.160  1.00  0.00    -0.042 C  
HETATM   33  O   UNL     1      -9.669   7.315  70.115  1.00  0.00    -0.172 OA 
HETATM   34  N   UNL     1      -8.285   6.640  68.437  1.00  0.00    -0.114 N  
HETATM   35  C   UNL     1      -7.848   9.867  70.934  1.00  0.00     0.514 C  
HETATM   36  H   UNL     1      -7.636   6.916  67.701  1.00  0.00     0.000 HD 
BRANCH  34  37
HETATM   37  C   UNL     1      -8.491   5.232  68.726  1.00  0.00    -0.092 C  
BRANCH  37  38
HETATM   38  C   UNL     1      -7.532   4.676  69.792  1.00  0.00    -0.055 C  
HETATM   39  C   UNL     1      -8.180   4.801  71.188  1.00  0.00    -0.104 C  
HETATM   40  C   UNL     1      -7.205   3.199  69.517  1.00  0.00    -0.045 C  
BRANCH  38  41
HETATM   41  C   UNL     1      -6.240   5.504  69.780  1.00  0.00    -0.026 C  
HETATM   42  N   UNL     1      -5.294   5.172  68.861  1.00  0.00    -0.004 N  
HETATM   43  O   UNL     1      -6.026   6.444  70.542  1.00  0.00    -0.022 OA 
HETATM   44  H2  UNL     1      -5.437   4.403  68.207  1.00  0.00     0.000 HD 
HETATM   45  H1  UNL     1      -4.435   5.722  68.853  1.00  0.00     0.000 HD 
ENDBRANCH  38  41
ENDBRANCH  37  38
ENDBRANCH  34  37
ENDBRANCH  25  28
ENDBRANCH  21  25
ENDBRANCH  17  21
ENDBRANCH  11  15
ENDBRANCH   6   7
ENDBRANCH   5   6
ENDBRANCH   4   5
ENDBRANCH   3   4
ENDBRANCH   2   3
TORSDOF 13
ENDMDL
MODEL      196
REMARK 921   NORMALIZED FREE ENERGY PREDICTED BY IDOCK:    4.35 KCAL/MOL
REMARK 922        TOTAL FREE ENERGY PREDICTED BY IDOCK:    5.35 KCAL/MOL
REMARK 923 INTER-LIGAND FREE ENERGY PREDICTED BY IDOCK:    5.67 KCAL/MOL
REMARK 924 INTRA-LIGAND FREE ENERGY PREDICTED BY IDOCK:   -0.32 KCAL/MOL
REMARK 927      BINDING AFFINITY PREDICTED BY RF-SCORE:    0.00 PKD
ROOT
HETATM    1  C   UNL     1     -12.120   5.232  64.907  1.00  0.00     3.811 C  
HETATM    2  O   UNL     1     -11.121   5.270  65.917  1.00  0.00    -0.057 OA 
ENDROOT
BRANCH   2   3
HETATM    3  C   UNL     1     -10.346   6.465  65.827  1.00  0.00     1.028 C  
BRANCH   3   4
HETATM    4  C   UNL     1      -8.899   6.114  65.506  1.00  0.00    -0.063 C  
BRANCH   4   5
HETATM    5  C   UNL     1      -8.735   5.241  64.262  1.00  0.00    -0.029 C  
BRANCH   5   6
HETATM    6  O   UNL     1      -8.074   4.025  64.598  1.00  0.00    -0.091 OA 
BRANCH   6   7
HETATM    7  C   UNL     1      -7.216   3.977  65.670  1.00  0.00    -0.071 A  
HETATM    8  C   UNL     1      -6.023   3.254  65.453  1.00  0.00    -0.019 A  
HETATM    9  C   UNL     1      -5.155   3.021  66.523  1.00  0.00    -0.008 A  
HETATM   10  C   UNL     1      -7.521   4.454  66.950  1.00  0.00    -0.081 A  
HETATM   11  C   UNL     1      -6.687   4.148  68.043  1.00  0.00    -0.047 A  
HETATM   12  C   UNL     1      -5.500   3.448  67.808  1.00  0.00    -0.017 A  
BRANCH   8  13
HETATM   13  O   UNL     1      -5.811   2.809  64.170  1.00  0.00    -0.009 OA 
HETATM   14  C   UNL     1      -5.156   3.687  63.265  1.00  0.00    -0.005 C  
ENDBRANCH   8  13
BRANCH  11  15
HETATM   15  C   UNL     1      -7.162   4.368  69.464  1.00  0.00    -0.051 C  
HETATM   16  C   UNL     1      -7.695   3.200  70.334  1.00  0.00    -0.043 C  
HETATM   17  C   UNL     1      -7.896   3.704  71.814  1.00  0.00    -0.062 C  
HETATM   18  C   UNL     1      -9.024   2.534  69.859  1.00  0.00    -0.161 C  
HETATM   19  C   UNL     1      -8.865   1.714  68.577  1.00  0.00    -0.128 C  
HETATM   20  C   UNL     1     -10.195   3.510  69.730  1.00  0.00     0.898 C  
BRANCH  17  21
HETATM   21  C   UNL     1      -6.617   4.165  72.542  1.00  0.00    -0.036 C  
HETATM   22  N   UNL     1      -6.829   3.948  73.978  1.00  0.00    -0.052 NA 
HETATM   23  H1  UNL     1      -5.983   4.253  74.460  1.00  0.00     0.000 HD 
HETATM   24  H2  UNL     1      -7.092   2.988  74.203  1.00  0.00     0.000 HD 
BRANCH  21  25
HETATM   25  C   UNL     1      -6.201   5.651  72.226  1.00  0.00    -0.044 C  
HETATM   26  H   UNL     1      -4.916   6.618  71.064  1.00  0.00     0.000 HD 
HETATM   27  O   UNL     1      -5.168   5.722  71.254  1.00  0.00    -0.012 OA 
BRANCH  25  28
HETATM   28  C   UNL     1      -7.452   6.421  71.760  1.00  0.00    -0.093 C  
HETATM   29  C   UNL     1      -7.452   7.963  71.636  1.00  0.00    -0.073 C  
HETATM   30  C   UNL     1      -8.903   8.307  71.243  1.00  0.00    -0.156 C  
HETATM   31  C   UNL     1      -6.431   8.558  70.623  1.00  0.00    -0.038 C  
HETATM   32  C   UNL     1      -6.400  10.093  70.618  1.00  0.00    -0.093 C  
HETATM   33  O   UNL     1      -9.567   7.635  70.456  1.00  0.00    -0.168 OA 
HETATM   34  N   UNL     1      -9.414   9.443  71.831  1.00  0.00     0.295 N  
HETATM   35  C   UNL     1      -6.606   8.021  69.198  1.00  0.00    -0.040 C  
HETATM   36  H   UNL     1      -8.811  10.030  72.408  1.00  0.00     0.000 HD 
BRANCH  34  37
HETATM   37  C   UNL     1     -10.805   9.810  71.636  1.00  0.00     0.189 C  
BRANCH  37  38
HETATM   38  C   UNL     1     -11.046  10.661  70.378  1.00  0.00    -0.253 C  
HETATM   39  C   UNL     1     -11.715  11.995  70.774  1.00  0.00     0.275 C  
HETATM   40  C   UNL     1      -9.721  10.955  69.655  1.00  0.00     0.206 C  
BRANCH  38  41
HETATM   41  C   UNL     1     -11.992   9.902  69.438  1.00  0.00     0.336 C  
HETATM   42  N   UNL     1     -13.275   9.724  69.854  1.00  0.00     0.257 N  
HETATM   43  O   UNL     1     -11.655   9.463  68.341  1.00  0.00     0.380 OA 
HETATM   44  H2  UNL     1     -13.595  10.080  70.754  1.00  0.00     0.000 HD 
HETATM   45  H1  UNL     1     -13.904   9.220  69.230  1.00  0.00     0.000 HD 
ENDBRANCH  38  41
ENDBRANCH  37  38
ENDBRANCH  34  37
ENDBRANCH  25  28
ENDBRANCH  21  25
ENDBRANCH  17  21
ENDBRANCH  11  15
ENDBRANCH   6   7
ENDBRANCH   5   6
ENDBRANCH   4   5
ENDBRANCH   3   4
ENDBRANCH   2   3
TORSDOF 13
ENDMDL
MODEL      197
REMARK 921   NORMALIZED FREE ENERGY PREDICTED BY IDOCK:    4.73 KCAL/MOL
REMARK 922        TOTAL FREE ENERGY PREDICTED BY IDOCK:    6.02 KCAL/MOL
REMARK 923 INTER-LIGAND FREE ENERGY PREDICTED BY IDOCK:    2.49 KCAL/MOL
REMARK 924 INTRA-LIGAND FREE ENERGY PREDICTED BY IDOCK:    3.53 KCAL/MOL
REMARK 927      BINDING AFFINITY PREDICTED BY RF-SCORE:    0.00 PKD
ROOT
HETATM    1  C   UNL     1     -10.187  14.578  72.641  1.00  0.00     4.862 C  
HETATM    2  O   UNL     1     -11.231  15.409  72.153  1.00  0.00    -0.404 OA 
ENDROOT
BRANCH   2   3
HETATM    3  C   UNL     1     -10.991  15.797  70.801  1.00  0.00    -0.281 C  
BRANCH   3   4
HETATM    4  C   UNL     1     -12.156  15.354  69.926  1.00  0.00    -0.382 C  
BRANCH   4   5
HETATM    5  C   UNL     1     -11.829  14.179  69.006  1.00  0.00    -0.348 C  
BRANCH   5   6
HETATM    6  O   UNL     1     -10.743  13.426  69.536  1.00  0.00     0.020 OA 
BRANCH   6   7
HETATM    7  C   UNL     1      -9.758  12.952  68.703  1.00  0.00    -0.040 A  
HETATM    8  C   UNL     1      -8.916  13.939  68.147  1.00  0.00    -0.185 A  
HETATM    9  C   UNL     1      -7.980  13.577  67.174  1.00  0.00    -0.058 A  
HETATM   10  C   UNL     1      -9.653  11.623  68.277  1.00  0.00    -0.198 A  
HETATM   11  C   UNL     1      -8.769  11.275  67.238  1.00  0.00    -0.145 A  
HETATM   12  C   UNL     1      -7.927  12.259  66.713  1.00  0.00     0.010 A  
BRANCH   8  13
HETATM   13  O   UNL     1      -9.097  15.220  68.611  1.00  0.00    -0.176 OA 
HETATM   14  C   UNL     1      -9.201  16.263  67.652  1.00  0.00    -0.206 C  
ENDBRANCH   8  13
BRANCH  11  15
HETATM   15  C   UNL     1      -8.876   9.930  66.549  1.00  0.00    -0.154 C  
HETATM   16  C   UNL     1      -8.359   9.713  65.103  1.00  0.00    -0.142 C  
HETATM   17  C   UNL     1      -8.409   8.176  64.759  1.00  0.00    -0.113 C  
HETATM   18  C   UNL     1      -9.106  10.492  63.977  1.00  0.00    -0.256 C  
HETATM   19  C   UNL     1      -8.848  11.999  64.010  1.00  0.00     0.955 C  
HETATM   20  C   UNL     1     -10.608  10.206  63.916  1.00  0.00     1.257 C  
BRANCH  17  21
HETATM   21  C   UNL     1      -7.510   7.268  65.623  1.00  0.00    -0.085 C  
HETATM   22  N   UNL     1      -6.320   6.945  64.826  1.00  0.00    -0.036 NA 
HETATM   23  H1  UNL     1      -5.725   6.345  65.397  1.00  0.00     0.000 HD 
HETATM   24  H2  UNL     1      -5.835   7.773  64.480  1.00  0.00     0.000 HD 
BRANCH  21  25
HETATM   25  C   UNL     1      -8.232   5.972  66.154  1.00  0.00    -0.121 C  
HETATM   26  H   UNL     1      -8.491   4.084  65.603  1.00  0.00     0.000 HD 
HETATM   27  O   UNL     1      -8.055   4.865  65.282  1.00  0.00    -0.108 OA 
BRANCH  25  28
HETATM   28  C   UNL     1      -7.695   5.656  67.565  1.00  0.00    -0.097 C  
HETATM   29  C   UNL     1      -7.906   4.270  68.217  1.00  0.00    -0.075 C  
HETATM   30  C   UNL     1      -7.307   4.426  69.630  1.00  0.00    -0.051 C  
HETATM   31  C   UNL     1      -7.274   3.066  67.461  1.00  0.00    -0.054 C  
HETATM   32  C   UNL     1      -7.603   1.707  68.094  1.00  0.00    -0.050 C  
HETATM   33  O   UNL     1      -6.276   5.056  69.861  1.00  0.00    -0.024 OA 
HETATM   34  N   UNL     1      -8.008   3.795  70.634  1.00  0.00    -0.054 N  
HETATM   35  C   UNL     1      -5.762   3.206  67.250  1.00  0.00    -0.022 C  
HETATM   36  H   UNL     1      -8.807   3.206  70.402  1.00  0.00     0.000 HD 
BRANCH  34  37
HETATM   37  C   UNL     1      -7.615   3.963  72.022  1.00  0.00    -0.066 C  
BRANCH  37  38
HETATM   38  C   UNL     1      -7.603   5.429  72.484  1.00  0.00    -0.098 C  
HETATM   39  C   UNL     1      -7.332   5.492  74.003  1.00  0.00    -0.090 C  
HETATM   40  C   UNL     1      -6.518   6.228  71.743  1.00  0.00    -0.050 C  
BRANCH  38  41
HETATM   41  C   UNL     1      -8.981   6.049  72.211  1.00  0.00    -0.141 C  
HETATM   42  N   UNL     1      -9.912   5.260  71.610  1.00  0.00    -0.173 N  
HETATM   43  O   UNL     1      -9.281   7.202  72.511  1.00  0.00    -0.137 OA 
HETATM   44  H2  UNL     1      -9.703   4.295  71.352  1.00  0.00     0.000 HD 
HETATM   45  H1  UNL     1     -10.827   5.671  71.428  1.00  0.00     0.000 HD 
ENDBRANCH  38  41
ENDBRANCH  37  38
ENDBRANCH  34  37
ENDBRANCH  25  28
ENDBRANCH  21  25
ENDBRANCH  17  21
ENDBRANCH  11  15
ENDBRANCH   6   7
ENDBRANCH   5   6
ENDBRANCH   4   5
ENDBRANCH   3   4
ENDBRANCH   2   3
TORSDOF 13
ENDMDL
MODEL      198
REMARK 921   NORMALIZED FREE ENERGY PREDICTED BY IDOCK:    4.89 KCAL/MOL
REMARK 922        TOTAL FREE ENERGY PREDICTED BY IDOCK:    6.30 KCAL/MOL
REMARK 923 INTER-LIGAND FREE ENERGY PREDICTED BY IDOCK:    3.37 KCAL/MOL
REMARK 924 INTRA-LIGAND FREE ENERGY PREDICTED BY IDOCK:    2.93 KCAL/MOL
REMARK 927      BINDING AFFINITY PREDICTED BY RF-SCORE:    0.00 PKD
ROOT
HETATM    1  C   UNL     1     -10.167  14.560  72.643  1.00  0.00     4.862 C  
HETATM    2  O   UNL     1     -11.159  15.463  72.176  1.00  0.00    -0.344 OA 
ENDROOT
BRANCH   2   3
HETATM    3  C   UNL     1     -10.891  15.873  70.836  1.00  0.00    -0.063 C  
BRANCH   3   4
HETATM    4  C   UNL     1     -12.110  15.603  69.964  1.00  0.00    -0.379 C  
BRANCH   4   5
HETATM    5  C   UNL     1     -11.930  14.437  68.992  1.00  0.00    -0.307 C  
BRANCH   5   6
HETATM    6  O   UNL     1     -10.971  13.515  69.501  1.00  0.00    -0.124 OA 
BRANCH   6   7
HETATM    7  C   UNL     1     -10.030  12.966  68.665  1.00  0.00    -0.092 A  
HETATM    8  C   UNL     1      -9.005  13.846  68.253  1.00  0.00    -0.187 A  
HETATM    9  C   UNL     1      -8.086  13.427  67.288  1.00  0.00    -0.147 A  
HETATM   10  C   UNL     1     -10.118  11.686  68.105  1.00  0.00    -0.202 A  
HETATM   11  C   UNL     1      -9.242  11.296  67.074  1.00  0.00    -0.173 A  
HETATM   12  C   UNL     1      -8.221  12.170  66.692  1.00  0.00    -0.017 A  
BRANCH   8  13
HETATM   13  O   UNL     1      -9.002  15.088  68.842  1.00  0.00    -0.187 OA 
HETATM   14  C   UNL     1      -8.879  16.221  67.995  1.00  0.00    -0.182 C  
ENDBRANCH   8  13
BRANCH  11  15
HETATM   15  C   UNL     1      -9.527  10.062  66.242  1.00  0.00    -0.241 C  
HETATM   16  C   UNL     1      -8.936   9.887  64.819  1.00  0.00    -0.255 C  
HETATM   17  C   UNL     1      -9.228   8.422  64.313  1.00  0.00     0.965 C  
HETATM   18  C   UNL     1      -9.437  10.889  63.734  1.00  0.00    -0.308 C  
HETATM   19  C   UNL     1      -8.921  12.314  63.941  1.00  0.00     1.112 C  
HETATM   20  C   UNL     1     -10.956  10.890  63.544  1.00  0.00     0.189 C  
BRANCH  17  21
HETATM   21  C   UNL     1      -8.579   7.290  65.135  1.00  0.00     0.061 C  
HETATM   22  N   UNL     1      -7.373   6.863  64.414  1.00  0.00    -0.081 NA 
HETATM   23  H1  UNL     1      -6.944   6.114  64.957  1.00  0.00     0.000 HD 
HETATM   24  H2  UNL     1      -6.732   7.632  64.218  1.00  0.00     0.000 HD 
BRANCH  21  25
HETATM   25  C   UNL     1      -9.545   6.082  65.434  1.00  0.00     0.499 C  
HETATM   26  H   UNL     1     -10.036   4.338  64.627  1.00  0.00     0.000 HD 
HETATM   27  O   UNL     1      -9.453   5.066  64.446  1.00  0.00     0.060 OA 
BRANCH  25  28
HETATM   28  C   UNL     1      -9.214   5.525  66.833  1.00  0.00    -0.119 C  
HETATM   29  C   UNL     1      -8.743   6.451  67.979  1.00  0.00    -0.115 C  
HETATM   30  C   UNL     1      -8.438   5.482  69.141  1.00  0.00    -0.104 C  
HETATM   31  C   UNL     1      -9.750   7.557  68.410  1.00  0.00    -0.161 C  
HETATM   32  C   UNL     1      -9.190   8.510  69.476  1.00  0.00    -0.150 C  
HETATM   33  O   UNL     1      -9.129   4.498  69.399  1.00  0.00    -0.096 OA 
HETATM   34  N   UNL     1      -7.328   5.801  69.891  1.00  0.00    -0.069 N  
HETATM   35  C   UNL     1     -11.110   7.003  68.848  1.00  0.00    -0.102 C  
HETATM   36  H   UNL     1      -6.827   6.670  69.710  1.00  0.00     0.000 HD 
BRANCH  34  37
HETATM   37  C   UNL     1      -6.866   4.907  70.937  1.00  0.00    -0.040 C  
BRANCH  37  38
HETATM   38  C   UNL     1      -6.550   3.487  70.438  1.00  0.00    -0.032 C  
HETATM   39  C   UNL     1      -5.733   2.730  71.508  1.00  0.00    -0.012 C  
HETATM   40  C   UNL     1      -7.844   2.709  70.145  1.00  0.00    -0.048 C  
BRANCH  38  41
HETATM   41  C   UNL     1      -5.704   3.586  69.161  1.00  0.00    -0.022 C  
HETATM   42  N   UNL     1      -5.424   4.831  68.692  1.00  0.00    -0.011 N  
HETATM   43  O   UNL     1      -5.267   2.609  68.556  1.00  0.00    -0.011 OA 
HETATM   44  H2  UNL     1      -5.763   5.666  69.169  1.00  0.00     0.000 HD 
HETATM   45  H1  UNL     1      -4.862   4.897  67.843  1.00  0.00     0.000 HD 
ENDBRANCH  38  41
ENDBRANCH  37  38
ENDBRANCH  34  37
ENDBRANCH  25  28
ENDBRANCH  21  25
ENDBRANCH  17  21
ENDBRANCH  11  15
ENDBRANCH   6   7
ENDBRANCH   5   6
ENDBRANCH   4   5
ENDBRANCH   3   4
ENDBRANCH   2   3
TORSDOF 13
ENDMDL
MODEL      199
REMARK 921   NORMALIZED FREE ENERGY PREDICTED BY IDOCK:    5.31 KCAL/MOL
REMARK 922        TOTAL FREE ENERGY PREDICTED BY IDOCK:    7.03 KCAL/MOL
REMARK 923 INTER-LIGAND FREE ENERGY PREDICTED BY IDOCK:   -1.81 KCAL/MOL
REMARK 924 INTRA-LIGAND FREE ENERGY PREDICTED BY IDOCK:    8.84 KCAL/MOL
REMARK 927      BINDING AFFINITY PREDICTED BY RF-SCORE:    0.00 PKD
ROOT
HETATM    1  C   UNL     1      -6.422   8.417  63.863  1.00  0.00    -0.072 C  
HETATM    2  O   UNL     1      -6.484   9.624  64.611  1.00  0.00    -0.088 OA 
ENDROOT
BRANCH   2   3
HETATM    3  C   UNL     1      -7.417  10.538  64.036  1.00  0.00     0.099 C  
BRANCH   3   4
HETATM    4  C   UNL     1      -8.793  10.319  64.652  1.00  0.00    -0.220 C  
BRANCH   4   5
HETATM    5  C   UNL     1      -9.337   8.903  64.464  1.00  0.00     0.510 C  
BRANCH   5   6
HETATM    6  O   UNL     1      -9.438   8.243  65.723  1.00  0.00    -0.118 OA 
BRANCH   6   7
HETATM    7  C   UNL     1      -8.916   8.826  66.852  1.00  0.00    -0.132 A  
HETATM    8  C   UNL     1      -7.866   8.111  67.468  1.00  0.00    -0.110 A  
HETATM    9  C   UNL     1      -7.371   8.543  68.701  1.00  0.00    -0.088 A  
HETATM   10  C   UNL     1      -9.454   9.957  67.479  1.00  0.00    -0.173 A  
HETATM   11  C   UNL     1      -9.009  10.342  68.759  1.00  0.00    -0.155 A  
HETATM   12  C   UNL     1      -7.955   9.636  69.346  1.00  0.00    -0.111 A  
BRANCH   8  13
HETATM   13  O   UNL     1      -7.411   7.005  66.792  1.00  0.00    -0.074 OA 
HETATM   14  C   UNL     1      -6.183   6.429  67.216  1.00  0.00    -0.032 C  
ENDBRANCH   8  13
BRANCH  11  15
HETATM   15  C   UNL     1      -9.792  11.346  69.580  1.00  0.00     0.661 C  
HETATM   16  C   UNL     1     -10.558  12.519  68.917  1.00  0.00    -0.152 C  
HETATM   17  C   UNL     1     -11.443  13.242  70.003  1.00  0.00    -0.105 C  
HETATM   18  C   UNL     1      -9.687  13.596  68.199  1.00  0.00    -0.229 C  
HETATM   19  C   UNL     1      -9.035  13.088  66.912  1.00  0.00    -0.210 C  
HETATM   20  C   UNL     1      -8.643  14.254  69.105  1.00  0.00     0.156 C  
BRANCH  17  21
HETATM   21  C   UNL     1     -12.551  12.381  70.642  1.00  0.00    -0.153 C  
HETATM   22  N   UNL     1     -12.340  12.405  72.095  1.00  0.00     0.516 NA 
HETATM   23  H1  UNL     1     -13.073  11.836  72.518  1.00  0.00     0.000 HD 
HETATM   24  H2  UNL     1     -12.299  13.350  72.476  1.00  0.00     0.000 HD 
BRANCH  21  25
HETATM   25  C   UNL     1     -12.622  10.910  70.082  1.00  0.00    -0.234 C  
HETATM   26  H   UNL     1     -12.756   9.995  68.327  1.00  0.00     0.000 HD 
HETATM   27  O   UNL     1     -12.713  10.882  68.665  1.00  0.00     0.017 OA 
BRANCH  25  28
HETATM   28  C   UNL     1     -11.380  10.139  70.572  1.00  0.00    -0.416 C  
HETATM   29  C   UNL     1     -11.502   8.737  71.213  1.00  0.00    -0.355 C  
HETATM   30  C   UNL     1     -10.058   8.392  71.634  1.00  0.00    -0.239 C  
HETATM   31  C   UNL     1     -12.110   7.630  70.304  1.00  0.00     0.250 C  
HETATM   32  C   UNL     1     -12.305   6.288  71.024  1.00  0.00     0.181 C  
HETATM   33  O   UNL     1      -9.072   8.664  70.952  1.00  0.00    -0.155 OA 
HETATM   34  N   UNL     1      -9.942   7.737  72.840  1.00  0.00    -0.253 N  
HETATM   35  C   UNL     1     -11.339   7.428  68.994  1.00  0.00     0.292 C  
HETATM   36  H   UNL     1     -10.781   7.444  73.340  1.00  0.00     0.000 HD 
BRANCH  34  37
HETATM   37  C   UNL     1      -8.633   7.461  73.404  1.00  0.00    -0.151 C  
BRANCH  37  38
HETATM   38  C   UNL     1      -7.647   6.846  72.397  1.00  0.00    -0.091 C  
HETATM   39  C   UNL     1      -8.426   6.057  71.323  1.00  0.00    -0.128 C  
HETATM   40  C   UNL     1      -6.810   7.941  71.714  1.00  0.00    -0.062 C  
BRANCH  38  41
HETATM   41  C   UNL     1      -6.720   5.873  73.140  1.00  0.00    -0.074 C  
HETATM   42  N   UNL     1      -6.173   6.301  74.309  1.00  0.00    -0.065 N  
HETATM   43  O   UNL     1      -6.460   4.741  72.739  1.00  0.00    -0.039 OA 
HETATM   44  H2  UNL     1      -6.370   7.231  74.678  1.00  0.00     0.000 HD 
HETATM   45  H1  UNL     1      -5.558   5.654  74.802  1.00  0.00     0.000 HD 
ENDBRANCH  38  41
ENDBRANCH  37  38
ENDBRANCH  34  37
ENDBRANCH  25  28
ENDBRANCH  21  25
ENDBRANCH  17  21
ENDBRANCH  11  15
ENDBRANCH   6   7
ENDBRANCH   5   6
ENDBRANCH   4   5
ENDBRANCH   3   4
ENDBRANCH   2   3
TORSDOF 13
ENDMDL
MODEL      200
REMARK 921   NORMALIZED FREE ENERGY PREDICTED BY IDOCK:    5.61 KCAL/MOL
REMARK 922        TOTAL FREE ENERGY PREDICTED BY IDOCK:    7.56 KCAL/MOL
REMARK 923 INTER-LIGAND FREE ENERGY PREDICTED BY IDOCK:   -1.03 KCAL/MOL
REMARK 924 INTRA-LIGAND FREE ENERGY PREDICTED BY IDOCK:    8.59 KCAL/MOL
REMARK 927      BINDING AFFINITY PREDICTED BY RF-SCORE:    0.00 PKD
ROOT
HETATM    1  C   UNL     1      -7.950  11.903  67.851  1.00  0.00    -0.144 C  
HETATM    2  O   UNL     1      -8.240  10.620  68.388  1.00  0.00    -0.114 OA 
ENDROOT
BRANCH   2   3
HETATM    3  C   UNL     1      -8.759   9.749  67.385  1.00  0.00    -0.132 C  
BRANCH   3   4
HETATM    4  C   UNL     1     -10.267   9.936  67.275  1.00  0.00    -0.277 C  
BRANCH   4   5
HETATM    5  C   UNL     1     -10.709  10.664  66.006  1.00  0.00    -0.057 C  
BRANCH   5   6
HETATM    6  O   UNL     1     -11.843  11.483  66.278  1.00  0.00    -0.354 OA 
BRANCH   6   7
HETATM    7  C   UNL     1     -11.874  12.786  65.844  1.00  0.00    -0.437 A  
HETATM    8  C   UNL     1     -12.356  12.971  64.531  1.00  0.00    -0.398 A  
HETATM    9  C   UNL     1     -12.288  14.238  63.945  1.00  0.00    -0.176 A  
HETATM   10  C   UNL     1     -11.331  13.867  66.548  1.00  0.00    -0.340 A  
HETATM   11  C   UNL     1     -11.187  15.123  65.927  1.00  0.00    -0.280 A  
HETATM   12  C   UNL     1     -11.688  15.296  64.634  1.00  0.00    -0.308 A  
BRANCH   8  13
HETATM   13  O   UNL     1     -12.857  11.853  63.907  1.00  0.00    -0.536 OA 
HETATM   14  C   UNL     1     -12.264  11.459  62.678  1.00  0.00     1.294 C  
ENDBRANCH   8  13
BRANCH  11  15
HETATM   15  C   UNL     1     -10.317  16.197  66.547  1.00  0.00    -0.311 C  
HETATM   16  C   UNL     1      -8.779  16.211  66.352  1.00  0.00    -0.360 C  
HETATM   17  C   UNL     1      -8.195  17.560  66.922  1.00  0.00    -0.253 C  
HETATM   18  C   UNL     1      -7.990  15.027  66.991  1.00  0.00    -0.197 C  
HETATM   19  C   UNL     1      -8.225  13.691  66.283  1.00  0.00     1.091 C  
HETATM   20  C   UNL     1      -8.206  14.880  68.499  1.00  0.00    -0.153 C  
BRANCH  17  21
HETATM   21  C   UNL     1      -8.676  18.846  66.221  1.00  0.00    -0.252 C  
HETATM   22  N   UNL     1      -7.841  19.949  66.709  1.00  0.00    -0.289 NA 
HETATM   23  H1  UNL     1      -8.159  20.800  66.246  1.00  0.00     0.000 HD 
HETATM   24  H2  UNL     1      -6.843  19.778  66.588  1.00  0.00     0.000 HD 
BRANCH  21  25
HETATM   25  C   UNL     1     -10.212  19.141  66.411  1.00  0.00    -0.438 C  
HETATM   26  H   UNL     1     -11.910  18.864  65.424  1.00  0.00     0.000 HD 
HETATM   27  O   UNL     1     -10.984  18.686  65.309  1.00  0.00    -0.536 OA 
BRANCH  25  28
HETATM   28  C   UNL     1     -10.679  18.482  67.724  1.00  0.00    -0.378 C  
HETATM   29  C   UNL     1      -9.684  17.761  68.664  1.00  0.00    -0.346 C  
HETATM   30  C   UNL     1     -10.577  17.180  69.779  1.00  0.00     0.100 C  
HETATM   31  C   UNL     1      -8.546  18.648  69.249  1.00  0.00     0.173 C  
HETATM   32  C   UNL     1      -7.530  17.861  70.087  1.00  0.00     1.738 C  
HETATM   33  O   UNL     1     -11.538  17.781  70.257  1.00  0.00     2.409 OA 
HETATM   34  N   UNL     1     -10.217  15.927  70.222  1.00  0.00    -0.113 N  
HETATM   35  C   UNL     1      -9.062  19.860  70.032  1.00  0.00     0.926 C  
HETATM   36  H   UNL     1      -9.364  15.492  69.872  1.00  0.00     0.000 HD 
BRANCH  34  37
HETATM   37  C   UNL     1     -11.044  15.222  71.185  1.00  0.00    -0.278 C  
BRANCH  37  38
HETATM   38  C   UNL     1     -12.094  14.303  70.537  1.00  0.00    -0.413 C  
HETATM   39  C   UNL     1     -12.970  15.122  69.564  1.00  0.00     0.412 C  
HETATM   40  C   UNL     1     -11.417  13.158  69.766  1.00  0.00    -0.216 C  
BRANCH  38  41
HETATM   41  C   UNL     1     -12.996  13.726  71.636  1.00  0.00    -0.364 C  
HETATM   42  N   UNL     1     -13.953  14.544  72.152  1.00  0.00    -0.458 N  
HETATM   43  O   UNL     1     -12.903  12.576  72.061  1.00  0.00    -0.264 OA 
HETATM   44  H2  UNL     1     -14.067  15.502  71.821  1.00  0.00     0.000 HD 
HETATM   45  H1  UNL     1     -14.553  14.161  72.882  1.00  0.00     0.000 HD 
ENDBRANCH  38  41
ENDBRANCH  37  38
ENDBRANCH  34  37
ENDBRANCH  25  28
ENDBRANCH  21  25
ENDBRANCH  17  21
ENDBRANCH  11  15
ENDBRANCH   6   7
ENDBRANCH   5   6
ENDBRANCH   4   5
ENDBRANCH   3   4
ENDBRANCH   2   3
TORSDOF 13
ENDMDL
MODEL      201
REMARK 921   NORMALIZED FREE ENERGY PREDICTED BY IDOCK:    6.67 KCAL/MOL
REMARK 922        TOTAL FREE ENERGY PREDICTED BY IDOCK:    9.43 KCAL/MOL
REMARK 923 INTER-LIGAND FREE ENERGY PREDICTED BY IDOCK:    7.85 KCAL/MOL
REMARK 924 INTRA-LIGAND FREE ENERGY PREDICTED BY IDOCK:    1.58 KCAL/MOL
REMARK 927      BINDING AFFINITY PREDICTED BY RF-SCORE:    0.00 PKD
ROOT
HETATM    1  C   UNL     1      -9.531  17.203  65.092  1.00  0.00     1.678 C  
HETATM    2  O   UNL     1     -10.461  16.180  64.764  1.00  0.00    -0.592 OA 
ENDROOT
BRANCH   2   3
HETATM    3  C   UNL     1      -9.886  14.887  64.945  1.00  0.00     0.113 C  
BRANCH   3   4
HETATM    4  C   UNL     1     -10.299  14.327  66.299  1.00  0.00    -0.297 C  
BRANCH   4   5
HETATM    5  C   UNL     1     -10.217  12.804  66.392  1.00  0.00    -0.253 C  
BRANCH   5   6
HETATM    6  O   UNL     1     -10.182  12.394  67.756  1.00  0.00    -0.203 OA 
BRANCH   6   7
HETATM    7  C   UNL     1     -11.038  12.959  68.669  1.00  0.00    -0.269 A  
HETATM    8  C   UNL     1     -12.249  12.263  68.869  1.00  0.00     0.042 A  
HETATM    9  C   UNL     1     -13.247  12.832  69.664  1.00  0.00     1.817 A  
HETATM   10  C   UNL     1     -10.845  14.212  69.265  1.00  0.00    -0.219 A  
HETATM   11  C   UNL     1     -11.883  14.820  69.997  1.00  0.00    -0.362 A  
HETATM   12  C   UNL     1     -13.068  14.109  70.203  1.00  0.00     0.199 A  
BRANCH   8  13
HETATM   13  O   UNL     1     -12.360  11.048  68.235  1.00  0.00    -0.479 OA 
HETATM   14  C   UNL     1     -11.160  10.373  67.884  1.00  0.00    -0.299 C  
ENDBRANCH   8  13
BRANCH  11  15
HETATM   15  C   UNL     1     -11.814  16.289  70.363  1.00  0.00    -0.018 C  
HETATM   16  C   UNL     1     -10.886  16.803  71.494  1.00  0.00     1.245 C  
HETATM   17  C   UNL     1     -10.873  18.379  71.480  1.00  0.00     3.173 C  
HETATM   18  C   UNL     1     -11.231  16.329  72.940  1.00  0.00     0.905 C  
HETATM   19  C   UNL     1     -10.952  14.843  73.173  1.00  0.00     1.502 C  
HETATM   20  C   UNL     1     -12.650  16.685  73.387  1.00  0.00    -0.165 C  
BRANCH  17  21
HETATM   21  C   UNL     1     -10.307  19.030  70.202  1.00  0.00     1.300 C  
HETATM   22  N   UNL     1     -11.212  20.126  69.832  1.00  0.00     1.299 NA 
HETATM   23  H1  UNL     1     -10.838  20.557  68.986  1.00  0.00     0.000 HD 
HETATM   24  H2  UNL     1     -11.360  20.794  70.588  1.00  0.00     0.000 HD 
BRANCH  21  25
HETATM   25  C   UNL     1     -10.088  18.021  69.013  1.00  0.00    -0.293 C  
HETATM   26  H   UNL     1      -9.775  18.078  67.054  1.00  0.00     0.000 HD 
HETATM   27  O   UNL     1      -9.907  18.687  67.772  1.00  0.00    -0.303 OA 
BRANCH  25  28
HETATM   28  C   UNL     1      -8.873  17.131  69.344  1.00  0.00     0.325 C  
HETATM   29  C   UNL     1      -7.563  17.215  68.525  1.00  0.00    -0.245 C  
HETATM   30  C   UNL     1      -6.675  16.106  69.126  1.00  0.00    -0.190 C  
HETATM   31  C   UNL     1      -6.843  18.594  68.543  1.00  0.00    -0.281 C  
HETATM   32  C   UNL     1      -5.610  18.651  67.631  1.00  0.00    -0.165 C  
HETATM   33  O   UNL     1      -6.624  15.860  70.330  1.00  0.00     0.002 OA 
HETATM   34  N   UNL     1      -5.919  15.404  68.213  1.00  0.00    -0.110 N  
HETATM   35  C   UNL     1      -6.489  19.076  69.955  1.00  0.00    -0.137 C  
HETATM   36  H   UNL     1      -5.913  15.689  67.234  1.00  0.00     0.000 HD 
BRANCH  34  37
HETATM   37  C   UNL     1      -5.132  14.260  68.635  1.00  0.00    -0.095 C  
BRANCH  37  38
HETATM   38  C   UNL     1      -5.913  12.936  68.620  1.00  0.00    -0.070 C  
HETATM   39  C   UNL     1      -7.354  13.189  68.125  1.00  0.00    -0.119 C  
HETATM   40  C   UNL     1      -5.234  11.910  67.697  1.00  0.00    -0.071 C  
BRANCH  38  41
HETATM   41  C   UNL     1      -5.981  12.381  70.050  1.00  0.00    -0.149 C  
HETATM   42  N   UNL     1      -5.652  13.227  71.064  1.00  0.00    -0.196 N  
HETATM   43  O   UNL     1      -6.321  11.232  70.320  1.00  0.00    -0.175 OA 
HETATM   44  H2  UNL     1      -5.371  14.190  70.881  1.00  0.00     0.000 HD 
HETATM   45  H1  UNL     1      -5.696  12.859  72.014  1.00  0.00     0.000 HD 
ENDBRANCH  38  41
ENDBRANCH  37  38
ENDBRANCH  34  37
ENDBRANCH  25  28
ENDBRANCH  21  25
ENDBRANCH  17  21
ENDBRANCH  11  15
ENDBRANCH   6   7
ENDBRANCH   5   6
ENDBRANCH   4   5
ENDBRANCH   3   4
ENDBRANCH   2   3
TORSDOF 13
ENDMDL
MODEL      202
REMARK 921   NORMALIZED FREE ENERGY PREDICTED BY IDOCK:    6.91 KCAL/MOL
REMARK 922        TOTAL FREE ENERGY PREDICTED BY IDOCK:    9.84 KCAL/MOL
REMARK 923 INTER-LIGAND FREE ENERGY PREDICTED BY IDOCK:    4.51 KCAL/MOL
REMARK 924 INTRA-LIGAND FREE ENERGY PREDICTED BY IDOCK:    5.33 KCAL/MOL
REMARK 927      BINDING AFFINITY PREDICTED BY RF-SCORE:    0.00 PKD
ROOT
HETATM    1  C   UNL     1     -10.728   4.052  71.791  1.00  0.00     0.419 C  
HETATM    2  O   UNL     1     -11.475   5.009  72.529  1.00  0.00    -0.135 OA 
ENDROOT
BRANCH   2   3
HETATM    3  C   UNL     1     -10.709   6.189  72.765  1.00  0.00    -0.239 C  
BRANCH   3   4
HETATM    4  C   UNL     1      -9.292   5.992  72.241  1.00  0.00    -0.149 C  
BRANCH   4   5
HETATM    5  C   UNL     1      -8.593   7.291  71.843  1.00  0.00    -0.114 C  
BRANCH   5   6
HETATM    6  O   UNL     1      -9.435   8.064  70.993  1.00  0.00    -0.154 OA 
BRANCH   6   7
HETATM    7  C   UNL     1      -8.894   8.801  69.968  1.00  0.00    -0.146 A  
HETATM    8  C   UNL     1      -9.472  10.073  69.772  1.00  0.00    -0.207 A  
HETATM    9  C   UNL     1      -9.095  10.838  68.664  1.00  0.00    -0.173 A  
HETATM   10  C   UNL     1      -7.952   8.313  69.054  1.00  0.00    -0.112 A  
HETATM   11  C   UNL     1      -7.635   9.048  67.896  1.00  0.00    -0.093 A  
HETATM   12  C   UNL     1      -8.200  10.315  67.727  1.00  0.00    -0.110 A  
BRANCH   8  13
HETATM   13  O   UNL     1     -10.400  10.467  70.707  1.00  0.00     0.166 OA 
HETATM   14  C   UNL     1     -11.538   9.639  70.900  1.00  0.00    -0.344 C  
ENDBRANCH   8  13
BRANCH  11  15
HETATM   15  C   UNL     1      -6.882   8.401  66.751  1.00  0.00    -0.069 C  
HETATM   16  C   UNL     1      -7.559   7.371  65.811  1.00  0.00    -0.090 C  
HETATM   17  C   UNL     1      -6.595   7.058  64.604  1.00  0.00    -0.043 C  
HETATM   18  C   UNL     1      -7.987   6.019  66.460  1.00  0.00    -0.105 C  
HETATM   19  C   UNL     1      -9.171   6.155  67.419  1.00  0.00    -0.112 C  
HETATM   20  C   UNL     1      -6.838   5.261  67.130  1.00  0.00    -0.060 C  
BRANCH  17  21
HETATM   21  C   UNL     1      -6.267   8.251  63.684  1.00  0.00    -0.072 C  
HETATM   22  N   UNL     1      -5.351   9.132  64.419  1.00  0.00    -0.054 NA 
HETATM   23  H1  UNL     1      -5.134   9.921  63.811  1.00  0.00     0.000 HD 
HETATM   24  H2  UNL     1      -4.519   8.649  64.757  1.00  0.00     0.000 HD 
BRANCH  21  25
HETATM   25  C   UNL     1      -7.536   9.025  63.163  1.00  0.00    -0.106 C  
HETATM   26  H   UNL     1      -9.337   8.608  62.441  1.00  0.00     0.000 HD 
HETATM   27  O   UNL     1      -8.571   8.142  62.756  1.00  0.00    -0.067 OA 
BRANCH  25  28
HETATM   28  C   UNL     1      -8.024   9.972  64.277  1.00  0.00    -0.152 C  
HETATM   29  C   UNL     1      -9.053  11.091  63.992  1.00  0.00    -0.115 C  
HETATM   30  C   UNL     1      -9.175  11.838  65.336  1.00  0.00    -0.013 C  
HETATM   31  C   UNL     1     -10.443  10.615  63.478  1.00  0.00     0.021 C  
HETATM   32  C   UNL     1     -11.386  11.769  63.111  1.00  0.00    -0.198 C  
HETATM   33  O   UNL     1      -9.182  11.269  66.427  1.00  0.00    -0.180 OA 
HETATM   34  N   UNL     1      -9.289  13.207  65.236  1.00  0.00    -0.245 N  
HETATM   35  C   UNL     1     -11.139   9.634  64.428  1.00  0.00     4.902 C  
HETATM   36  H   UNL     1      -9.371  13.643  64.318  1.00  0.00     0.000 HD 
BRANCH  34  37
HETATM   37  C   UNL     1      -9.292  14.034  66.429  1.00  0.00    -0.221 C  
BRANCH  37  38
HETATM   38  C   UNL     1      -7.896  14.237  67.041  1.00  0.00     0.047 C  
HETATM   39  C   UNL     1      -7.889  13.725  68.498  1.00  0.00    -0.132 C  
HETATM   40  C   UNL     1      -6.830  13.478  66.233  1.00  0.00     3.567 C  
BRANCH  38  41
HETATM   41  C   UNL     1      -7.570  15.737  67.051  1.00  0.00    -0.222 C  
HETATM   42  N   UNL     1      -8.579  16.597  66.748  1.00  0.00    -0.214 N  
HETATM   43  O   UNL     1      -6.461  16.191  67.323  1.00  0.00    -0.166 OA 
HETATM   44  H2  UNL     1      -9.515  16.259  66.523  1.00  0.00     0.000 HD 
HETATM   45  H1  UNL     1      -8.362  17.593  66.754  1.00  0.00     0.000 HD 
ENDBRANCH  38  41
ENDBRANCH  37  38
ENDBRANCH  34  37
ENDBRANCH  25  28
ENDBRANCH  21  25
ENDBRANCH  17  21
ENDBRANCH  11  15
ENDBRANCH   6   7
ENDBRANCH   5   6
ENDBRANCH   4   5
ENDBRANCH   3   4
ENDBRANCH   2   3
TORSDOF 13
ENDMDL
MODEL      203
REMARK 921   NORMALIZED FREE ENERGY PREDICTED BY IDOCK:    7.38 KCAL/MOL
REMARK 922        TOTAL FREE ENERGY PREDICTED BY IDOCK:   10.68 KCAL/MOL
REMARK 923 INTER-LIGAND FREE ENERGY PREDICTED BY IDOCK:    4.03 KCAL/MOL
REMARK 924 INTRA-LIGAND FREE ENERGY PREDICTED BY IDOCK:    6.65 KCAL/MOL
REMARK 927      BINDING AFFINITY PREDICTED BY RF-SCORE:    0.00 PKD
ROOT
HETATM    1  C   UNL     1      -9.947  15.037  71.900  1.00  0.00     3.004 C  
HETATM    2  O   UNL     1      -9.858  15.569  70.586  1.00  0.00     0.223 OA 
ENDROOT
BRANCH   2   3
HETATM    3  C   UNL     1     -11.150  15.885  70.071  1.00  0.00    -0.354 C  
BRANCH   3   4
HETATM    4  C   UNL     1     -11.019  16.420  68.651  1.00  0.00    -0.345 C  
BRANCH   4   5
HETATM    5  C   UNL     1     -12.251  16.176  67.780  1.00  0.00     1.131 C  
BRANCH   5   6
HETATM    6  O   UNL     1     -12.027  15.073  66.908  1.00  0.00    -0.205 OA 
BRANCH   6   7
HETATM    7  C   UNL     1     -11.861  13.809  67.420  1.00  0.00    -0.396 A  
HETATM    8  C   UNL     1     -12.596  13.535  68.593  1.00  0.00     0.625 A  
HETATM    9  C   UNL     1     -12.384  12.333  69.274  1.00  0.00     0.069 A  
HETATM   10  C   UNL     1     -10.927  12.879  66.947  1.00  0.00    -0.294 A  
HETATM   11  C   UNL     1     -10.655  11.707  67.678  1.00  0.00    -0.237 A  
HETATM   12  C   UNL     1     -11.405  11.441  68.827  1.00  0.00    -0.334 A  
BRANCH   8  13
HETATM   13  O   UNL     1     -13.479  14.509  68.995  1.00  0.00     2.135 OA 
HETATM   14  C   UNL     1     -13.866  14.529  70.361  1.00  0.00     0.806 C  
ENDBRANCH   8  13
BRANCH  11  15
HETATM   15  C   UNL     1      -9.435  10.865  67.365  1.00  0.00    -0.170 C  
HETATM   16  C   UNL     1      -8.580  11.113  66.095  1.00  0.00    -0.172 C  
HETATM   17  C   UNL     1      -7.273  10.235  66.170  1.00  0.00    -0.121 C  
HETATM   18  C   UNL     1      -9.277  10.838  64.727  1.00  0.00    -0.245 C  
HETATM   19  C   UNL     1     -10.363  11.861  64.385  1.00  0.00    -0.341 C  
HETATM   20  C   UNL     1      -9.816   9.414  64.580  1.00  0.00     0.459 C  
BRANCH  17  21
HETATM   21  C   UNL     1      -6.318  10.556  67.337  1.00  0.00    -0.058 C  
HETATM   22  N   UNL     1      -5.171   9.647  67.227  1.00  0.00    -0.035 NA 
HETATM   23  H1  UNL     1      -4.539   9.858  67.999  1.00  0.00     0.000 HD 
HETATM   24  H2  UNL     1      -4.715   9.689  66.315  1.00  0.00     0.000 HD 
BRANCH  21  25
HETATM   25  C   UNL     1      -6.996  10.479  68.758  1.00  0.00    -0.070 C  
HETATM   26  H   UNL     1      -8.822  10.406  69.530  1.00  0.00     0.000 HD 
HETATM   27  O   UNL     1      -8.413  10.452  68.673  1.00  0.00    -0.115 OA 
BRANCH  25  28
HETATM   28  C   UNL     1      -6.461   9.230  69.488  1.00  0.00    -0.043 C  
HETATM   29  C   UNL     1      -7.415   8.242  70.199  1.00  0.00    -0.060 C  
HETATM   30  C   UNL     1      -6.468   7.221  70.863  1.00  0.00    -0.043 C  
HETATM   31  C   UNL     1      -8.460   7.538  69.286  1.00  0.00    -0.136 C  
HETATM   32  C   UNL     1      -9.446   6.651  70.059  1.00  0.00    -0.161 C  
HETATM   33  O   UNL     1      -5.445   6.799  70.326  1.00  0.00    -0.018 OA 
HETATM   34  N   UNL     1      -6.852   6.796  72.116  1.00  0.00    -0.062 N  
HETATM   35  C   UNL     1      -7.828   6.755  68.130  1.00  0.00    -0.113 C  
HETATM   36  H   UNL     1      -7.750   7.093  72.498  1.00  0.00     0.000 HD 
BRANCH  34  37
HETATM   37  C   UNL     1      -5.988   5.927  72.895  1.00  0.00    -0.037 C  
BRANCH  37  38
HETATM   38  C   UNL     1      -6.643   4.589  73.275  1.00  0.00    -0.052 C  
HETATM   39  C   UNL     1      -5.717   3.813  74.237  1.00  0.00    -0.004 C  
HETATM   40  C   UNL     1      -8.002   4.819  73.956  1.00  0.00    -0.101 C  
BRANCH  38  41
HETATM   41  C   UNL     1      -6.835   3.750  72.004  1.00  0.00    -0.026 C  
HETATM   42  N   UNL     1      -5.801   2.955  71.617  1.00  0.00    -0.012 N  
HETATM   43  O   UNL     1      -7.865   3.756  71.333  1.00  0.00    -0.058 OA 
HETATM   44  H2  UNL     1      -4.933   2.918  72.151  1.00  0.00     0.000 HD 
HETATM   45  H1  UNL     1      -5.929   2.399  70.773  1.00  0.00     0.000 HD 
ENDBRANCH  38  41
ENDBRANCH  37  38
ENDBRANCH  34  37
ENDBRANCH  25  28
ENDBRANCH  21  25
ENDBRANCH  17  21
ENDBRANCH  11  15
ENDBRANCH   6   7
ENDBRANCH   5   6
ENDBRANCH   4   5
ENDBRANCH   3   4
ENDBRANCH   2   3
TORSDOF 13
ENDMDL
MODEL      204
REMARK 921   NORMALIZED FREE ENERGY PREDICTED BY IDOCK:    8.42 KCAL/MOL
REMARK 922        TOTAL FREE ENERGY PREDICTED BY IDOCK:   12.52 KCAL/MOL
REMARK 923 INTER-LIGAND FREE ENERGY PREDICTED BY IDOCK:    3.85 KCAL/MOL
REMARK 924 INTRA-LIGAND FREE ENERGY PREDICTED BY IDOCK:    8.66 KCAL/MOL
REMARK 927      BINDING AFFINITY PREDICTED BY RF-SCORE:    0.00 PKD
ROOT
HETATM    1  C   UNL     1     -14.311  14.567  72.054  1.00  0.00    -0.558 C  
HETATM    2  O   UNL     1     -13.921  15.853  71.592  1.00  0.00    -0.383 OA 
ENDROOT
BRANCH   2   3
HETATM    3  C   UNL     1     -12.613  15.820  71.022  1.00  0.00    -0.416 C  
BRANCH   3   4
HETATM    4  C   UNL     1     -12.644  16.442  69.633  1.00  0.00     1.395 C  
BRANCH   4   5
HETATM    5  C   UNL     1     -12.313  15.462  68.508  1.00  0.00     0.289 C  
BRANCH   5   6
HETATM    6  O   UNL     1     -10.908  15.234  68.450  1.00  0.00    -0.242 OA 
BRANCH   6   7
HETATM    7  C   UNL     1     -10.350  14.637  67.347  1.00  0.00    -0.241 A  
HETATM    8  C   UNL     1     -10.036  15.511  66.284  1.00  0.00    -0.293 A  
HETATM    9  C   UNL     1      -9.603  14.984  65.064  1.00  0.00     0.319 A  
HETATM   10  C   UNL     1     -10.228  13.253  67.172  1.00  0.00    -0.246 A  
HETATM   11  C   UNL     1      -9.872  12.720  65.918  1.00  0.00    -0.243 A  
HETATM   12  C   UNL     1      -9.545  13.599  64.882  1.00  0.00     0.371 A  
BRANCH   8  13
HETATM   13  O   UNL     1     -10.199  16.852  66.536  1.00  0.00    -0.299 OA 
HETATM   14  C   UNL     1      -9.980  17.759  65.465  1.00  0.00     0.376 C  
ENDBRANCH   8  13
BRANCH  11  15
HETATM   15  C   UNL     1     -10.054  11.245  65.624  1.00  0.00    -0.295 C  
HETATM   16  C   UNL     1      -8.883  10.367  65.113  1.00  0.00    -0.207 C  
HETATM   17  C   UNL     1      -9.327   8.855  65.117  1.00  0.00    -0.012 C  
HETATM   18  C   UNL     1      -8.328  10.711  63.696  1.00  0.00    -0.043 C  
HETATM   19  C   UNL     1      -7.562  12.034  63.650  1.00  0.00     3.637 C  
HETATM   20  C   UNL     1      -9.383  10.663  62.588  1.00  0.00    -0.332 C  
BRANCH  17  21
HETATM   21  C   UNL     1      -9.668   8.263  66.500  1.00  0.00    -0.253 C  
HETATM   22  N   UNL     1     -10.598   9.190  67.156  1.00  0.00    -0.251 NA 
HETATM   23  H1  UNL     1     -10.823   8.799  68.070  1.00  0.00     0.000 HD 
HETATM   24  H2  UNL     1     -11.424   9.391  66.593  1.00  0.00     0.000 HD 
BRANCH  21  25
HETATM   25  C   UNL     1      -8.407   7.961  67.395  1.00  0.00    -0.123 C  
HETATM   26  H   UNL     1      -6.644   7.069  67.224  1.00  0.00     0.000 HD 
HETATM   27  O   UNL     1      -7.404   7.251  66.684  1.00  0.00    -0.077 OA 
BRANCH  25  28
HETATM   28  C   UNL     1      -7.860   9.298  67.936  1.00  0.00    -0.092 C  
HETATM   29  C   UNL     1      -8.619  10.101  69.018  1.00  0.00    -0.156 C  
HETATM   30  C   UNL     1      -7.782  11.386  69.185  1.00  0.00    -0.008 C  
HETATM   31  C   UNL     1      -8.822   9.374  70.379  1.00  0.00    -0.290 C  
HETATM   32  C   UNL     1      -9.671  10.174  71.378  1.00  0.00     2.118 C  
HETATM   33  O   UNL     1      -6.552  11.398  69.170  1.00  0.00    -0.077 OA 
HETATM   34  N   UNL     1      -8.512  12.540  69.367  1.00  0.00     0.339 N  
HETATM   35  C   UNL     1      -7.510   8.924  71.031  1.00  0.00    -0.124 C  
HETATM   36  H   UNL     1      -9.526  12.487  69.467  1.00  0.00     0.000 HD 
BRANCH  34  37
HETATM   37  C   UNL     1      -7.849  13.830  69.419  1.00  0.00     0.444 C  
BRANCH  37  38
HETATM   38  C   UNL     1      -6.917  14.090  68.224  1.00  0.00    -0.107 C  
HETATM   39  C   UNL     1      -5.783  13.042  68.212  1.00  0.00    -0.080 C  
HETATM   40  C   UNL     1      -7.693  14.012  66.898  1.00  0.00     0.347 C  
BRANCH  38  41
HETATM   41  C   UNL     1      -6.290  15.483  68.377  1.00  0.00    -0.109 C  
HETATM   42  N   UNL     1      -5.380  15.652  69.374  1.00  0.00    -0.105 N  
HETATM   43  O   UNL     1      -6.558  16.435  67.647  1.00  0.00    -0.123 OA 
HETATM   44  H2  UNL     1      -5.126  14.885  69.996  1.00  0.00     0.000 HD 
HETATM   45  H1  UNL     1      -4.964  16.577  69.476  1.00  0.00     0.000 HD 
ENDBRANCH  38  41
ENDBRANCH  37  38
ENDBRANCH  34  37
ENDBRANCH  25  28
ENDBRANCH  21  25
ENDBRANCH  17  21
ENDBRANCH  11  15
ENDBRANCH   6   7
ENDBRANCH   5   6
ENDBRANCH   4   5
ENDBRANCH   3   4
ENDBRANCH   2   3
TORSDOF 13
ENDMDL
MODEL      205
REMARK 921   NORMALIZED FREE ENERGY PREDICTED BY IDOCK:    8.69 KCAL/MOL
REMARK 922        TOTAL FREE ENERGY PREDICTED BY IDOCK:   12.99 KCAL/MOL
REMARK 923 INTER-LIGAND FREE ENERGY PREDICTED BY IDOCK:    4.88 KCAL/MOL
REMARK 924 INTRA-LIGAND FREE ENERGY PREDICTED BY IDOCK:    8.11 KCAL/MOL
REMARK 927      BINDING AFFINITY PREDICTED BY RF-SCORE:    0.00 PKD
ROOT
HETATM    1  C   UNL     1     -11.285  16.226  70.906  1.00  0.00    -0.232 C  
HETATM    2  O   UNL     1      -9.867  16.293  70.965  1.00  0.00     1.679 OA 
ENDROOT
BRANCH   2   3
HETATM    3  C   UNL     1      -9.374  17.416  70.236  1.00  0.00     2.470 C  
BRANCH   3   4
HETATM    4  C   UNL     1     -10.247  17.654  69.011  1.00  0.00    -0.314 C  
BRANCH   4   5
HETATM    5  C   UNL     1      -9.589  18.525  67.941  1.00  0.00    -0.300 C  
BRANCH   5   6
HETATM    6  O   UNL     1      -9.086  17.712  66.885  1.00  0.00    -0.240 OA 
BRANCH   6   7
HETATM    7  C   UNL     1      -9.414  16.380  66.823  1.00  0.00    -0.247 A  
HETATM    8  C   UNL     1     -10.792  16.106  66.680  1.00  0.00    -0.149 A  
HETATM    9  C   UNL     1     -11.242  14.785  66.756  1.00  0.00    -0.344 A  
HETATM   10  C   UNL     1      -8.512  15.331  67.041  1.00  0.00    -0.258 A  
HETATM   11  C   UNL     1      -8.977  14.012  67.199  1.00  0.00    -0.241 A  
HETATM   12  C   UNL     1     -10.341  13.754  67.035  1.00  0.00    -0.260 A  
BRANCH   8  13
HETATM   13  O   UNL     1     -11.608  17.195  66.486  1.00  0.00     0.978 OA 
HETATM   14  C   UNL     1     -12.197  17.793  67.632  1.00  0.00     3.328 C  
ENDBRANCH   8  13
BRANCH  11  15
HETATM   15  C   UNL     1      -8.069  12.933  67.754  1.00  0.00    -0.166 C  
HETATM   16  C   UNL     1      -7.344  13.100  69.114  1.00  0.00     0.131 C  
HETATM   17  C   UNL     1      -6.665  11.734  69.511  1.00  0.00    -0.067 C  
HETATM   18  C   UNL     1      -6.265  14.224  69.189  1.00  0.00    -0.099 C  
HETATM   19  C   UNL     1      -6.856  15.634  69.154  1.00  0.00    -0.159 C  
HETATM   20  C   UNL     1      -5.150  14.084  68.151  1.00  0.00    -0.112 C  
BRANCH  17  21
HETATM   21  C   UNL     1      -7.627  10.551  69.739  1.00  0.00    -0.092 C  
HETATM   22  N   UNL     1      -7.222   9.891  70.986  1.00  0.00    -0.312 NA 
HETATM   23  H1  UNL     1      -7.859   9.108  71.136  1.00  0.00     0.000 HD 
HETATM   24  H2  UNL     1      -7.181  10.529  71.780  1.00  0.00     0.000 HD 
BRANCH  21  25
HETATM   25  C   UNL     1      -7.694   9.540  68.532  1.00  0.00    -0.081 C  
HETATM   26  H   UNL     1      -6.481   8.797  67.149  1.00  0.00     0.000 HD 
HETATM   27  O   UNL     1      -6.441   9.406  67.877  1.00  0.00    -0.061 OA 
BRANCH  25  28
HETATM   28  C   UNL     1      -8.190   8.179  69.060  1.00  0.00    -0.127 C  
HETATM   29  C   UNL     1      -9.687   7.795  69.020  1.00  0.00    -0.157 C  
HETATM   30  C   UNL     1      -9.741   6.422  69.723  1.00  0.00    -0.154 C  
HETATM   31  C   UNL     1     -10.330   7.734  67.604  1.00  0.00    -0.305 C  
HETATM   32  C   UNL     1     -11.839   7.453  67.631  1.00  0.00     2.046 C  
HETATM   33  O   UNL     1      -8.885   5.552  69.570  1.00  0.00    -0.106 OA 
HETATM   34  N   UNL     1     -10.832   6.226  70.539  1.00  0.00    -0.266 N  
HETATM   35  C   UNL     1      -9.620   6.762  66.656  1.00  0.00    -0.211 C  
HETATM   36  H   UNL     1     -11.570   6.929  70.576  1.00  0.00     0.000 HD 
BRANCH  34  37
HETATM   37  C   UNL     1     -10.939   5.025  71.348  1.00  0.00     0.162 C  
BRANCH  37  38
HETATM   38  C   UNL     1      -9.662   4.702  72.141  1.00  0.00    -0.219 C  
HETATM   39  C   UNL     1      -8.451   5.393  71.478  1.00  0.00    -0.127 C  
HETATM   40  C   UNL     1      -9.786   5.183  73.596  1.00  0.00    -0.150 C  
BRANCH  38  41
HETATM   41  C   UNL     1      -9.430   3.184  72.114  1.00  0.00    -0.129 C  
HETATM   42  N   UNL     1      -9.038   2.592  73.274  1.00  0.00    -0.083 N  
HETATM   43  O   UNL     1      -9.588   2.489  71.113  1.00  0.00    -0.144 OA 
HETATM   44  H2  UNL     1      -8.904   3.134  74.127  1.00  0.00     0.000 HD 
HETATM   45  H1  UNL     1      -8.884   1.584  73.256  1.00  0.00     0.000 HD 
ENDBRANCH  38  41
ENDBRANCH  37  38
ENDBRANCH  34  37
ENDBRANCH  25  28
ENDBRANCH  21  25
ENDBRANCH  17  21
ENDBRANCH  11  15
ENDBRANCH   6   7
ENDBRANCH   5   6
ENDBRANCH   4   5
ENDBRANCH   3   4
ENDBRANCH   2   3
TORSDOF 13
ENDMDL
MODEL      206
REMARK 921   NORMALIZED FREE ENERGY PREDICTED BY IDOCK:    8.93 KCAL/MOL
REMARK 922        TOTAL FREE ENERGY PREDICTED BY IDOCK:   13.41 KCAL/MOL
REMARK 923 INTER-LIGAND FREE ENERGY PREDICTED BY IDOCK:    6.31 KCAL/MOL
REMARK 924 INTRA-LIGAND FREE ENERGY PREDICTED BY IDOCK:    7.10 KCAL/MOL
REMARK 927      BINDING AFFINITY PREDICTED BY RF-SCORE:    0.00 PKD
ROOT
HETATM    1  C   UNL     1     -10.736  16.417  72.823  1.00  0.00     3.231 C  
HETATM    2  O   UNL     1     -10.372  15.351  71.958  1.00  0.00     0.813 OA 
ENDROOT
BRANCH   2   3
HETATM    3  C   UNL     1      -9.966  15.841  70.681  1.00  0.00     0.736 C  
BRANCH   3   4
HETATM    4  C   UNL     1      -9.749  17.346  70.755  1.00  0.00     3.564 C  
BRANCH   4   5
HETATM    5  C   UNL     1     -10.854  18.165  70.089  1.00  0.00     1.925 C  
BRANCH   5   6
HETATM    6  O   UNL     1     -10.375  18.746  68.879  1.00  0.00    -0.289 OA 
BRANCH   6   7
HETATM    7  C   UNL     1      -9.808  17.954  67.910  1.00  0.00    -0.309 A  
HETATM    8  C   UNL     1      -9.966  18.419  66.586  1.00  0.00    -0.368 A  
HETATM    9  C   UNL     1      -9.557  17.613  65.521  1.00  0.00     0.598 A  
HETATM   10  C   UNL     1      -9.247  16.693  68.146  1.00  0.00    -0.220 A  
HETATM   11  C   UNL     1      -8.912  15.849  67.070  1.00  0.00    -0.239 A  
HETATM   12  C   UNL     1      -9.055  16.332  65.766  1.00  0.00    -0.110 A  
BRANCH   8  13
HETATM   13  O   UNL     1     -10.541  19.660  66.446  1.00  0.00    -0.461 OA 
HETATM   14  C   UNL     1     -10.293  20.371  65.241  1.00  0.00     0.410 C  
ENDBRANCH   8  13
BRANCH  11  15
HETATM   15  C   UNL     1      -8.617  14.381  67.300  1.00  0.00    -0.230 C  
HETATM   16  C   UNL     1      -9.668  13.283  66.995  1.00  0.00    -0.238 C  
HETATM   17  C   UNL     1      -8.991  11.866  67.125  1.00  0.00    -0.178 C  
HETATM   18  C   UNL     1     -10.956  13.293  67.875  1.00  0.00    -0.270 C  
HETATM   19  C   UNL     1     -11.879  14.477  67.583  1.00  0.00    -0.395 C  
HETATM   20  C   UNL     1     -10.682  13.183  69.376  1.00  0.00     0.126 C  
BRANCH  17  21
HETATM   21  C   UNL     1      -7.845  11.579  66.133  1.00  0.00     0.125 C  
HETATM   22  N   UNL     1      -8.297  10.505  65.241  1.00  0.00    -0.163 NA 
HETATM   23  H1  UNL     1      -7.539  10.315  64.585  1.00  0.00     0.000 HD 
HETATM   24  H2  UNL     1      -9.181  10.716  64.778  1.00  0.00     0.000 HD 
BRANCH  21  25
HETATM   25  C   UNL     1      -6.473  11.232  66.825  1.00  0.00    -0.136 C  
HETATM   26  H   UNL     1      -5.622  11.409  68.608  1.00  0.00     0.000 HD 
HETATM   27  O   UNL     1      -6.449  11.618  68.191  1.00  0.00    -0.052 OA 
BRANCH  25  28
HETATM   28  C   UNL     1      -6.217   9.719  66.673  1.00  0.00    -0.064 C  
HETATM   29  C   UNL     1      -6.958   8.878  65.608  1.00  0.00    -0.080 C  
HETATM   30  C   UNL     1      -6.481   7.435  65.872  1.00  0.00    -0.045 C  
HETATM   31  C   UNL     1      -6.714   9.297  64.129  1.00  0.00    -0.091 C  
HETATM   32  C   UNL     1      -7.555   8.498  63.122  1.00  0.00    -0.115 C  
HETATM   33  O   UNL     1      -5.323   7.151  66.172  1.00  0.00    -0.022 OA 
HETATM   34  N   UNL     1      -7.450   6.465  65.736  1.00  0.00    -0.080 N  
HETATM   35  C   UNL     1      -5.235   9.276  63.727  1.00  0.00    -0.061 C  
HETATM   36  H   UNL     1      -8.378   6.720  65.399  1.00  0.00     0.000 HD 
BRANCH  34  37
HETATM   37  C   UNL     1      -7.159   5.083  66.072  1.00  0.00    -0.072 C  
BRANCH  37  38
HETATM   38  C   UNL     1      -8.401   4.275  66.483  1.00  0.00    -0.101 C  
HETATM   39  C   UNL     1      -8.476   2.979  65.647  1.00  0.00    -0.105 C  
HETATM   40  C   UNL     1      -8.347   3.912  67.976  1.00  0.00    -0.100 C  
BRANCH  38  41
HETATM   41  C   UNL     1      -9.656   5.111  66.197  1.00  0.00    -0.164 C  
HETATM   42  N   UNL     1      -9.470   6.387  65.764  1.00  0.00    -0.380 N  
HETATM   43  O   UNL     1     -10.801   4.688  66.331  1.00  0.00    -0.081 OA 
HETATM   44  H2  UNL     1      -8.535   6.773  65.634  1.00  0.00     0.000 HD 
HETATM   45  H1  UNL     1     -10.304   6.943  65.575  1.00  0.00     0.000 HD 
ENDBRANCH  38  41
ENDBRANCH  37  38
ENDBRANCH  34  37
ENDBRANCH  25  28
ENDBRANCH  21  25
ENDBRANCH  17  21
ENDBRANCH  11  15
ENDBRANCH   6   7
ENDBRANCH   5   6
ENDBRANCH   4   5
ENDBRANCH   3   4
ENDBRANCH   2   3
TORSDOF 13
ENDMDL
MODEL      207
REMARK 921   NORMALIZED FREE ENERGY PREDICTED BY IDOCK:   13.21 KCAL/MOL
REMARK 922        TOTAL FREE ENERGY PREDICTED BY IDOCK:   20.95 KCAL/MOL
REMARK 923 INTER-LIGAND FREE ENERGY PREDICTED BY IDOCK:   16.66 KCAL/MOL
REMARK 924 INTRA-LIGAND FREE ENERGY PREDICTED BY IDOCK:    4.29 KCAL/MOL
REMARK 927      BINDING AFFINITY PREDICTED BY RF-SCORE:    0.00 PKD
ROOT
HETATM    1  C   UNL     1      -7.969  14.875  70.977  1.00  0.00     2.500 C  
HETATM    2  O   UNL     1      -6.925  14.575  71.893  1.00  0.00     1.208 OA 
ENDROOT
BRANCH   2   3
HETATM    3  C   UNL     1      -6.496  15.746  72.585  1.00  0.00     3.582 C  
BRANCH   3   4
HETATM    4  C   UNL     1      -6.151  16.837  71.580  1.00  0.00     2.066 C  
BRANCH   4   5
HETATM    5  C   UNL     1      -7.253  17.881  71.396  1.00  0.00     5.694 C  
BRANCH   5   6
HETATM    6  O   UNL     1      -7.632  17.959  70.025  1.00  0.00     0.940 OA 
BRANCH   6   7
HETATM    7  C   UNL     1      -7.689  16.821  69.258  1.00  0.00    -0.076 A  
HETATM    8  C   UNL     1      -6.523  16.537  68.516  1.00  0.00    -0.137 A  
HETATM    9  C   UNL     1      -6.532  15.488  67.593  1.00  0.00    -0.194 A  
HETATM   10  C   UNL     1      -8.845  16.053  69.064  1.00  0.00    -0.244 A  
HETATM   11  C   UNL     1      -8.878  15.051  68.076  1.00  0.00    -0.165 A  
HETATM   12  C   UNL     1      -7.709  14.769  67.364  1.00  0.00    -0.230 A  
BRANCH   8  13
HETATM   13  O   UNL     1      -5.440  17.349  68.757  1.00  0.00    -0.149 OA 
HETATM   14  C   UNL     1      -5.373  18.586  68.061  1.00  0.00    -0.170 C  
ENDBRANCH   8  13
BRANCH  11  15
HETATM   15  C   UNL     1     -10.193  14.445  67.632  1.00  0.00    -0.229 C  
HETATM   16  C   UNL     1     -10.489  14.145  66.140  1.00  0.00    -0.297 C  
HETATM   17  C   UNL     1     -11.829  13.323  66.032  1.00  0.00    -0.440 C  
HETATM   18  C   UNL     1     -10.594  15.380  65.194  1.00  0.00    -0.458 C  
HETATM   19  C   UNL     1      -9.251  16.072  64.950  1.00  0.00     2.153 C  
HETATM   20  C   UNL     1     -11.653  16.399  65.619  1.00  0.00     0.796 C  
BRANCH  17  21
HETATM   21  C   UNL     1     -11.818  11.934  66.702  1.00  0.00    -0.067 C  
HETATM   22  N   UNL     1     -12.672  12.015  67.892  1.00  0.00     1.144 NA 
HETATM   23  H1  UNL     1     -12.665  11.097  68.336  1.00  0.00     0.000 HD 
HETATM   24  H2  UNL     1     -13.613  12.350  67.686  1.00  0.00     0.000 HD 
BRANCH  21  25
HETATM   25  C   UNL     1     -10.375  11.403  67.047  1.00  0.00    -0.223 C  
HETATM   26  H   UNL     1      -9.314  10.924  68.654  1.00  0.00     0.000 HD 
HETATM   27  O   UNL     1     -10.184  11.244  68.446  1.00  0.00    -0.181 OA 
BRANCH  25  28
HETATM   28  C   UNL     1     -10.153  10.070  66.304  1.00  0.00    -0.310 C  
HETATM   29  C   UNL     1      -8.732   9.568  65.955  1.00  0.00    -0.168 C  
HETATM   30  C   UNL     1      -8.980   8.277  65.147  1.00  0.00     0.109 C  
HETATM   31  C   UNL     1      -7.792   9.309  67.168  1.00  0.00    -0.099 C  
HETATM   32  C   UNL     1      -6.365   8.915  66.760  1.00  0.00    -0.059 C  
HETATM   33  O   UNL     1      -9.861   7.465  65.425  1.00  0.00     0.932 OA 
HETATM   34  N   UNL     1      -8.130   8.083  64.081  1.00  0.00    -0.254 N  
HETATM   35  C   UNL     1      -8.360   8.301  68.173  1.00  0.00    -0.129 C  
HETATM   36  H   UNL     1      -7.353   8.726  63.929  1.00  0.00     0.000 HD 
BRANCH  34  37
HETATM   37  C   UNL     1      -8.332   6.969  63.173  1.00  0.00     0.174 C  
BRANCH  37  38
HETATM   38  C   UNL     1      -7.819   5.627  63.721  1.00  0.00    -0.108 C  
HETATM   39  C   UNL     1      -8.962   4.897  64.459  1.00  0.00    -0.096 C  
HETATM   40  C   UNL     1      -7.300   4.733  62.582  1.00  0.00    -0.043 C  
BRANCH  38  41
HETATM   41  C   UNL     1      -6.688   5.899  64.723  1.00  0.00    -0.046 C  
HETATM   42  N   UNL     1      -5.431   6.037  64.224  1.00  0.00    -0.017 N  
HETATM   43  O   UNL     1      -6.863   6.004  65.935  1.00  0.00    -0.054 OA 
HETATM   44  H2  UNL     1      -5.246   5.963  63.224  1.00  0.00     0.000 HD 
HETATM   45  H1  UNL     1      -4.680   6.217  64.890  1.00  0.00     0.000 HD 
ENDBRANCH  38  41
ENDBRANCH  37  38
ENDBRANCH  34  37
ENDBRANCH  25  28
ENDBRANCH  21  25
ENDBRANCH  17  21
ENDBRANCH  11  15
ENDBRANCH   6   7
ENDBRANCH   5   6
ENDBRANCH   4   5
ENDBRANCH   3   4
ENDBRANCH   2   3
TORSDOF 13
ENDMDL
MODEL      208
REMARK 921   NORMALIZED FREE ENERGY PREDICTED BY IDOCK:   13.30 KCAL/MOL
REMARK 922        TOTAL FREE ENERGY PREDICTED BY IDOCK:   21.10 KCAL/MOL
REMARK 923 INTER-LIGAND FREE ENERGY PREDICTED BY IDOCK:   13.17 KCAL/MOL
REMARK 924 INTRA-LIGAND FREE ENERGY PREDICTED BY IDOCK:    7.93 KCAL/MOL
REMARK 927      BINDING AFFINITY PREDICTED BY RF-SCORE:    0.00 PKD
ROOT
HETATM    1  C   UNL     1     -11.202  17.200  71.178  1.00  0.00     1.111 C  
HETATM    2  O   UNL     1      -9.785  17.301  71.199  1.00  0.00     3.839 OA 
ENDROOT
BRANCH   2   3
HETATM    3  C   UNL     1      -9.341  18.453  70.484  1.00  0.00     3.193 C  
BRANCH   3   4
HETATM    4  C   UNL     1     -10.277  18.721  69.313  1.00  0.00     0.043 C  
BRANCH   4   5
HETATM    5  C   UNL     1      -9.690  19.647  68.249  1.00  0.00    -0.402 C  
BRANCH   5   6
HETATM    6  O   UNL     1      -9.238  18.889  67.131  1.00  0.00    -0.282 OA 
BRANCH   6   7
HETATM    7  C   UNL     1      -9.542  17.552  67.034  1.00  0.00    -0.268 A  
HETATM    8  C   UNL     1     -10.921  17.251  66.997  1.00  0.00     0.091 A  
HETATM    9  C   UNL     1     -11.335  15.917  67.050  1.00  0.00     0.085 A  
HETATM   10  C   UNL     1      -8.603  16.518  67.125  1.00  0.00    -0.208 A  
HETATM   11  C   UNL     1      -9.024  15.182  67.260  1.00  0.00    -0.213 A  
HETATM   12  C   UNL     1     -10.391  14.897  67.201  1.00  0.00    -0.260 A  
BRANCH   8  13
HETATM   13  O   UNL     1     -11.774  18.326  66.925  1.00  0.00     1.293 OA 
HETATM   14  C   UNL     1     -12.272  18.859  68.144  1.00  0.00     4.433 C  
ENDBRANCH   8  13
BRANCH  11  15
HETATM   15  C   UNL     1      -8.049  14.102  67.684  1.00  0.00    -0.188 C  
HETATM   16  C   UNL     1      -7.208  14.229  68.980  1.00  0.00    -0.118 C  
HETATM   17  C   UNL     1      -6.470  12.864  69.255  1.00  0.00    -0.104 C  
HETATM   18  C   UNL     1      -6.149  15.373  69.009  1.00  0.00    -0.104 C  
HETATM   19  C   UNL     1      -6.769  16.770  69.089  1.00  0.00    -0.223 C  
HETATM   20  C   UNL     1      -5.129  15.303  67.870  1.00  0.00    -0.110 C  
BRANCH  17  21
HETATM   21  C   UNL     1      -7.384  11.649  69.515  1.00  0.00     0.191 C  
HETATM   22  N   UNL     1      -6.528  10.545  69.965  1.00  0.00    -0.119 NA 
HETATM   23  H1  UNL     1      -7.132   9.742  70.136  1.00  0.00     0.000 HD 
HETATM   24  H2  UNL     1      -5.952  10.790  70.770  1.00  0.00     0.000 HD 
BRANCH  21  25
HETATM   25  C   UNL     1      -8.271  11.241  68.278  1.00  0.00    -0.143 C  
HETATM   26  H   UNL     1      -8.138  11.215  66.299  1.00  0.00     0.000 HD 
HETATM   27  O   UNL     1      -7.603  11.461  67.045  1.00  0.00    -0.136 OA 
BRANCH  25  28
HETATM   28  C   UNL     1      -8.674   9.760  68.433  1.00  0.00    -0.120 C  
HETATM   29  C   UNL     1     -10.010   9.353  69.096  1.00  0.00    -0.184 C  
HETATM   30  C   UNL     1      -9.958   7.812  69.127  1.00  0.00    -0.182 C  
HETATM   31  C   UNL     1     -11.298   9.864  68.388  1.00  0.00    -0.049 C  
HETATM   32  C   UNL     1     -12.589   9.521  69.146  1.00  0.00     2.412 C  
HETATM   33  O   UNL     1      -9.504   7.132  68.208  1.00  0.00    -0.134 OA 
HETATM   34  N   UNL     1     -10.471   7.232  70.267  1.00  0.00    -0.215 N  
HETATM   35  C   UNL     1     -11.403   9.423  66.924  1.00  0.00     1.141 C  
HETATM   36  H   UNL     1     -10.922   7.814  70.972  1.00  0.00     0.000 HD 
BRANCH  34  37
HETATM   37  C   UNL     1     -10.373   5.798  70.470  1.00  0.00    -0.247 C  
BRANCH  37  38
HETATM   38  C   UNL     1      -8.967   5.234  70.206  1.00  0.00    -0.153 C  
HETATM   39  C   UNL     1      -8.835   3.842  70.863  1.00  0.00    -0.133 C  
HETATM   40  C   UNL     1      -8.703   5.108  68.697  1.00  0.00    -0.098 C  
BRANCH  38  41
HETATM   41  C   UNL     1      -7.928   6.170  70.838  1.00  0.00    -0.116 C  
HETATM   42  N   UNL     1      -6.809   6.441  70.114  1.00  0.00    -0.056 N  
HETATM   43  O   UNL     1      -8.061   6.687  71.945  1.00  0.00    -0.103 OA 
HETATM   44  H2  UNL     1      -6.665   6.037  69.188  1.00  0.00     0.000 HD 
HETATM   45  H1  UNL     1      -6.118   7.063  70.534  1.00  0.00     0.000 HD 
ENDBRANCH  38  41
ENDBRANCH  37  38
ENDBRANCH  34  37
ENDBRANCH  25  28
ENDBRANCH  21  25
ENDBRANCH  17  21
ENDBRANCH  11  15
ENDBRANCH   6   7
ENDBRANCH   5   6
ENDBRANCH   4   5
ENDBRANCH   3   4
ENDBRANCH   2   3
TORSDOF 13
ENDMDL
MODEL      209
REMARK 921   NORMALIZED FREE ENERGY PREDICTED BY IDOCK:   15.73 KCAL/MOL
REMARK 922        TOTAL FREE ENERGY PREDICTED BY IDOCK:   25.38 KCAL/MOL
REMARK 923 INTER-LIGAND FREE ENERGY PREDICTED BY IDOCK:   20.76 KCAL/MOL
REMARK 924 INTRA-LIGAND FREE ENERGY PREDICTED BY IDOCK:    4.62 KCAL/MOL
REMARK 927      BINDING AFFINITY PREDICTED BY RF-SCORE:    0.00 PKD
ROOT
HETATM    1  C   UNL     1     -13.506   8.216  70.682  1.00  0.00     0.749 C  
HETATM    2  O   UNL     1     -13.310   6.877  70.249  1.00  0.00     0.746 OA 
ENDROOT
BRANCH   2   3
HETATM    3  C   UNL     1     -12.270   6.244  70.994  1.00  0.00     0.133 C  
BRANCH   3   4
HETATM    4  C   UNL     1     -10.915   6.698  70.468  1.00  0.00    -0.337 C  
BRANCH   4   5
HETATM    5  C   UNL     1     -10.760   6.564  68.954  1.00  0.00    -0.273 C  
BRANCH   5   6
HETATM    6  O   UNL     1      -9.764   7.463  68.478  1.00  0.00    -0.148 OA 
BRANCH   6   7
HETATM    7  C   UNL     1     -10.118   8.711  68.027  1.00  0.00    -0.196 A  
HETATM    8  C   UNL     1     -11.279   8.753  67.225  1.00  0.00     0.786 A  
HETATM    9  C   UNL     1     -11.638   9.948  66.596  1.00  0.00     1.908 A  
HETATM   10  C   UNL     1      -9.336   9.862  68.185  1.00  0.00    -0.138 A  
HETATM   11  C   UNL     1      -9.653  11.042  67.485  1.00  0.00    -0.178 A  
HETATM   12  C   UNL     1     -10.817  11.073  66.711  1.00  0.00    -0.307 A  
BRANCH   8  13
HETATM   13  O   UNL     1     -11.978   7.575  67.111  1.00  0.00     2.043 OA 
HETATM   14  C   UNL     1     -11.393   6.530  66.348  1.00  0.00     0.951 C  
ENDBRANCH   8  13
BRANCH  11  15
HETATM   15  C   UNL     1      -8.652  12.175  67.385  1.00  0.00    -0.175 C  
HETATM   16  C   UNL     1      -7.853  12.442  66.084  1.00  0.00     0.934 C  
HETATM   17  C   UNL     1      -7.074  13.805  66.224  1.00  0.00     3.361 C  
HETATM   18  C   UNL     1      -6.836  11.339  65.658  1.00  0.00     0.413 C  
HETATM   19  C   UNL     1      -7.507  10.054  65.167  1.00  0.00    -0.139 C  
HETATM   20  C   UNL     1      -5.783  11.021  66.722  1.00  0.00    -0.089 C  
BRANCH  17  21
HETATM   21  C   UNL     1      -7.952  15.062  66.393  1.00  0.00     0.635 C  
HETATM   22  N   UNL     1      -7.314  16.146  65.636  1.00  0.00     1.319 NA 
HETATM   23  H1  UNL     1      -7.894  16.977  65.748  1.00  0.00     0.000 HD 
HETATM   24  H2  UNL     1      -7.146  15.906  64.659  1.00  0.00     0.000 HD 
BRANCH  21  25
HETATM   25  C   UNL     1      -8.210  15.464  67.894  1.00  0.00    -0.144 C  
HETATM   26  H   UNL     1      -9.492  16.561  68.937  1.00  0.00     0.000 HD 
HETATM   27  O   UNL     1      -9.337  16.318  68.032  1.00  0.00    -0.210 OA 
BRANCH  25  28
HETATM   28  C   UNL     1      -8.388  14.176  68.722  1.00  0.00    -0.069 C  
HETATM   29  C   UNL     1      -7.186  13.489  69.413  1.00  0.00     0.182 C  
HETATM   30  C   UNL     1      -7.791  12.213  70.033  1.00  0.00     2.243 C  
HETATM   31  C   UNL     1      -6.444  14.344  70.482  1.00  0.00    -0.052 C  
HETATM   32  C   UNL     1      -5.200  13.654  71.058  1.00  0.00    -0.151 C  
HETATM   33  O   UNL     1      -8.899  12.180  70.566  1.00  0.00     4.514 OA 
HETATM   34  N   UNL     1      -6.992  11.093  69.960  1.00  0.00    -0.337 N  
HETATM   35  C   UNL     1      -7.358  14.831  71.612  1.00  0.00     2.721 C  
HETATM   36  H   UNL     1      -6.043  11.170  69.594  1.00  0.00     0.000 HD 
BRANCH  34  37
HETATM   37  C   UNL     1      -7.492   9.803  70.400  1.00  0.00    -0.149 C  
BRANCH  37  38
HETATM   38  C   UNL     1      -6.609   9.131  71.465  1.00  0.00    -0.034 C  
HETATM   39  C   UNL     1      -5.791   7.993  70.817  1.00  0.00    -0.033 C  
HETATM   40  C   UNL     1      -5.646  10.150  72.097  1.00  0.00     0.269 C  
BRANCH  38  41
HETATM   41  C   UNL     1      -7.511   8.527  72.550  1.00  0.00    -0.027 C  
HETATM   42  N   UNL     1      -7.525   7.171  72.666  1.00  0.00    -0.083 N  
HETATM   43  O   UNL     1      -8.203   9.197  73.312  1.00  0.00     0.121 OA 
HETATM   44  H2  UNL     1      -6.959   6.581  72.056  1.00  0.00     0.000 HD 
HETATM   45  H1  UNL     1      -8.124   6.770  73.386  1.00  0.00     0.000 HD 
ENDBRANCH  38  41
ENDBRANCH  37  38
ENDBRANCH  34  37
ENDBRANCH  25  28
ENDBRANCH  21  25
ENDBRANCH  17  21
ENDBRANCH  11  15
ENDBRANCH   6   7
ENDBRANCH   5   6
ENDBRANCH   4   5
ENDBRANCH   3   4
ENDBRANCH   2   3
TORSDOF 13
ENDMDL
MODEL      210
REMARK 921   NORMALIZED FREE ENERGY PREDICTED BY IDOCK:   16.20 KCAL/MOL
REMARK 922        TOTAL FREE ENERGY PREDICTED BY IDOCK:   26.20 KCAL/MOL
REMARK 923 INTER-LIGAND FREE ENERGY PREDICTED BY IDOCK:   24.69 KCAL/MOL
REMARK 924 INTRA-LIGAND FREE ENERGY PREDICTED BY IDOCK:    1.51 KCAL/MOL
REMARK 927      BINDING AFFINITY PREDICTED BY RF-SCORE:    0.00 PKD
ROOT
HETATM    1  C   UNL     1      -8.884  20.446  66.766  1.00  0.00    -0.207 C  
HETATM    2  O   UNL     1      -7.943  19.934  65.833  1.00  0.00    -0.354 OA 
ENDROOT
BRANCH   2   3
HETATM    3  C   UNL     1      -6.782  19.435  66.494  1.00  0.00    -0.190 C  
BRANCH   3   4
HETATM    4  C   UNL     1      -6.881  17.921  66.628  1.00  0.00    -0.238 C  
BRANCH   4   5
HETATM    5  C   UNL     1      -5.527  17.210  66.639  1.00  0.00    -0.167 C  
BRANCH   5   6
HETATM    6  O   UNL     1      -5.584  16.055  67.470  1.00  0.00    -0.140 OA 
BRANCH   6   7
HETATM    7  C   UNL     1      -6.768  15.377  67.631  1.00  0.00    -0.173 A  
HETATM    8  C   UNL     1      -6.654  13.970  67.672  1.00  0.00    -0.159 A  
HETATM    9  C   UNL     1      -7.810  13.186  67.683  1.00  0.00    -0.169 A  
HETATM   10  C   UNL     1      -8.034  15.974  67.598  1.00  0.00    -0.160 A  
HETATM   11  C   UNL     1      -9.195  15.182  67.525  1.00  0.00    -0.188 A  
HETATM   12  C   UNL     1      -9.066  13.792  67.588  1.00  0.00    -0.196 A  
BRANCH   8  13
HETATM   13  O   UNL     1      -5.375  13.468  67.686  1.00  0.00    -0.265 OA 
HETATM   14  C   UNL     1      -5.195  12.126  68.118  1.00  0.00    -0.058 C  
ENDBRANCH   8  13
BRANCH  11  15
HETATM   15  C   UNL     1     -10.531  15.798  67.162  1.00  0.00    -0.309 C  
HETATM   16  C   UNL     1     -11.697  14.942  66.604  1.00  0.00    -0.225 C  
HETATM   17  C   UNL     1     -13.003  15.823  66.539  1.00  0.00     3.342 C  
HETATM   18  C   UNL     1     -11.472  14.295  65.203  1.00  0.00    -0.351 C  
HETATM   19  C   UNL     1     -10.441  13.164  65.217  1.00  0.00    -0.319 C  
HETATM   20  C   UNL     1     -11.147  15.303  64.099  1.00  0.00     0.285 C  
BRANCH  17  21
HETATM   21  C   UNL     1     -13.528  16.340  67.893  1.00  0.00     5.781 C  
HETATM   22  N   UNL     1     -13.573  17.806  67.813  1.00  0.00     6.632 NA 
HETATM   23  H1  UNL     1     -13.920  18.148  68.709  1.00  0.00     0.000 HD 
HETATM   24  H2  UNL     1     -14.115  18.146  67.019  1.00  0.00     0.000 HD 
BRANCH  21  25
HETATM   25  C   UNL     1     -12.694  15.843  69.134  1.00  0.00     0.844 C  
HETATM   26  H   UNL     1     -12.777  15.943  71.114  1.00  0.00     0.000 HD 
HETATM   27  O   UNL     1     -13.279  16.242  70.365  1.00  0.00     0.463 OA 
BRANCH  25  28
HETATM   28  C   UNL     1     -12.565  14.309  69.055  1.00  0.00     0.258 C  
HETATM   29  C   UNL     1     -11.440  13.554  69.801  1.00  0.00    -0.246 C  
HETATM   30  C   UNL     1     -11.628  12.084  69.372  1.00  0.00    -0.330 C  
HETATM   31  C   UNL     1     -11.444  13.699  71.351  1.00  0.00     1.392 C  
HETATM   32  C   UNL     1     -10.247  13.018  72.030  1.00  0.00    11.979 C  
HETATM   33  O   UNL     1     -12.731  11.555  69.238  1.00  0.00    -0.048 OA 
HETATM   34  N   UNL     1     -10.461  11.385  69.154  1.00  0.00    -0.368 N  
HETATM   35  C   UNL     1     -12.757  13.249  72.001  1.00  0.00    -0.211 C  
HETATM   36  H   UNL     1      -9.563  11.822  69.360  1.00  0.00     0.000 HD 
BRANCH  34  37
HETATM   37  C   UNL     1     -10.502  10.031  68.634  1.00  0.00    -0.204 C  
BRANCH  37  38
HETATM   38  C   UNL     1      -9.717   9.020  69.487  1.00  0.00    -0.171 C  
HETATM   39  C   UNL     1      -8.553   9.740  70.202  1.00  0.00    -0.214 C  
HETATM   40  C   UNL     1     -10.629   8.366  70.538  1.00  0.00    -0.236 C  
BRANCH  38  41
HETATM   41  C   UNL     1      -9.129   7.942  68.566  1.00  0.00    -0.132 C  
HETATM   42  N   UNL     1      -8.594   6.840  69.157  1.00  0.00    -0.131 N  
HETATM   43  O   UNL     1      -9.128   8.020  67.340  1.00  0.00    -0.132 OA 
HETATM   44  H2  UNL     1      -8.583   6.734  70.172  1.00  0.00     0.000 HD 
HETATM   45  H1  UNL     1      -8.204   6.123  68.546  1.00  0.00     0.000 HD 
ENDBRANCH  38  41
ENDBRANCH  37  38
ENDBRANCH  34  37
ENDBRANCH  25  28
ENDBRANCH  21  25
ENDBRANCH  17  21
ENDBRANCH  11  15
ENDBRANCH   6   7
ENDBRANCH   5   6
ENDBRANCH   4   5
ENDBRANCH   3   4
ENDBRANCH   2   3
TORSDOF 13
ENDMDL
MODEL      211
REMARK 921   NORMALIZED FREE ENERGY PREDICTED BY IDOCK:   16.51 KCAL/MOL
REMARK 922        TOTAL FREE ENERGY PREDICTED BY IDOCK:   26.74 KCAL/MOL
REMARK 923 INTER-LIGAND FREE ENERGY PREDICTED BY IDOCK:   11.52 KCAL/MOL
REMARK 924 INTRA-LIGAND FREE ENERGY PREDICTED BY IDOCK:   15.23 KCAL/MOL
REMARK 927      BINDING AFFINITY PREDICTED BY RF-SCORE:    0.00 PKD
ROOT
HETATM    1  C   UNL     1      -7.744   9.311  65.157  1.00  0.00    -0.108 C  
HETATM    2  O   UNL     1      -7.771  10.503  65.929  1.00  0.00    -0.141 OA 
ENDROOT
BRANCH   2   3
HETATM    3  C   UNL     1      -8.657  11.465  65.359  1.00  0.00     0.155 C  
BRANCH   3   4
HETATM    4  C   UNL     1     -10.059  11.265  65.920  1.00  0.00    -0.291 C  
BRANCH   4   5
HETATM    5  C   UNL     1     -10.649   9.884  65.637  1.00  0.00     0.276 C  
BRANCH   5   6
HETATM    6  O   UNL     1     -10.810   9.158  66.852  1.00  0.00    -0.147 OA 
BRANCH   6   7
HETATM    7  C   UNL     1     -10.215   9.604  68.007  1.00  0.00    -0.194 A  
HETATM    8  C   UNL     1      -9.375   8.670  68.649  1.00  0.00    -0.142 A  
HETATM    9  C   UNL     1      -8.842   8.973  69.905  1.00  0.00    -0.164 A  
HETATM   10  C   UNL     1     -10.511  10.822  68.630  1.00  0.00    -0.213 A  
HETATM   11  C   UNL     1     -10.041  11.091  69.930  1.00  0.00     0.457 A  
HETATM   12  C   UNL     1      -9.193  10.165  70.544  1.00  0.00     0.498 A  
BRANCH   8  13
HETATM   13  O   UNL     1      -9.151   7.494  67.974  1.00  0.00    -0.132 OA 
HETATM   14  C   UNL     1      -7.863   7.289  67.411  1.00  0.00    -0.112 C  
ENDBRANCH   8  13
BRANCH  11  15
HETATM   15  C   UNL     1     -10.611  12.239  70.737  1.00  0.00     3.881 C  
HETATM   16  C   UNL     1     -11.032  13.574  70.069  1.00  0.00     0.394 C  
HETATM   17  C   UNL     1     -11.785  14.469  71.126  1.00  0.00    -0.292 C  
HETATM   18  C   UNL     1      -9.886  14.422  69.437  1.00  0.00     0.137 C  
HETATM   19  C   UNL     1      -9.295  13.794  68.173  1.00  0.00    -0.211 C  
HETATM   20  C   UNL     1      -8.774  14.794  70.421  1.00  0.00     1.383 C  
BRANCH  17  21
HETATM   21  C   UNL     1     -13.104  13.888  71.674  1.00  0.00    -0.367 C  
HETATM   22  N   UNL     1     -12.949  13.745  73.127  1.00  0.00    -0.329 NA 
HETATM   23  H1  UNL     1     -13.822  13.361  73.489  1.00  0.00     0.000 HD 
HETATM   24  H2  UNL     1     -12.674  14.613  73.586  1.00  0.00     0.000 HD 
BRANCH  21  25
HETATM   25  C   UNL     1     -13.540  12.536  70.992  1.00  0.00     0.925 C  
HETATM   26  H   UNL     1     -13.930  11.849  69.173  1.00  0.00     0.000 HD 
HETATM   27  O   UNL     1     -13.667  12.664  69.584  1.00  0.00     2.991 OA 
BRANCH  25  28
HETATM   28  C   UNL     1     -12.510  11.449  71.359  1.00  0.00    -0.370 C  
HETATM   29  C   UNL     1     -12.941  10.122  72.028  1.00  0.00    -0.508 C  
HETATM   30  C   UNL     1     -11.610   9.391  72.299  1.00  0.00     0.218 C  
HETATM   31  C   UNL     1     -13.919   9.237  71.202  1.00  0.00    -0.051 C  
HETATM   32  C   UNL     1     -14.395   7.987  71.956  1.00  0.00    -0.511 C  
HETATM   33  O   UNL     1     -10.664   9.396  71.512  1.00  0.00    -0.346 OA 
HETATM   34  N   UNL     1     -11.550   8.710  73.494  1.00  0.00     1.626 N  
HETATM   35  C   UNL     1     -13.374   8.855  69.821  1.00  0.00     3.045 C  
HETATM   36  H   UNL     1     -12.380   8.648  74.084  1.00  0.00     0.000 HD 
BRANCH  34  37
HETATM   37  C   UNL     1     -10.314   8.080  73.921  1.00  0.00     1.178 C  
BRANCH  37  38
HETATM   38  C   UNL     1      -9.621   7.271  72.811  1.00  0.00    -0.198 C  
HETATM   39  C   UNL     1     -10.679   6.740  71.819  1.00  0.00    -0.250 C  
HETATM   40  C   UNL     1      -8.607   8.142  72.051  1.00  0.00    -0.216 C  
BRANCH  38  41
HETATM   41  C   UNL     1      -8.903   6.071  73.445  1.00  0.00    -0.126 C  
HETATM   42  N   UNL     1      -8.149   6.309  74.552  1.00  0.00    -0.118 N  
HETATM   43  O   UNL     1      -8.981   4.924  73.011  1.00  0.00    -0.113 OA 
HETATM   44  H2  UNL     1      -8.065   7.245  74.946  1.00  0.00     0.000 HD 
HETATM   45  H1  UNL     1      -7.672   5.512  74.973  1.00  0.00     0.000 HD 
ENDBRANCH  38  41
ENDBRANCH  37  38
ENDBRANCH  34  37
ENDBRANCH  25  28
ENDBRANCH  21  25
ENDBRANCH  17  21
ENDBRANCH  11  15
ENDBRANCH   6   7
ENDBRANCH   5   6
ENDBRANCH   4   5
ENDBRANCH   3   4
ENDBRANCH   2   3
TORSDOF 13
ENDMDL
MODEL      212
REMARK 921   NORMALIZED FREE ENERGY PREDICTED BY IDOCK:   16.72 KCAL/MOL
REMARK 922        TOTAL FREE ENERGY PREDICTED BY IDOCK:   27.12 KCAL/MOL
REMARK 923 INTER-LIGAND FREE ENERGY PREDICTED BY IDOCK:   10.67 KCAL/MOL
REMARK 924 INTRA-LIGAND FREE ENERGY PREDICTED BY IDOCK:   16.45 KCAL/MOL
REMARK 927      BINDING AFFINITY PREDICTED BY RF-SCORE:    0.00 PKD
ROOT
HETATM    1  C   UNL     1      -6.368   3.128  65.588  1.00  0.00    -0.031 C  
HETATM    2  O   UNL     1      -6.982   2.319  66.581  1.00  0.00    -0.043 OA 
ENDROOT
BRANCH   2   3
HETATM    3  C   UNL     1      -8.063   3.008  67.208  1.00  0.00    -0.078 C  
BRANCH   3   4
HETATM    4  C   UNL     1      -7.885   4.509  67.032  1.00  0.00    -0.098 C  
BRANCH   4   5
HETATM    5  C   UNL     1      -9.196   5.273  66.851  1.00  0.00    -0.121 C  
BRANCH   5   6
HETATM    6  O   UNL     1     -10.221   4.688  67.650  1.00  0.00    -0.097 OA 
BRANCH   6   7
HETATM    7  C   UNL     1     -10.431   5.127  68.934  1.00  0.00    -0.061 A  
HETATM    8  C   UNL     1     -10.308   4.139  69.935  1.00  0.00     0.628 A  
HETATM    9  C   UNL     1     -10.648   4.450  71.254  1.00  0.00     0.210 A  
HETATM   10  C   UNL     1     -10.892   6.406  69.268  1.00  0.00    -0.387 A  
HETATM   11  C   UNL     1     -11.312   6.693  70.581  1.00  0.00    -0.401 A  
HETATM   12  C   UNL     1     -11.165   5.711  71.564  1.00  0.00    -0.182 A  
BRANCH   8  13
HETATM   13  O   UNL     1      -9.864   2.907  69.517  1.00  0.00     0.039 OA 
HETATM   14  C   UNL     1      -8.905   2.870  68.470  1.00  0.00    -0.118 C  
ENDBRANCH   8  13
BRANCH  11  15
HETATM   15  C   UNL     1     -12.109   7.946  70.882  1.00  0.00    -0.181 C  
HETATM   16  C   UNL     1     -12.113   8.588  72.294  1.00  0.00    -0.455 C  
HETATM   17  C   UNL     1     -12.843   9.983  72.227  1.00  0.00    -0.306 C  
HETATM   18  C   UNL     1     -12.764   7.747  73.434  1.00  0.00     2.151 C  
HETATM   19  C   UNL     1     -11.942   6.517  73.825  1.00  0.00     2.455 C  
HETATM   20  C   UNL     1     -14.219   7.356  73.164  1.00  0.00     1.611 C  
BRANCH  17  21
HETATM   21  C   UNL     1     -12.176  11.045  71.331  1.00  0.00    -0.186 C  
HETATM   22  N   UNL     1     -13.250  11.799  70.672  1.00  0.00     0.327 NA 
HETATM   23  H1  UNL     1     -12.808  12.501  70.078  1.00  0.00     0.000 HD 
HETATM   24  H2  UNL     1     -13.920  12.197  71.330  1.00  0.00     0.000 HD 
BRANCH  21  25
HETATM   25  C   UNL     1     -11.150  10.452  70.292  1.00  0.00    -0.307 C  
HETATM   26  H   UNL     1      -9.783  11.110  69.014  1.00  0.00     0.000 HD 
HETATM   27  O   UNL     1     -10.401  11.468  69.640  1.00  0.00     0.109 OA 
BRANCH  25  28
HETATM   28  C   UNL     1     -10.220   9.468  71.030  1.00  0.00    -0.332 C  
HETATM   29  C   UNL     1      -8.792   9.168  70.518  1.00  0.00    -0.263 C  
HETATM   30  C   UNL     1      -8.270   8.081  71.480  1.00  0.00    -0.115 C  
HETATM   31  C   UNL     1      -7.827  10.388  70.459  1.00  0.00     0.815 C  
HETATM   32  C   UNL     1      -6.460  10.055  69.845  1.00  0.00    -0.077 C  
HETATM   33  O   UNL     1      -8.493   8.086  72.689  1.00  0.00    -0.141 OA 
HETATM   34  N   UNL     1      -7.514   7.092  70.889  1.00  0.00    -0.079 N  
HETATM   35  C   UNL     1      -7.651  11.089  71.811  1.00  0.00     6.827 C  
HETATM   36  H   UNL     1      -7.270   7.163  69.902  1.00  0.00     0.000 HD 
BRANCH  34  37
HETATM   37  C   UNL     1      -7.064   5.950  71.664  1.00  0.00    -0.081 C  
BRANCH  37  38
HETATM   38  C   UNL     1      -6.451   6.331  73.022  1.00  0.00    -0.068 C  
HETATM   39  C   UNL     1      -7.496   6.119  74.139  1.00  0.00    -0.086 C  
HETATM   40  C   UNL     1      -5.210   5.475  73.321  1.00  0.00    -0.022 C  
BRANCH  38  41
HETATM   41  C   UNL     1      -6.063   7.816  72.994  1.00  0.00    -0.061 C  
HETATM   42  N   UNL     1      -6.633   8.628  73.924  1.00  0.00    -0.095 N  
HETATM   43  O   UNL     1      -5.268   8.297  72.190  1.00  0.00    -0.035 OA 
HETATM   44  H2  UNL     1      -7.293   8.265  74.613  1.00  0.00     0.000 HD 
HETATM   45  H1  UNL     1      -6.376   9.614  73.906  1.00  0.00     0.000 HD 
ENDBRANCH  38  41
ENDBRANCH  37  38
ENDBRANCH  34  37
ENDBRANCH  25  28
ENDBRANCH  21  25
ENDBRANCH  17  21
ENDBRANCH  11  15
ENDBRANCH   6   7
ENDBRANCH   5   6
ENDBRANCH   4   5
ENDBRANCH   3   4
ENDBRANCH   2   3
TORSDOF 13
ENDMDL
MODEL      213
REMARK 921   NORMALIZED FREE ENERGY PREDICTED BY IDOCK:   17.69 KCAL/MOL
REMARK 922        TOTAL FREE ENERGY PREDICTED BY IDOCK:   28.82 KCAL/MOL
REMARK 923 INTER-LIGAND FREE ENERGY PREDICTED BY IDOCK:   13.96 KCAL/MOL
REMARK 924 INTRA-LIGAND FREE ENERGY PREDICTED BY IDOCK:   14.86 KCAL/MOL
REMARK 927      BINDING AFFINITY PREDICTED BY RF-SCORE:    0.00 PKD
ROOT
HETATM    1  C   UNL     1     -11.203  17.199  71.179  1.00  0.00     1.111 C  
HETATM    2  O   UNL     1      -9.785  17.294  71.195  1.00  0.00     3.839 OA 
ENDROOT
BRANCH   2   3
HETATM    3  C   UNL     1      -9.339  18.446  70.481  1.00  0.00     3.193 C  
BRANCH   3   4
HETATM    4  C   UNL     1     -10.284  18.726  69.320  1.00  0.00     0.043 C  
BRANCH   4   5
HETATM    5  C   UNL     1      -9.697  19.649  68.252  1.00  0.00    -0.402 C  
BRANCH   5   6
HETATM    6  O   UNL     1      -9.273  18.889  67.124  1.00  0.00    -0.282 OA 
BRANCH   6   7
HETATM    7  C   UNL     1      -9.606  17.560  67.021  1.00  0.00    -0.268 A  
HETATM    8  C   UNL     1     -10.991  17.288  66.995  1.00  0.00     0.091 A  
HETATM    9  C   UNL     1     -11.433  15.963  67.042  1.00  0.00     0.209 A  
HETATM   10  C   UNL     1      -8.688  16.506  67.096  1.00  0.00    -0.216 A  
HETATM   11  C   UNL     1      -9.136  15.178  67.227  1.00  0.00    -0.210 A  
HETATM   12  C   UNL     1     -10.509  14.923  67.179  1.00  0.00    -0.271 A  
BRANCH   8  13
HETATM   13  O   UNL     1     -11.821  18.382  66.938  1.00  0.00     1.661 OA 
HETATM   14  C   UNL     1     -12.297  18.916  68.165  1.00  0.00     5.070 C  
ENDBRANCH   8  13
BRANCH  11  15
HETATM   15  C   UNL     1      -8.180  14.075  67.634  1.00  0.00    -0.185 C  
HETATM   16  C   UNL     1      -7.327  14.173  68.925  1.00  0.00    -0.122 C  
HETATM   17  C   UNL     1      -6.615  12.791  69.183  1.00  0.00    -0.101 C  
HETATM   18  C   UNL     1      -6.245  15.296  68.955  1.00  0.00    -0.094 C  
HETATM   19  C   UNL     1      -6.835  16.704  69.051  1.00  0.00    -0.207 C  
HETATM   20  C   UNL     1      -5.235  15.214  67.808  1.00  0.00    -0.062 C  
BRANCH  17  21
HETATM   21  C   UNL     1      -7.552  11.594  69.440  1.00  0.00     0.221 C  
HETATM   22  N   UNL     1      -6.951  10.421  68.794  1.00  0.00    -0.065 NA 
HETATM   23  H1  UNL     1      -7.570   9.629  68.963  1.00  0.00     0.000 HD 
HETATM   24  H2  UNL     1      -5.991  10.248  69.095  1.00  0.00     0.000 HD 
BRANCH  21  25
HETATM   25  C   UNL     1      -9.036  11.830  68.966  1.00  0.00     0.257 C  
HETATM   26  H   UNL     1     -10.015  12.947  67.651  1.00  0.00     0.000 HD 
HETATM   27  O   UNL     1      -9.120  12.804  67.936  1.00  0.00    -0.187 OA 
BRANCH  25  28
HETATM   28  C   UNL     1      -9.623  10.482  68.503  1.00  0.00    -0.164 C  
HETATM   29  C   UNL     1     -10.654   9.713  69.362  1.00  0.00    -0.243 C  
HETATM   30  C   UNL     1     -10.888   8.403  68.582  1.00  0.00     0.073 C  
HETATM   31  C   UNL     1     -11.992  10.458  69.638  1.00  0.00    -0.207 C  
HETATM   32  C   UNL     1     -12.933   9.694  70.580  1.00  0.00    -0.036 C  
HETATM   33  O   UNL     1     -10.960   8.351  67.355  1.00  0.00    -0.114 OA 
HETATM   34  N   UNL     1     -11.025   7.275  69.361  1.00  0.00    -0.402 N  
HETATM   35  C   UNL     1     -12.732  10.870  68.361  1.00  0.00     2.112 C  
HETATM   36  H   UNL     1     -11.051   7.361  70.376  1.00  0.00     0.000 HD 
BRANCH  34  37
HETATM   37  C   UNL     1     -11.131   5.965  68.745  1.00  0.00    -0.146 C  
BRANCH  37  38
HETATM   38  C   UNL     1     -10.070   5.705  67.662  1.00  0.00    -0.208 C  
HETATM   39  C   UNL     1      -9.359   7.029  67.306  1.00  0.00    -0.153 C  
HETATM   40  C   UNL     1      -9.027   4.687  68.152  1.00  0.00    -0.134 C  
BRANCH  38  41
HETATM   41  C   UNL     1     -10.765   5.171  66.402  1.00  0.00    -0.210 C  
HETATM   42  N   UNL     1     -10.165   4.141  65.748  1.00  0.00    -0.425 N  
HETATM   43  O   UNL     1     -11.825   5.617  65.968  1.00  0.00     1.193 OA 
HETATM   44  H2  UNL     1      -9.289   3.739  66.081  1.00  0.00     0.000 HD 
HETATM   45  H1  UNL     1     -10.626   3.786  64.910  1.00  0.00     0.000 HD 
ENDBRANCH  38  41
ENDBRANCH  37  38
ENDBRANCH  34  37
ENDBRANCH  25  28
ENDBRANCH  21  25
ENDBRANCH  17  21
ENDBRANCH  11  15
ENDBRANCH   6   7
ENDBRANCH   5   6
ENDBRANCH   4   5
ENDBRANCH   3   4
ENDBRANCH   2   3
TORSDOF 13
ENDMDL
MODEL      214
REMARK 921   NORMALIZED FREE ENERGY PREDICTED BY IDOCK:   20.50 KCAL/MOL
REMARK 922        TOTAL FREE ENERGY PREDICTED BY IDOCK:   33.77 KCAL/MOL
REMARK 923 INTER-LIGAND FREE ENERGY PREDICTED BY IDOCK:   22.32 KCAL/MOL
REMARK 924 INTRA-LIGAND FREE ENERGY PREDICTED BY IDOCK:   11.45 KCAL/MOL
REMARK 927      BINDING AFFINITY PREDICTED BY RF-SCORE:    0.00 PKD
ROOT
HETATM    1  C   UNL     1      -9.605  15.014  72.903  1.00  0.00     6.910 C  
HETATM    2  O   UNL     1     -10.264  16.230  72.578  1.00  0.00     3.746 OA 
ENDROOT
BRANCH   2   3
HETATM    3  C   UNL     1      -9.913  16.671  71.268  1.00  0.00     3.547 C  
BRANCH   3   4
HETATM    4  C   UNL     1     -11.177  16.957  70.468  1.00  0.00     0.431 C  
BRANCH   4   5
HETATM    5  C   UNL     1     -11.568  15.836  69.505  1.00  0.00    -0.363 C  
BRANCH   5   6
HETATM    6  O   UNL     1     -11.317  14.566  70.100  1.00  0.00    -0.252 OA 
BRANCH   6   7
HETATM    7  C   UNL     1     -10.351  13.739  69.580  1.00  0.00     0.521 A  
HETATM    8  C   UNL     1      -9.032  14.018  69.999  1.00  0.00     1.910 A  
HETATM    9  C   UNL     1      -7.964  13.332  69.413  1.00  0.00     0.735 A  
HETATM   10  C   UNL     1     -10.580  12.782  68.584  1.00  0.00    -0.256 A  
HETATM   11  C   UNL     1      -9.499  12.152  67.938  1.00  0.00    -0.195 A  
HETATM   12  C   UNL     1      -8.201  12.423  68.378  1.00  0.00    -0.144 A  
BRANCH   8  13
HETATM   13  O   UNL     1      -8.896  14.983  70.968  1.00  0.00     1.783 OA 
HETATM   14  C   UNL     1      -7.674  15.028  71.691  1.00  0.00     3.741 C  
ENDBRANCH   8  13
BRANCH  11  15
HETATM   15  C   UNL     1      -9.712  11.374  66.656  1.00  0.00    -0.224 C  
HETATM   16  C   UNL     1      -9.175  11.886  65.294  1.00  0.00     0.082 C  
HETATM   17  C   UNL     1      -9.359  10.760  64.207  1.00  0.00    -0.281 C  
HETATM   18  C   UNL     1      -9.812  13.202  64.750  1.00  0.00    -0.030 C  
HETATM   19  C   UNL     1      -9.415  14.443  65.551  1.00  0.00     0.062 C  
HETATM   20  C   UNL     1     -11.332  13.133  64.585  1.00  0.00    -0.363 C  
BRANCH  17  21
HETATM   21  C   UNL     1      -8.574   9.456  64.456  1.00  0.00    -0.198 C  
HETATM   22  N   UNL     1      -7.266   9.602  63.807  1.00  0.00    -0.109 NA 
HETATM   23  H1  UNL     1      -6.747   8.739  63.971  1.00  0.00     0.000 HD 
HETATM   24  H2  UNL     1      -6.761  10.435  64.109  1.00  0.00     0.000 HD 
BRANCH  21  25
HETATM   25  C   UNL     1      -9.327   8.157  63.979  1.00  0.00     1.858 C  
HETATM   26  H   UNL     1      -9.474   7.041  62.345  1.00  0.00     0.000 HD 
HETATM   27  O   UNL     1      -9.020   7.824  62.633  1.00  0.00     0.368 OA 
BRANCH  25  28
HETATM   28  C   UNL     1      -8.959   7.001  64.932  1.00  0.00     0.557 C  
HETATM   29  C   UNL     1      -8.675   7.251  66.431  1.00  0.00    -0.152 C  
HETATM   30  C   UNL     1      -8.262   5.865  66.969  1.00  0.00    -0.105 C  
HETATM   31  C   UNL     1      -9.855   7.850  67.250  1.00  0.00    -0.256 C  
HETATM   32  C   UNL     1      -9.485   8.175  68.704  1.00  0.00    -0.147 C  
HETATM   33  O   UNL     1      -8.801   4.816  66.619  1.00  0.00    -0.111 OA 
HETATM   34  N   UNL     1      -7.240   5.878  67.892  1.00  0.00    -0.071 N  
HETATM   35  C   UNL     1     -11.127   6.997  67.199  1.00  0.00    -0.298 C  
HETATM   36  H   UNL     1      -6.874   6.767  68.231  1.00  0.00     0.000 HD 
BRANCH  34  37
HETATM   37  C   UNL     1      -6.680   4.633  68.386  1.00  0.00    -0.050 C  
BRANCH  37  38
HETATM   38  C   UNL     1      -6.494   3.566  67.294  1.00  0.00    -0.037 C  
HETATM   39  C   UNL     1      -6.227   4.254  65.938  1.00  0.00    -0.032 C  
HETATM   40  C   UNL     1      -5.315   2.638  67.632  1.00  0.00    -0.017 C  
BRANCH  38  41
HETATM   41  C   UNL     1      -7.784   2.744  67.177  1.00  0.00    -0.070 C  
HETATM   42  N   UNL     1      -8.751   2.963  68.108  1.00  0.00    -0.094 N  
HETATM   43  O   UNL     1      -7.987   1.916  66.292  1.00  0.00    -0.074 OA 
HETATM   44  H2  UNL     1      -8.624   3.647  68.854  1.00  0.00     0.000 HD 
HETATM   45  H1  UNL     1      -9.609   2.417  68.031  1.00  0.00     0.000 HD 
ENDBRANCH  38  41
ENDBRANCH  37  38
ENDBRANCH  34  37
ENDBRANCH  25  28
ENDBRANCH  21  25
ENDBRANCH  17  21
ENDBRANCH  11  15
ENDBRANCH   6   7
ENDBRANCH   5   6
ENDBRANCH   4   5
ENDBRANCH   3   4
ENDBRANCH   2   3
TORSDOF 13
ENDMDL
MODEL      215
REMARK 921   NORMALIZED FREE ENERGY PREDICTED BY IDOCK:   21.00 KCAL/MOL
REMARK 922        TOTAL FREE ENERGY PREDICTED BY IDOCK:   34.64 KCAL/MOL
REMARK 923 INTER-LIGAND FREE ENERGY PREDICTED BY IDOCK:   18.07 KCAL/MOL
REMARK 924 INTRA-LIGAND FREE ENERGY PREDICTED BY IDOCK:   16.57 KCAL/MOL
REMARK 927      BINDING AFFINITY PREDICTED BY RF-SCORE:    0.00 PKD
ROOT
HETATM    1  C   UNL     1      -9.304   7.905  64.808  1.00  0.00     1.289 C  
HETATM    2  O   UNL     1      -9.923   8.575  65.897  1.00  0.00    -0.113 OA 
ENDROOT
BRANCH   2   3
HETATM    3  C   UNL     1      -8.951   9.059  66.823  1.00  0.00    -0.135 C  
BRANCH   3   4
HETATM    4  C   UNL     1      -9.618   9.348  68.161  1.00  0.00    -0.158 C  
BRANCH   4   5
HETATM    5  C   UNL     1      -8.634   9.584  69.306  1.00  0.00    -0.149 C  
BRANCH   5   6
HETATM    6  O   UNL     1      -7.956  10.823  69.126  1.00  0.00    -0.143 OA 
BRANCH   6   7
HETATM    7  C   UNL     1      -8.651  12.006  69.184  1.00  0.00     0.507 A  
HETATM    8  C   UNL     1     -10.055  11.875  69.253  1.00  0.00     0.303 A  
HETATM    9  C   UNL     1     -10.858  13.016  69.166  1.00  0.00    -0.133 A  
HETATM   10  C   UNL     1      -8.074  13.272  69.028  1.00  0.00     0.300 A  
HETATM   11  C   UNL     1      -8.887  14.410  68.857  1.00  0.00    -0.067 A  
HETATM   12  C   UNL     1     -10.274  14.267  68.949  1.00  0.00    -0.203 A  
BRANCH   8  13
HETATM   13  O   UNL     1     -10.537  10.595  69.390  1.00  0.00    -0.219 OA 
HETATM   14  C   UNL     1     -11.899  10.437  69.760  1.00  0.00    -0.207 C  
ENDBRANCH   8  13
BRANCH  11  15
HETATM   15  C   UNL     1      -8.296  15.716  68.366  1.00  0.00    -0.162 C  
HETATM   16  C   UNL     1      -7.334  15.767  67.151  1.00  0.00    -0.257 C  
HETATM   17  C   UNL     1      -7.077  17.271  66.755  1.00  0.00    -0.248 C  
HETATM   18  C   UNL     1      -5.953  15.065  67.331  1.00  0.00     0.158 C  
HETATM   19  C   UNL     1      -6.053  13.539  67.387  1.00  0.00     0.094 C  
HETATM   20  C   UNL     1      -5.139  15.592  68.514  1.00  0.00    -0.094 C  
BRANCH  17  21
HETATM   21  C   UNL     1      -8.316  18.061  66.290  1.00  0.00    -0.197 C  
HETATM   22  N   UNL     1      -8.072  18.481  64.905  1.00  0.00     1.990 NA 
HETATM   23  H1  UNL     1      -8.892  19.004  64.596  1.00  0.00     0.000 HD 
HETATM   24  H2  UNL     1      -7.841  17.703  64.287  1.00  0.00     0.000 HD 
BRANCH  21  25
HETATM   25  C   UNL     1      -8.683  19.280  67.219  1.00  0.00    -0.292 C  
HETATM   26  H   UNL     1      -9.726  20.964  67.115  1.00  0.00     0.000 HD 
HETATM   27  O   UNL     1      -9.505  20.229  66.555  1.00  0.00    -0.371 OA 
BRANCH  25  28
HETATM   28  C   UNL     1      -9.375  18.739  68.486  1.00  0.00    -0.390 C  
HETATM   29  C   UNL     1      -8.612  17.872  69.515  1.00  0.00     0.712 C  
HETATM   30  C   UNL     1      -9.690  17.479  70.546  1.00  0.00     2.755 C  
HETATM   31  C   UNL     1      -7.392  18.556  70.199  1.00  0.00     1.185 C  
HETATM   32  C   UNL     1      -6.611  17.618  71.130  1.00  0.00     2.782 C  
HETATM   33  O   UNL     1     -10.568  18.249  70.932  1.00  0.00     1.564 OA 
HETATM   34  N   UNL     1      -9.599  16.191  71.024  1.00  0.00     2.318 N  
HETATM   35  C   UNL     1      -7.754  19.855  70.928  1.00  0.00     1.453 C  
HETATM   36  H   UNL     1      -8.809  15.605  70.755  1.00  0.00     0.000 HD 
BRANCH  34  37
HETATM   37  C   UNL     1     -10.621  15.661  71.908  1.00  0.00     1.055 C  
BRANCH  37  38
HETATM   38  C   UNL     1     -12.052  16.048  71.497  1.00  0.00    -0.513 C  
HETATM   39  C   UNL     1     -13.038  14.954  71.959  1.00  0.00    -0.426 C  
HETATM   40  C   UNL     1     -12.456  17.392  72.126  1.00  0.00     4.177 C  
BRANCH  38  41
HETATM   41  C   UNL     1     -12.119  16.150  69.967  1.00  0.00     0.031 C  
HETATM   42  N   UNL     1     -13.151  15.519  69.344  1.00  0.00     0.006 N  
HETATM   43  O   UNL     1     -11.304  16.771  69.289  1.00  0.00    -0.132 OA 
HETATM   44  H2  UNL     1     -13.851  14.999  69.872  1.00  0.00     0.000 HD 
HETATM   45  H1  UNL     1     -13.195  15.586  68.328  1.00  0.00     0.000 HD 
ENDBRANCH  38  41
ENDBRANCH  37  38
ENDBRANCH  34  37
ENDBRANCH  25  28
ENDBRANCH  21  25
ENDBRANCH  17  21
ENDBRANCH  11  15
ENDBRANCH   6   7
ENDBRANCH   5   6
ENDBRANCH   4   5
ENDBRANCH   3   4
ENDBRANCH   2   3
TORSDOF 13
ENDMDL
MODEL      216
REMARK 921   NORMALIZED FREE ENERGY PREDICTED BY IDOCK:   21.18 KCAL/MOL
REMARK 922        TOTAL FREE ENERGY PREDICTED BY IDOCK:   34.97 KCAL/MOL
REMARK 923 INTER-LIGAND FREE ENERGY PREDICTED BY IDOCK:    0.88 KCAL/MOL
REMARK 924 INTRA-LIGAND FREE ENERGY PREDICTED BY IDOCK:   34.09 KCAL/MOL
REMARK 927      BINDING AFFINITY PREDICTED BY RF-SCORE:    0.00 PKD
ROOT
HETATM    1  C   UNL     1     -10.730   4.052  71.791  1.00  0.00     0.419 C  
HETATM    2  O   UNL     1     -11.466   5.018  72.529  1.00  0.00    -0.135 OA 
ENDROOT
BRANCH   2   3
HETATM    3  C   UNL     1     -10.698   6.202  72.735  1.00  0.00    -0.239 C  
BRANCH   3   4
HETATM    4  C   UNL     1      -9.293   6.004  72.182  1.00  0.00    -0.155 C  
BRANCH   4   5
HETATM    5  C   UNL     1      -8.615   7.298  71.733  1.00  0.00    -0.116 C  
BRANCH   5   6
HETATM    6  O   UNL     1      -9.490   8.046  70.894  1.00  0.00    -0.158 OA 
BRANCH   6   7
HETATM    7  C   UNL     1      -8.990   8.741  69.819  1.00  0.00    -0.146 A  
HETATM    8  C   UNL     1      -9.564  10.013  69.606  1.00  0.00    -0.226 A  
HETATM    9  C   UNL     1      -9.231  10.734  68.456  1.00  0.00    -0.174 A  
HETATM   10  C   UNL     1      -8.097   8.210  68.880  1.00  0.00    -0.116 A  
HETATM   11  C   UNL     1      -7.827   8.901  67.683  1.00  0.00    -0.101 A  
HETATM   12  C   UNL     1      -8.387  10.168  67.497  1.00  0.00    -0.118 A  
BRANCH   8  13
HETATM   13  O   UNL     1     -10.442  10.449  70.569  1.00  0.00    -0.122 OA 
HETATM   14  C   UNL     1     -11.577   9.641  70.845  1.00  0.00    -0.344 C  
ENDBRANCH   8  13
BRANCH  11  15
HETATM   15  C   UNL     1      -7.136   8.206  66.528  1.00  0.00    -0.076 C  
HETATM   16  C   UNL     1      -7.858   7.132  65.675  1.00  0.00    -0.112 C  
HETATM   17  C   UNL     1      -6.961   6.769  64.430  1.00  0.00    -0.054 C  
HETATM   18  C   UNL     1      -8.240   5.809  66.406  1.00  0.00    -0.107 C  
HETATM   19  C   UNL     1      -9.369   5.984  67.424  1.00  0.00    -0.111 C  
HETATM   20  C   UNL     1      -7.051   5.087  67.044  1.00  0.00    -0.072 C  
BRANCH  17  21
HETATM   21  C   UNL     1      -6.692   7.920  63.441  1.00  0.00    -0.075 C  
HETATM   22  N   UNL     1      -5.732   8.829  64.078  1.00  0.00    -0.069 NA 
HETATM   23  H1  UNL     1      -5.554   9.591  63.423  1.00  0.00     0.000 HD 
HETATM   24  H2  UNL     1      -4.880   8.359  64.383  1.00  0.00     0.000 HD 
BRANCH  21  25
HETATM   25  C   UNL     1      -7.993   8.674  62.969  1.00  0.00    -0.161 C  
HETATM   26  H   UNL     1      -9.819   8.230  62.333  1.00  0.00     0.000 HD 
HETATM   27  O   UNL     1      -9.035   7.776  62.619  1.00  0.00     0.368 OA 
BRANCH  25  28
HETATM   28  C   UNL     1      -8.441   9.629  64.094  1.00  0.00    -0.186 C  
HETATM   29  C   UNL     1      -9.793   9.441  64.821  1.00  0.00     0.339 C  
HETATM   30  C   UNL     1      -9.874  10.648  65.779  1.00  0.00    -0.241 C  
HETATM   31  C   UNL     1      -9.967   8.096  65.585  1.00  0.00     0.782 C  
HETATM   32  C   UNL     1     -11.363   7.918  66.197  1.00  0.00     3.620 C  
HETATM   33  O   UNL     1      -8.905  11.083  66.399  1.00  0.00    -0.165 OA 
HETATM   34  N   UNL     1     -11.125  11.210  65.906  1.00  0.00    -0.112 N  
HETATM   35  C   UNL     1      -8.883   7.852  66.641  1.00  0.00    -0.166 C  
HETATM   36  H   UNL     1     -11.925  10.773  65.450  1.00  0.00     0.000 HD 
BRANCH  34  37
HETATM   37  C   UNL     1     -11.310  12.422  66.683  1.00  0.00    -0.339 C  
BRANCH  37  38
HETATM   38  C   UNL     1     -10.849  13.696  65.957  1.00  0.00    -0.275 C  
HETATM   39  C   UNL     1      -9.761  14.405  66.792  1.00  0.00    -0.278 C  
HETATM   40  C   UNL     1     -10.281  13.359  64.568  1.00  0.00    -0.321 C  
BRANCH  38  41
HETATM   41  C   UNL     1     -12.046  14.646  65.811  1.00  0.00    -0.197 C  
HETATM   42  N   UNL     1     -13.181  14.331  66.491  1.00  0.00     0.500 N  
HETATM   43  O   UNL     1     -12.026  15.667  65.126  1.00  0.00     0.121 OA 
HETATM   44  H2  UNL     1     -13.234  13.496  67.075  1.00  0.00     0.000 HD 
HETATM   45  H1  UNL     1     -13.976  14.961  66.394  1.00  0.00     0.000 HD 
ENDBRANCH  38  41
ENDBRANCH  37  38
ENDBRANCH  34  37
ENDBRANCH  25  28
ENDBRANCH  21  25
ENDBRANCH  17  21
ENDBRANCH  11  15
ENDBRANCH   6   7
ENDBRANCH   5   6
ENDBRANCH   4   5
ENDBRANCH   3   4
ENDBRANCH   2   3
TORSDOF 13
ENDMDL
MODEL      217
REMARK 921   NORMALIZED FREE ENERGY PREDICTED BY IDOCK:   21.21 KCAL/MOL
REMARK 922        TOTAL FREE ENERGY PREDICTED BY IDOCK:   35.02 KCAL/MOL
REMARK 923 INTER-LIGAND FREE ENERGY PREDICTED BY IDOCK:   22.48 KCAL/MOL
REMARK 924 INTRA-LIGAND FREE ENERGY PREDICTED BY IDOCK:   12.54 KCAL/MOL
REMARK 927      BINDING AFFINITY PREDICTED BY RF-SCORE:    0.00 PKD
ROOT
HETATM    1  C   UNL     1     -11.214  17.204  71.208  1.00  0.00     1.136 C  
HETATM    2  O   UNL     1      -9.799  17.317  71.270  1.00  0.00     3.823 OA 
ENDROOT
BRANCH   2   3
HETATM    3  C   UNL     1      -9.338  18.426  70.499  1.00  0.00     3.193 C  
BRANCH   3   4
HETATM    4  C   UNL     1     -10.223  18.600  69.272  1.00  0.00     0.047 C  
BRANCH   4   5
HETATM    5  C   UNL     1      -9.562  19.382  68.138  1.00  0.00    -0.358 C  
BRANCH   5   6
HETATM    6  O   UNL     1      -9.048  18.487  67.156  1.00  0.00    -0.269 OA 
BRANCH   6   7
HETATM    7  C   UNL     1      -9.363  17.151  67.208  1.00  0.00    -0.242 A  
HETATM    8  C   UNL     1     -10.731  16.848  67.031  1.00  0.00    -0.153 A  
HETATM    9  C   UNL     1     -11.174  15.536  67.214  1.00  0.00    -0.226 A  
HETATM   10  C   UNL     1      -8.464  16.138  67.565  1.00  0.00    -0.177 A  
HETATM   11  C   UNL     1      -8.926  14.835  67.828  1.00  0.00    -0.182 A  
HETATM   12  C   UNL     1     -10.279  14.547  67.629  1.00  0.00    -0.225 A  
BRANCH   8  13
HETATM   13  O   UNL     1     -11.545  17.904  66.698  1.00  0.00     1.152 OA 
HETATM   14  C   UNL     1     -12.188  18.603  67.754  1.00  0.00     3.845 C  
ENDBRANCH   8  13
BRANCH  11  15
HETATM   15  C   UNL     1      -8.036  13.824  68.524  1.00  0.00    -0.131 C  
HETATM   16  C   UNL     1      -7.387  14.122  69.900  1.00  0.00     0.342 C  
HETATM   17  C   UNL     1      -6.714  12.808  70.452  1.00  0.00     0.907 C  
HETATM   18  C   UNL     1      -6.328  15.267  69.933  1.00  0.00    -0.164 C  
HETATM   19  C   UNL     1      -6.934  16.659  69.742  1.00  0.00     0.166 C  
HETATM   20  C   UNL     1      -5.156  15.055  68.971  1.00  0.00    -0.091 C  
BRANCH  17  21
HETATM   21  C   UNL     1      -7.672  11.633  70.732  1.00  0.00     4.600 C  
HETATM   22  N   UNL     1      -6.975  10.399  70.350  1.00  0.00    -0.372 NA 
HETATM   23  H1  UNL     1      -7.609   9.622  70.535  1.00  0.00     0.000 HD 
HETATM   24  H2  UNL     1      -6.070  10.294  70.809  1.00  0.00     0.000 HD 
BRANCH  21  25
HETATM   25  C   UNL     1      -9.071  11.764  70.018  1.00  0.00     2.789 C  
HETATM   26  H   UNL     1     -10.364  13.189  69.536  1.00  0.00     0.000 HD 
HETATM   27  O   UNL     1      -9.521  13.110  69.966  1.00  0.00     2.301 OA 
BRANCH  25  28
HETATM   28  C   UNL     1      -8.955  11.165  68.602  1.00  0.00    -0.162 C  
HETATM   29  C   UNL     1      -9.581   9.794  68.252  1.00  0.00    -0.155 C  
HETATM   30  C   UNL     1      -9.149   9.547  66.792  1.00  0.00    -0.146 C  
HETATM   31  C   UNL     1     -11.126   9.698  68.413  1.00  0.00    -0.090 C  
HETATM   32  C   UNL     1     -11.679   8.289  68.155  1.00  0.00     2.091 C  
HETATM   33  O   UNL     1      -9.111  10.433  65.940  1.00  0.00    -0.155 OA 
HETATM   34  N   UNL     1      -8.812   8.245  66.495  1.00  0.00    -0.142 N  
HETATM   35  C   UNL     1     -11.889  10.734  67.580  1.00  0.00     0.491 C  
HETATM   36  H   UNL     1      -8.939   7.516  67.197  1.00  0.00     0.000 HD 
BRANCH  34  37
HETATM   37  C   UNL     1      -8.276   7.904  65.190  1.00  0.00    -0.141 C  
BRANCH  37  38
HETATM   38  C   UNL     1      -7.153   8.843  64.721  1.00  0.00    -0.088 C  
HETATM   39  C   UNL     1      -7.101  10.087  65.635  1.00  0.00    -0.119 C  
HETATM   40  C   UNL     1      -5.791   8.130  64.760  1.00  0.00    -0.045 C  
BRANCH  38  41
HETATM   41  C   UNL     1      -7.456   9.305  63.289  1.00  0.00    -0.103 C  
HETATM   42  N   UNL     1      -7.337  10.634  63.023  1.00  0.00    -0.341 N  
HETATM   43  O   UNL     1      -7.787   8.543  62.383  1.00  0.00    -0.125 OA 
HETATM   44  H2  UNL     1      -7.058  11.297  63.746  1.00  0.00     0.000 HD 
HETATM   45  H1  UNL     1      -7.539  10.941  62.072  1.00  0.00     0.000 HD 
ENDBRANCH  38  41
ENDBRANCH  37  38
ENDBRANCH  34  37
ENDBRANCH  25  28
ENDBRANCH  21  25
ENDBRANCH  17  21
ENDBRANCH  11  15
ENDBRANCH   6   7
ENDBRANCH   5   6
ENDBRANCH   4   5
ENDBRANCH   3   4
ENDBRANCH   2   3
TORSDOF 13
ENDMDL
MODEL      218
REMARK 921   NORMALIZED FREE ENERGY PREDICTED BY IDOCK:   24.01 KCAL/MOL
REMARK 922        TOTAL FREE ENERGY PREDICTED BY IDOCK:   39.95 KCAL/MOL
REMARK 923 INTER-LIGAND FREE ENERGY PREDICTED BY IDOCK:   11.20 KCAL/MOL
REMARK 924 INTRA-LIGAND FREE ENERGY PREDICTED BY IDOCK:   28.75 KCAL/MOL
REMARK 927      BINDING AFFINITY PREDICTED BY RF-SCORE:    0.00 PKD
ROOT
HETATM    1  C   UNL     1     -14.078  10.838  64.208  1.00  0.00     7.197 C  
HETATM    2  O   UNL     1     -13.757  12.218  64.099  1.00  0.00    -0.144 OA 
ENDROOT
BRANCH   2   3
HETATM    3  C   UNL     1     -12.555  12.523  64.806  1.00  0.00    -0.413 C  
BRANCH   3   4
HETATM    4  C   UNL     1     -12.551  11.798  66.145  1.00  0.00     2.188 C  
BRANCH   4   5
HETATM    5  C   UNL     1     -11.217  11.877  66.888  1.00  0.00    -0.325 C  
BRANCH   5   6
HETATM    6  O   UNL     1     -10.635  10.581  66.992  1.00  0.00    -0.240 OA 
BRANCH   6   7
HETATM    7  C   UNL     1     -11.119   9.677  67.906  1.00  0.00    -0.038 A  
HETATM    8  C   UNL     1     -11.798  10.241  69.007  1.00  0.00     0.075 A  
HETATM    9  C   UNL     1     -12.198   9.419  70.064  1.00  0.00     0.408 A  
HETATM   10  C   UNL     1     -10.850   8.304  67.879  1.00  0.00    -0.037 A  
HETATM   11  C   UNL     1     -11.179   7.491  68.981  1.00  0.00     0.230 A  
HETATM   12  C   UNL     1     -11.869   8.060  70.055  1.00  0.00     0.400 A  
BRANCH   8  13
HETATM   13  O   UNL     1     -12.007  11.599  68.959  1.00  0.00    -0.324 OA 
HETATM   14  C   UNL     1     -12.765  12.190  70.004  1.00  0.00     0.316 C  
ENDBRANCH   8  13
BRANCH  11  15
HETATM   15  C   UNL     1     -10.609   6.093  69.109  1.00  0.00    -0.345 C  
HETATM   16  C   UNL     1      -9.493   5.579  68.163  1.00  0.00    -0.133 C  
HETATM   17  C   UNL     1      -8.966   4.190  68.689  1.00  0.00    -0.158 C  
HETATM   18  C   UNL     1      -9.879   5.421  66.660  1.00  0.00    -0.193 C  
HETATM   19  C   UNL     1     -10.087   6.757  65.945  1.00  0.00     0.635 C  
HETATM   20  C   UNL     1     -11.071   4.492  66.420  1.00  0.00     1.214 C  
BRANCH  17  21
HETATM   21  C   UNL     1      -8.303   4.209  70.081  1.00  0.00    -0.064 C  
HETATM   22  N   UNL     1      -9.169   3.447  70.988  1.00  0.00    -0.114 NA 
HETATM   23  H1  UNL     1      -8.730   3.460  71.909  1.00  0.00     0.000 HD 
HETATM   24  H2  UNL     1      -9.366   2.504  70.654  1.00  0.00     0.000 HD 
BRANCH  21  25
HETATM   25  C   UNL     1      -8.006   5.657  70.627  1.00  0.00    -0.104 C  
HETATM   26  H   UNL     1      -6.508   6.647  71.471  1.00  0.00     0.000 HD 
HETATM   27  O   UNL     1      -6.687   5.774  71.141  1.00  0.00    -0.053 OA 
BRANCH  25  28
HETATM   28  C   UNL     1      -8.248   6.669  69.489  1.00  0.00    -0.130 C  
HETATM   29  C   UNL     1      -7.557   8.053  69.480  1.00  0.00    -0.101 C  
HETATM   30  C   UNL     1      -8.148   8.757  68.241  1.00  0.00    -0.114 C  
HETATM   31  C   UNL     1      -6.002   8.030  69.433  1.00  0.00    -0.033 C  
HETATM   32  C   UNL     1      -5.368   9.425  69.532  1.00  0.00    -0.035 C  
HETATM   33  O   UNL     1      -8.369   8.181  67.177  1.00  0.00    -0.118 OA 
HETATM   34  N   UNL     1      -8.408  10.100  68.401  1.00  0.00    -0.110 N  
HETATM   35  C   UNL     1      -5.441   7.271  68.226  1.00  0.00    -0.022 C  
HETATM   36  H   UNL     1      -8.132  10.571  69.263  1.00  0.00     0.000 HD 
BRANCH  34  37
HETATM   37  C   UNL     1      -9.074  10.851  67.352  1.00  0.00    -0.140 C  
BRANCH  37  38
HETATM   38  C   UNL     1      -8.613  10.468  65.935  1.00  0.00    -0.170 C  
HETATM   39  C   UNL     1      -8.271   8.963  65.891  1.00  0.00    -0.119 C  
HETATM   40  C   UNL     1      -9.714  10.767  64.903  1.00  0.00    -0.330 C  
BRANCH  38  41
HETATM   41  C   UNL     1      -7.348  11.266  65.591  1.00  0.00     0.389 C  
HETATM   42  N   UNL     1      -7.436  12.622  65.626  1.00  0.00     2.343 N  
HETATM   43  O   UNL     1      -6.274  10.745  65.297  1.00  0.00    -0.085 OA 
HETATM   44  H2  UNL     1      -8.308  13.091  65.873  1.00  0.00     0.000 HD 
HETATM   45  H1  UNL     1      -6.596  13.152  65.397  1.00  0.00     0.000 HD 
ENDBRANCH  38  41
ENDBRANCH  37  38
ENDBRANCH  34  37
ENDBRANCH  25  28
ENDBRANCH  21  25
ENDBRANCH  17  21
ENDBRANCH  11  15
ENDBRANCH   6   7
ENDBRANCH   5   6
ENDBRANCH   4   5
ENDBRANCH   3   4
ENDBRANCH   2   3
TORSDOF 13
ENDMDL
MODEL      219
REMARK 921   NORMALIZED FREE ENERGY PREDICTED BY IDOCK:   25.32 KCAL/MOL
REMARK 922        TOTAL FREE ENERGY PREDICTED BY IDOCK:   42.25 KCAL/MOL
REMARK 923 INTER-LIGAND FREE ENERGY PREDICTED BY IDOCK:   25.78 KCAL/MOL
REMARK 924 INTRA-LIGAND FREE ENERGY PREDICTED BY IDOCK:   16.47 KCAL/MOL
REMARK 927      BINDING AFFINITY PREDICTED BY RF-SCORE:    0.00 PKD
ROOT
HETATM    1  C   UNL     1      -7.353   3.906  65.845  1.00  0.00    -0.073 C  
HETATM    2  O   UNL     1      -8.608   3.570  66.420  1.00  0.00    -0.109 OA 
ENDROOT
BRANCH   2   3
HETATM    3  C   UNL     1      -9.499   4.684  66.397  1.00  0.00    -0.166 C  
BRANCH   3   4
HETATM    4  C   UNL     1      -8.723   5.954  66.079  1.00  0.00    -0.148 C  
BRANCH   4   5
HETATM    5  C   UNL     1      -9.426   6.878  65.085  1.00  0.00     1.149 C  
BRANCH   5   6
HETATM    6  O   UNL     1     -10.815   6.962  65.390  1.00  0.00     3.040 OA 
BRANCH   6   7
HETATM    7  C   UNL     1     -11.234   7.587  66.539  1.00  0.00     1.479 A  
HETATM    8  C   UNL     1     -12.160   6.858  67.316  1.00  0.00     3.252 A  
HETATM    9  C   UNL     1     -12.759   7.466  68.423  1.00  0.00     6.759 A  
HETATM   10  C   UNL     1     -10.925   8.910  66.878  1.00  0.00     0.229 A  
HETATM   11  C   UNL     1     -11.590   9.547  67.943  1.00  0.00     1.056 A  
HETATM   12  C   UNL     1     -12.488   8.806  68.716  1.00  0.00     4.349 A  
BRANCH   8  13
HETATM   13  O   UNL     1     -12.417   5.573  66.903  1.00  0.00     4.977 OA 
HETATM   14  C   UNL     1     -11.401   4.896  66.177  1.00  0.00     1.049 C  
ENDBRANCH   8  13
BRANCH  11  15
HETATM   15  C   UNL     1     -11.513  11.051  68.115  1.00  0.00    -0.374 C  
HETATM   16  C   UNL     1     -10.605  11.701  69.191  1.00  0.00    -0.147 C  
HETATM   17  C   UNL     1     -10.574  13.261  68.970  1.00  0.00    -0.096 C  
HETATM   18  C   UNL     1     -10.987  11.424  70.678  1.00  0.00     1.163 C  
HETATM   19  C   UNL     1     -10.730   9.978  71.110  1.00  0.00     0.020 C  
HETATM   20  C   UNL     1     -12.412  11.847  71.042  1.00  0.00    -0.390 C  
BRANCH  17  21
HETATM   21  C   UNL     1      -9.973  13.735  67.632  1.00  0.00    -0.238 C  
HETATM   22  N   UNL     1     -10.844  14.796  67.112  1.00  0.00    -0.303 NA 
HETATM   23  H1  UNL     1     -10.446  15.109  66.226  1.00  0.00     0.000 HD 
HETATM   24  H2  UNL     1     -10.987  15.556  67.776  1.00  0.00     0.000 HD 
BRANCH  21  25
HETATM   25  C   UNL     1      -9.760  12.580  66.582  1.00  0.00    -0.242 C  
HETATM   26  H   UNL     1      -8.769  12.274  64.890  1.00  0.00     0.000 HD 
HETATM   27  O   UNL     1      -8.897  12.971  65.524  1.00  0.00     0.685 OA 
BRANCH  25  28
HETATM   28  C   UNL     1      -9.206  11.344  67.319  1.00  0.00    -0.167 C  
HETATM   29  C   UNL     1      -7.865  10.692  66.907  1.00  0.00    -0.121 C  
HETATM   30  C   UNL     1      -7.752   9.458  67.825  1.00  0.00    -0.088 C  
HETATM   31  C   UNL     1      -6.609  11.604  67.022  1.00  0.00    -0.144 C  
HETATM   32  C   UNL     1      -5.326  10.942  66.502  1.00  0.00    -0.089 C  
HETATM   33  O   UNL     1      -8.088   9.463  69.009  1.00  0.00    -0.101 OA 
HETATM   34  N   UNL     1      -7.232   8.331  67.228  1.00  0.00    -0.083 N  
HETATM   35  C   UNL     1      -6.391  12.162  68.433  1.00  0.00    -0.054 C  
HETATM   36  H   UNL     1      -6.879   8.381  66.272  1.00  0.00     0.000 HD 
BRANCH  34  37
HETATM   37  C   UNL     1      -7.183   7.072  67.949  1.00  0.00    -0.091 C  
BRANCH  37  38
HETATM   38  C   UNL     1      -6.298   7.117  69.206  1.00  0.00    -0.035 C  
HETATM   39  C   UNL     1      -7.148   6.787  70.451  1.00  0.00    -0.068 C  
HETATM   40  C   UNL     1      -5.144   6.107  69.098  1.00  0.00    -0.004 C  
BRANCH  38  41
HETATM   41  C   UNL     1      -5.732   8.535  69.365  1.00  0.00    -0.031 C  
HETATM   42  N   UNL     1      -5.335   8.912  70.610  1.00  0.00    -0.027 N  
HETATM   43  O   UNL     1      -5.615   9.331  68.436  1.00  0.00    -0.037 OA 
HETATM   44  H2  UNL     1      -5.409   8.279  71.406  1.00  0.00     0.000 HD 
HETATM   45  H1  UNL     1      -4.959   9.854  70.716  1.00  0.00     0.000 HD 
ENDBRANCH  38  41
ENDBRANCH  37  38
ENDBRANCH  34  37
ENDBRANCH  25  28
ENDBRANCH  21  25
ENDBRANCH  17  21
ENDBRANCH  11  15
ENDBRANCH   6   7
ENDBRANCH   5   6
ENDBRANCH   4   5
ENDBRANCH   3   4
ENDBRANCH   2   3
TORSDOF 13
ENDMDL
MODEL      220
REMARK 921   NORMALIZED FREE ENERGY PREDICTED BY IDOCK:   25.34 KCAL/MOL
REMARK 922        TOTAL FREE ENERGY PREDICTED BY IDOCK:   42.30 KCAL/MOL
REMARK 923 INTER-LIGAND FREE ENERGY PREDICTED BY IDOCK:   23.36 KCAL/MOL
REMARK 924 INTRA-LIGAND FREE ENERGY PREDICTED BY IDOCK:   18.94 KCAL/MOL
REMARK 927      BINDING AFFINITY PREDICTED BY RF-SCORE:    0.00 PKD
ROOT
HETATM    1  C   UNL     1      -8.061  12.980  67.620  1.00  0.00    -0.172 C  
HETATM    2  O   UNL     1      -7.488  11.710  67.898  1.00  0.00    -0.094 OA 
ENDROOT
BRANCH   2   3
HETATM    3  C   UNL     1      -7.883  10.743  66.927  1.00  0.00    -0.130 C  
BRANCH   3   4
HETATM    4  C   UNL     1      -9.303  11.036  66.461  1.00  0.00    -0.200 C  
BRANCH   4   5
HETATM    5  C   UNL     1      -9.455  12.374  65.738  1.00  0.00    -0.086 C  
BRANCH   5   6
HETATM    6  O   UNL     1      -9.932  13.369  66.638  1.00  0.00    -0.262 OA 
BRANCH   6   7
HETATM    7  C   UNL     1      -9.917  14.694  66.275  1.00  0.00    -0.290 A  
HETATM    8  C   UNL     1     -10.457  14.974  65.001  1.00  0.00    -0.386 A  
HETATM    9  C   UNL     1     -10.353  16.266  64.478  1.00  0.00     1.031 A  
HETATM   10  C   UNL     1      -9.282  15.707  67.002  1.00  0.00    -0.239 A  
HETATM   11  C   UNL     1      -9.105  16.986  66.440  1.00  0.00    -0.300 A  
HETATM   12  C   UNL     1      -9.663  17.253  65.187  1.00  0.00     1.356 A  
BRANCH   8  13
HETATM   13  O   UNL     1     -11.048  13.918  64.349  1.00  0.00    -0.376 OA 
HETATM   14  C   UNL     1     -12.053  13.191  65.042  1.00  0.00    -0.415 C  
ENDBRANCH   8  13
BRANCH  11  15
HETATM   15  C   UNL     1      -8.148  17.980  67.065  1.00  0.00    -0.241 C  
HETATM   16  C   UNL     1      -7.512  19.128  66.238  1.00  0.00    -0.286 C  
HETATM   17  C   UNL     1      -6.753  20.109  67.210  1.00  0.00    -0.264 C  
HETATM   18  C   UNL     1      -6.529  18.701  65.105  1.00  0.00    -0.201 C  
HETATM   19  C   UNL     1      -7.224  18.024  63.923  1.00  0.00     7.991 C  
HETATM   20  C   UNL     1      -5.351  17.853  65.593  1.00  0.00    -0.195 C  
BRANCH  17  21
HETATM   21  C   UNL     1      -7.632  20.834  68.249  1.00  0.00     0.248 C  
HETATM   22  N   UNL     1      -7.314  20.266  69.564  1.00  0.00     0.121 NA 
HETATM   23  H1  UNL     1      -7.895  20.745  70.252  1.00  0.00     0.000 HD 
HETATM   24  H2  UNL     1      -6.319  20.306  69.786  1.00  0.00     0.000 HD 
BRANCH  21  25
HETATM   25  C   UNL     1      -9.175  20.769  67.937  1.00  0.00     0.080 C  
HETATM   26  H   UNL     1     -10.365  20.354  66.405  1.00  0.00     0.000 HD 
HETATM   27  O   UNL     1      -9.434  20.393  66.593  1.00  0.00    -0.360 OA 
BRANCH  25  28
HETATM   28  C   UNL     1      -9.833  19.784  68.924  1.00  0.00    -0.454 C  
HETATM   29  C   UNL     1      -8.985  18.841  69.809  1.00  0.00     0.900 C  
HETATM   30  C   UNL     1     -10.030  17.982  70.550  1.00  0.00     2.314 C  
HETATM   31  C   UNL     1      -8.015  19.541  70.804  1.00  0.00     2.030 C  
HETATM   32  C   UNL     1      -7.124  18.561  71.580  1.00  0.00     4.419 C  
HETATM   33  O   UNL     1     -11.090  18.433  70.983  1.00  0.00     2.272 OA 
HETATM   34  N   UNL     1      -9.691  16.657  70.709  1.00  0.00     2.293 N  
HETATM   35  C   UNL     1      -8.721  20.501  71.768  1.00  0.00     2.319 C  
HETATM   36  H   UNL     1      -8.769  16.331  70.420  1.00  0.00     0.000 HD 
BRANCH  34  37
HETATM   37  C   UNL     1     -10.639  15.719  71.284  1.00  0.00     0.510 C  
BRANCH  37  38
HETATM   38  C   UNL     1     -11.341  14.836  70.240  1.00  0.00    -0.277 C  
HETATM   39  C   UNL     1     -10.289  14.203  69.304  1.00  0.00    -0.026 C  
HETATM   40  C   UNL     1     -12.148  13.718  70.923  1.00  0.00    -0.366 C  
BRANCH  38  41
HETATM   41  C   UNL     1     -12.279  15.711  69.397  1.00  0.00    -0.176 C  
HETATM   42  N   UNL     1     -11.734  16.789  68.773  1.00  0.00     0.038 N  
HETATM   43  O   UNL     1     -13.478  15.484  69.255  1.00  0.00     1.230 OA 
HETATM   44  H2  UNL     1     -10.741  17.007  68.861  1.00  0.00     0.000 HD 
HETATM   45  H1  UNL     1     -12.356  17.371  68.213  1.00  0.00     0.000 HD 
ENDBRANCH  38  41
ENDBRANCH  37  38
ENDBRANCH  34  37
ENDBRANCH  25  28
ENDBRANCH  21  25
ENDBRANCH  17  21
ENDBRANCH  11  15
ENDBRANCH   6   7
ENDBRANCH   5   6
ENDBRANCH   4   5
ENDBRANCH   3   4
ENDBRANCH   2   3
TORSDOF 13
ENDMDL
MODEL      221
REMARK 921   NORMALIZED FREE ENERGY PREDICTED BY IDOCK:   25.50 KCAL/MOL
REMARK 922        TOTAL FREE ENERGY PREDICTED BY IDOCK:   42.57 KCAL/MOL
REMARK 923 INTER-LIGAND FREE ENERGY PREDICTED BY IDOCK:   25.31 KCAL/MOL
REMARK 924 INTRA-LIGAND FREE ENERGY PREDICTED BY IDOCK:   17.26 KCAL/MOL
REMARK 927      BINDING AFFINITY PREDICTED BY RF-SCORE:    0.00 PKD
ROOT
HETATM    1  C   UNL     1      -8.084  14.710  70.820  1.00  0.00     2.214 C  
HETATM    2  O   UNL     1      -7.400  14.257  71.980  1.00  0.00     2.301 OA 
ENDROOT
BRANCH   2   3
HETATM    3  C   UNL     1      -7.190  15.325  72.902  1.00  0.00     5.772 C  
BRANCH   3   4
HETATM    4  C   UNL     1      -6.834  16.596  72.142  1.00  0.00     6.383 C  
BRANCH   4   5
HETATM    5  C   UNL     1      -8.046  17.349  71.594  1.00  0.00    10.775 C  
BRANCH   5   6
HETATM    6  O   UNL     1      -8.171  17.126  70.192  1.00  0.00     1.629 OA 
BRANCH   6   7
HETATM    7  C   UNL     1      -8.049  15.857  69.681  1.00  0.00     0.052 A  
HETATM    8  C   UNL     1      -6.784  15.548  69.135  1.00  0.00    -0.145 A  
HETATM    9  C   UNL     1      -6.604  14.339  68.458  1.00  0.00    -0.095 A  
HETATM   10  C   UNL     1      -9.110  14.954  69.540  1.00  0.00     0.018 A  
HETATM   11  C   UNL     1      -8.949  13.775  68.787  1.00  0.00     0.042 A  
HETATM   12  C   UNL     1      -7.686  13.474  68.271  1.00  0.00    -0.137 A  
BRANCH   8  13
HETATM   13  O   UNL     1      -5.804  16.496  69.305  1.00  0.00    -0.138 OA 
HETATM   14  C   UNL     1      -5.789  17.600  68.411  1.00  0.00    -0.169 C  
ENDBRANCH   8  13
BRANCH  11  15
HETATM   15  C   UNL     1     -10.152  12.964  68.353  1.00  0.00    -0.227 C  
HETATM   16  C   UNL     1     -10.273  12.392  66.917  1.00  0.00    -0.238 C  
HETATM   17  C   UNL     1     -11.512  11.421  66.847  1.00  0.00    -0.198 C  
HETATM   18  C   UNL     1     -10.403  13.437  65.765  1.00  0.00    -0.296 C  
HETATM   19  C   UNL     1      -9.115  14.223  65.512  1.00  0.00     0.788 C  
HETATM   20  C   UNL     1     -11.591  14.389  65.923  1.00  0.00    -0.361 C  
BRANCH  17  21
HETATM   21  C   UNL     1     -11.433  10.171  67.746  1.00  0.00     0.230 C  
HETATM   22  N   UNL     1     -12.106  10.497  69.009  1.00  0.00    -0.713 NA 
HETATM   23  H1  UNL     1     -12.053   9.670  69.604  1.00  0.00     0.000 HD 
HETATM   24  H2  UNL     1     -13.060  10.833  68.878  1.00  0.00     0.000 HD 
BRANCH  21  25
HETATM   25  C   UNL     1      -9.967   9.642  67.979  1.00  0.00    -0.160 C  
HETATM   26  H   UNL     1      -8.746   9.272  69.497  1.00  0.00     0.000 HD 
HETATM   27  O   UNL     1      -9.630   9.590  69.357  1.00  0.00    -0.163 OA 
BRANCH  25  28
HETATM   28  C   UNL     1      -9.838   8.252  67.325  1.00  0.00    -0.258 C  
HETATM   29  C   UNL     1      -8.497   7.759  66.734  1.00  0.00    -0.126 C  
HETATM   30  C   UNL     1      -8.842   6.391  66.111  1.00  0.00    -0.150 C  
HETATM   31  C   UNL     1      -7.317   7.644  67.743  1.00  0.00    -0.099 C  
HETATM   32  C   UNL     1      -5.987   7.253  67.084  1.00  0.00    -0.041 C  
HETATM   33  O   UNL     1      -9.608   5.584  66.636  1.00  0.00    -0.137 OA 
HETATM   34  N   UNL     1      -8.219   6.120  64.913  1.00  0.00    -0.163 N  
HETATM   35  C   UNL     1      -7.620   6.720  68.928  1.00  0.00    -0.105 C  
HETATM   36  H   UNL     1      -7.521   6.767  64.547  1.00  0.00     0.000 HD 
BRANCH  34  37
HETATM   37  C   UNL     1      -8.550   4.919  64.167  1.00  0.00    -0.135 C  
BRANCH  37  38
HETATM   38  C   UNL     1      -8.038   3.626  64.825  1.00  0.00    -0.090 C  
HETATM   39  C   UNL     1      -6.569   3.383  64.415  1.00  0.00    -0.035 C  
HETATM   40  C   UNL     1      -8.127   3.719  66.357  1.00  0.00    -0.097 C  
BRANCH  38  41
HETATM   41  C   UNL     1      -8.883   2.446  64.326  1.00  0.00    -0.101 C  
HETATM   42  N   UNL     1     -10.069   2.219  64.953  1.00  0.00    -0.245 N  
HETATM   43  O   UNL     1      -8.550   1.713  63.398  1.00  0.00    -0.075 OA 
HETATM   44  H2  UNL     1     -10.384   2.809  65.722  1.00  0.00     0.000 HD 
HETATM   45  H1  UNL     1     -10.631   1.435  64.622  1.00  0.00     0.000 HD 
ENDBRANCH  38  41
ENDBRANCH  37  38
ENDBRANCH  34  37
ENDBRANCH  25  28
ENDBRANCH  21  25
ENDBRANCH  17  21
ENDBRANCH  11  15
ENDBRANCH   6   7
ENDBRANCH   5   6
ENDBRANCH   4   5
ENDBRANCH   3   4
ENDBRANCH   2   3
TORSDOF 13
ENDMDL
MODEL      222
REMARK 921   NORMALIZED FREE ENERGY PREDICTED BY IDOCK:   38.50 KCAL/MOL
REMARK 922        TOTAL FREE ENERGY PREDICTED BY IDOCK:   65.46 KCAL/MOL
REMARK 923 INTER-LIGAND FREE ENERGY PREDICTED BY IDOCK:   61.33 KCAL/MOL
REMARK 924 INTRA-LIGAND FREE ENERGY PREDICTED BY IDOCK:    4.13 KCAL/MOL
REMARK 927      BINDING AFFINITY PREDICTED BY RF-SCORE:    0.00 PKD
ROOT
HETATM    1  C   UNL     1      -8.219   5.498  66.477  1.00  0.00    -0.105 C  
HETATM    2  O   UNL     1      -9.354   6.351  66.531  1.00  0.00    -0.151 OA 
ENDROOT
BRANCH   2   3
HETATM    3  C   UNL     1     -10.194   6.019  67.636  1.00  0.00    -0.181 C  
BRANCH   3   4
HETATM    4  C   UNL     1     -11.620   6.469  67.349  1.00  0.00     0.503 C  
BRANCH   4   5
HETATM    5  C   UNL     1     -11.784   7.191  66.011  1.00  0.00     4.803 C  
BRANCH   5   6
HETATM    6  O   UNL     1     -10.517   7.620  65.524  1.00  0.00     1.918 OA 
BRANCH   6   7
HETATM    7  C   UNL     1     -10.109   8.919  65.707  1.00  0.00     0.269 A  
HETATM    8  C   UNL     1     -10.041   9.699  64.533  1.00  0.00     0.734 A  
HETATM    9  C   UNL     1      -9.497  10.985  64.591  1.00  0.00    -0.270 A  
HETATM   10  C   UNL     1      -9.631   9.435  66.918  1.00  0.00    -0.217 A  
HETATM   11  C   UNL     1      -9.009  10.698  66.959  1.00  0.00    -0.145 A  
HETATM   12  C   UNL     1      -8.968  11.466  65.792  1.00  0.00    -0.159 A  
BRANCH   8  13
HETATM   13  O   UNL     1     -10.517   9.108  63.386  1.00  0.00     3.698 OA 
HETATM   14  C   UNL     1     -11.419   9.855  62.583  1.00  0.00     5.708 C  
ENDBRANCH   8  13
BRANCH  11  15
HETATM   15  C   UNL     1      -8.205  11.125  68.170  1.00  0.00    -0.131 C  
HETATM   16  C   UNL     1      -7.373  12.433  68.173  1.00  0.00    -0.111 C  
HETATM   17  C   UNL     1      -6.842  12.707  69.632  1.00  0.00     0.172 C  
HETATM   18  C   UNL     1      -6.161  12.485  67.193  1.00  0.00    -0.036 C  
HETATM   19  C   UNL     1      -6.575  12.568  65.722  1.00  0.00     3.727 C  
HETATM   20  C   UNL     1      -5.146  11.360  67.402  1.00  0.00    -0.053 C  
BRANCH  17  21
HETATM   21  C   UNL     1      -7.925  12.944  70.704  1.00  0.00     5.532 C  
HETATM   22  N   UNL     1      -7.617  14.220  71.361  1.00  0.00     2.090 NA 
HETATM   23  H1  UNL     1      -8.333  14.377  72.071  1.00  0.00     0.000 HD 
HETATM   24  H2  UNL     1      -7.529  14.996  70.705  1.00  0.00     0.000 HD 
BRANCH  21  25
HETATM   25  C   UNL     1      -8.067  11.766  71.741  1.00  0.00    13.005 C  
HETATM   26  H   UNL     1      -9.194  11.291  73.303  1.00  0.00     0.000 HD 
HETATM   27  O   UNL     1      -9.109  12.001  72.677  1.00  0.00    20.360 OA 
BRANCH  25  28
HETATM   28  C   UNL     1      -8.307  10.456  70.964  1.00  0.00     2.502 C  
HETATM   29  C   UNL     1      -9.524   9.551  71.264  1.00  0.00     0.084 C  
HETATM   30  C   UNL     1      -9.319   8.330  70.344  1.00  0.00    -0.159 C  
HETATM   31  C   UNL     1     -10.920  10.202  71.043  1.00  0.00    -0.146 C  
HETATM   32  C   UNL     1     -12.089   9.297  71.456  1.00  0.00    -0.435 C  
HETATM   33  O   UNL     1      -8.894   8.416  69.193  1.00  0.00    -0.140 OA 
HETATM   34  N   UNL     1      -9.657   7.116  70.899  1.00  0.00    -0.167 N  
HETATM   35  C   UNL     1     -11.127  10.726  69.617  1.00  0.00    -0.339 C  
HETATM   36  H   UNL     1     -10.090   7.084  71.822  1.00  0.00     0.000 HD 
BRANCH  34  37
HETATM   37  C   UNL     1      -9.400   5.881  70.180  1.00  0.00    -0.156 C  
BRANCH  37  38
HETATM   38  C   UNL     1      -8.714   4.803  71.035  1.00  0.00    -0.138 C  
HETATM   39  C   UNL     1      -9.719   4.238  72.063  1.00  0.00    -0.227 C  
HETATM   40  C   UNL     1      -8.193   3.655  70.154  1.00  0.00    -0.070 C  
BRANCH  38  41
HETATM   41  C   UNL     1      -7.545   5.442  71.798  1.00  0.00    -0.098 C  
HETATM   42  N   UNL     1      -7.482   5.224  73.140  1.00  0.00    -0.091 N  
HETATM   43  O   UNL     1      -6.673   6.122  71.263  1.00  0.00    -0.052 OA 
HETATM   44  H2  UNL     1      -8.182   4.658  73.619  1.00  0.00     0.000 HD 
HETATM   45  H1  UNL     1      -6.706   5.648  73.647  1.00  0.00     0.000 HD 
ENDBRANCH  38  41
ENDBRANCH  37  38
ENDBRANCH  34  37
ENDBRANCH  25  28
ENDBRANCH  21  25
ENDBRANCH  17  21
ENDBRANCH  11  15
ENDBRANCH   6   7
ENDBRANCH   5   6
ENDBRANCH   4   5
ENDBRANCH   3   4
ENDBRANCH   2   3
TORSDOF 13
ENDMDL
MODEL      223
REMARK 921   NORMALIZED FREE ENERGY PREDICTED BY IDOCK:   39.14 KCAL/MOL
REMARK 922        TOTAL FREE ENERGY PREDICTED BY IDOCK:   66.57 KCAL/MOL
REMARK 923 INTER-LIGAND FREE ENERGY PREDICTED BY IDOCK:   63.98 KCAL/MOL
REMARK 924 INTRA-LIGAND FREE ENERGY PREDICTED BY IDOCK:    2.60 KCAL/MOL
REMARK 927      BINDING AFFINITY PREDICTED BY RF-SCORE:    0.00 PKD
ROOT
HETATM    1  C   UNL     1      -8.219   5.498  66.477  1.00  0.00    -0.105 C  
HETATM    2  O   UNL     1      -9.354   6.351  66.531  1.00  0.00    -0.151 OA 
ENDROOT
BRANCH   2   3
HETATM    3  C   UNL     1     -10.194   6.019  67.636  1.00  0.00    -0.181 C  
BRANCH   3   4
HETATM    4  C   UNL     1     -11.620   6.469  67.349  1.00  0.00     0.503 C  
BRANCH   4   5
HETATM    5  C   UNL     1     -11.784   7.191  66.011  1.00  0.00     4.803 C  
BRANCH   5   6
HETATM    6  O   UNL     1     -10.517   7.620  65.524  1.00  0.00     1.918 OA 
BRANCH   6   7
HETATM    7  C   UNL     1     -10.109   8.919  65.707  1.00  0.00     0.269 A  
HETATM    8  C   UNL     1     -10.041   9.699  64.533  1.00  0.00     0.734 A  
HETATM    9  C   UNL     1      -9.497  10.985  64.591  1.00  0.00    -0.270 A  
HETATM   10  C   UNL     1      -9.631   9.435  66.918  1.00  0.00    -0.217 A  
HETATM   11  C   UNL     1      -9.009  10.698  66.959  1.00  0.00    -0.145 A  
HETATM   12  C   UNL     1      -8.968  11.466  65.792  1.00  0.00    -0.159 A  
BRANCH   8  13
HETATM   13  O   UNL     1     -10.517   9.108  63.386  1.00  0.00     3.698 OA 
HETATM   14  C   UNL     1     -11.419   9.855  62.583  1.00  0.00     5.708 C  
ENDBRANCH   8  13
BRANCH  11  15
HETATM   15  C   UNL     1      -8.205  11.125  68.170  1.00  0.00    -0.131 C  
HETATM   16  C   UNL     1      -7.373  12.433  68.173  1.00  0.00    -0.111 C  
HETATM   17  C   UNL     1      -6.842  12.707  69.632  1.00  0.00     0.172 C  
HETATM   18  C   UNL     1      -6.161  12.485  67.193  1.00  0.00    -0.036 C  
HETATM   19  C   UNL     1      -6.575  12.568  65.722  1.00  0.00     3.727 C  
HETATM   20  C   UNL     1      -5.146  11.360  67.402  1.00  0.00    -0.053 C  
BRANCH  17  21
HETATM   21  C   UNL     1      -7.925  12.944  70.704  1.00  0.00     5.532 C  
HETATM   22  N   UNL     1      -8.270  11.636  71.274  1.00  0.00     7.167 NA 
HETATM   23  H1  UNL     1      -8.987  11.793  71.983  1.00  0.00     0.000 HD 
HETATM   24  H2  UNL     1      -7.460  11.130  71.631  1.00  0.00     0.000 HD 
BRANCH  21  25
HETATM   25  C   UNL     1      -9.195  13.708  70.171  1.00  0.00     3.015 C  
HETATM   26  H   UNL     1     -10.910  14.413  70.878  1.00  0.00     0.000 HD 
HETATM   27  O   UNL     1     -10.143  13.953  71.200  1.00  0.00     3.464 OA 
BRANCH  25  28
HETATM   28  C   UNL     1      -8.735  15.027  69.518  1.00  0.00    -0.062 C  
HETATM   29  C   UNL     1      -9.537  16.338  69.695  1.00  0.00     0.007 C  
HETATM   30  C   UNL     1      -8.788  17.357  68.813  1.00  0.00    -0.220 C  
HETATM   31  C   UNL     1      -9.680  16.849  71.159  1.00  0.00     4.387 C  
HETATM   32  C   UNL     1     -10.572  18.091  71.287  1.00  0.00     2.820 C  
HETATM   33  O   UNL     1      -7.562  17.402  68.724  1.00  0.00    -0.249 OA 
HETATM   34  N   UNL     1      -9.593  18.237  68.124  1.00  0.00    -0.291 N  
HETATM   35  C   UNL     1      -8.334  17.081  71.855  1.00  0.00    12.320 C  
HETATM   36  H   UNL     1     -10.600  18.236  68.286  1.00  0.00     0.000 HD 
BRANCH  34  37
HETATM   37  C   UNL     1      -9.018  19.168  67.170  1.00  0.00    -0.288 C  
BRANCH  37  38
HETATM   38  C   UNL     1      -9.665  19.098  65.776  1.00  0.00     0.086 C  
HETATM   39  C   UNL     1      -8.969  20.101  64.831  1.00  0.00     1.943 C  
HETATM   40  C   UNL     1      -9.545  17.682  65.188  1.00  0.00     1.819 C  
BRANCH  38  41
HETATM   41  C   UNL     1     -11.145  19.487  65.895  1.00  0.00     0.018 C  
HETATM   42  N   UNL     1     -11.623  20.402  65.009  1.00  0.00     1.223 N  
HETATM   43  O   UNL     1     -11.909  19.013  66.732  1.00  0.00     1.313 OA 
HETATM   44  H2  UNL     1     -11.022  20.813  64.295  1.00  0.00     0.000 HD 
HETATM   45  H1  UNL     1     -12.606  20.661  65.088  1.00  0.00     0.000 HD 
ENDBRANCH  38  41
ENDBRANCH  37  38
ENDBRANCH  34  37
ENDBRANCH  25  28
ENDBRANCH  21  25
ENDBRANCH  17  21
ENDBRANCH  11  15
ENDBRANCH   6   7
ENDBRANCH   5   6
ENDBRANCH   4   5
ENDBRANCH   3   4
ENDBRANCH   2   3
TORSDOF 13
ENDMDL
MODEL      224
REMARK 921   NORMALIZED FREE ENERGY PREDICTED BY IDOCK:   41.58 KCAL/MOL
REMARK 922        TOTAL FREE ENERGY PREDICTED BY IDOCK:   70.87 KCAL/MOL
REMARK 923 INTER-LIGAND FREE ENERGY PREDICTED BY IDOCK:   54.43 KCAL/MOL
REMARK 924 INTRA-LIGAND FREE ENERGY PREDICTED BY IDOCK:   16.44 KCAL/MOL
REMARK 927      BINDING AFFINITY PREDICTED BY RF-SCORE:    0.00 PKD
ROOT
HETATM    1  C   UNL     1      -8.154  14.726  70.883  1.00  0.00     2.396 C  
HETATM    2  O   UNL     1      -7.652  14.143  72.078  1.00  0.00     3.250 OA 
ENDROOT
BRANCH   2   3
HETATM    3  C   UNL     1      -7.643  15.089  73.146  1.00  0.00     7.060 C  
BRANCH   3   4
HETATM    4  C   UNL     1      -8.596  16.233  72.826  1.00  0.00    15.242 C  
BRANCH   4   5
HETATM    5  C   UNL     1     -10.053  15.944  73.184  1.00  0.00     6.632 C  
BRANCH   5   6
HETATM    6  O   UNL     1     -10.773  15.533  72.027  1.00  0.00     0.120 OA 
BRANCH   6   7
HETATM    7  C   UNL     1     -10.274  14.541  71.218  1.00  0.00     2.373 A  
HETATM    8  C   UNL     1      -9.490  14.987  70.133  1.00  0.00     0.424 A  
HETATM    9  C   UNL     1      -9.061  14.069  69.170  1.00  0.00     0.282 A  
HETATM   10  C   UNL     1     -10.618  13.187  71.322  1.00  0.00     5.601 A  
HETATM   11  C   UNL     1     -10.255  12.279  70.309  1.00  0.00     2.900 A  
HETATM   12  C   UNL     1      -9.461  12.733  69.252  1.00  0.00     0.848 A  
BRANCH   8  13
HETATM   13  O   UNL     1      -9.214  16.333  70.100  1.00  0.00     0.589 OA 
HETATM   14  C   UNL     1      -9.868  17.119  69.114  1.00  0.00    -0.187 C  
ENDBRANCH   8  13
BRANCH  11  15
HETATM   15  C   UNL     1     -10.888  10.905  70.239  1.00  0.00     0.061 C  
HETATM   16  C   UNL     1     -11.350  10.289  68.893  1.00  0.00    -0.230 C  
HETATM   17  C   UNL     1     -11.753   8.783  69.122  1.00  0.00     1.070 C  
HETATM   18  C   UNL     1     -12.533  11.009  68.174  1.00  0.00     1.317 C  
HETATM   19  C   UNL     1     -12.151  12.374  67.598  1.00  0.00    -0.076 C  
HETATM   20  C   UNL     1     -13.800  11.121  69.024  1.00  0.00     6.271 C  
BRANCH  17  21
HETATM   21  C   UNL     1     -10.618   7.852  69.593  1.00  0.00    -0.234 C  
HETATM   22  N   UNL     1     -10.677   7.796  71.059  1.00  0.00    -0.225 NA 
HETATM   23  H1  UNL     1      -9.926   7.180  71.370  1.00  0.00     0.000 HD 
HETATM   24  H2  UNL     1     -11.593   7.517  71.411  1.00  0.00     0.000 HD 
BRANCH  21  25
HETATM   25  C   UNL     1      -9.190   8.273  69.077  1.00  0.00    -0.147 C  
HETATM   26  H   UNL     1      -7.413   8.728  69.831  1.00  0.00     0.000 HD 
HETATM   27  O   UNL     1      -8.274   8.474  70.143  1.00  0.00    -0.112 OA 
BRANCH  25  28
HETATM   28  C   UNL     1      -8.680   7.188  68.107  1.00  0.00    -0.127 C  
HETATM   29  C   UNL     1      -7.748   7.537  66.923  1.00  0.00    -0.110 C  
HETATM   30  C   UNL     1      -7.573   6.198  66.177  1.00  0.00    -0.090 C  
HETATM   31  C   UNL     1      -6.374   8.159  67.307  1.00  0.00    -0.056 C  
HETATM   32  C   UNL     1      -5.535   8.582  66.094  1.00  0.00    -0.034 C  
HETATM   33  O   UNL     1      -7.449   5.117  66.751  1.00  0.00    -0.085 OA 
HETATM   34  N   UNL     1      -7.553   6.293  64.803  1.00  0.00    -0.086 N  
HETATM   35  C   UNL     1      -5.548   7.273  68.247  1.00  0.00    -0.022 C  
HETATM   36  H   UNL     1      -7.568   7.210  64.358  1.00  0.00     0.000 HD 
BRANCH  34  37
HETATM   37  C   UNL     1      -7.513   5.095  63.984  1.00  0.00    -0.062 C  
BRANCH  37  38
HETATM   38  C   UNL     1      -6.174   4.342  64.061  1.00  0.00    -0.026 C  
HETATM   39  C   UNL     1      -5.169   4.969  63.070  1.00  0.00    -0.009 C  
HETATM   40  C   UNL     1      -5.590   4.409  65.482  1.00  0.00    -0.017 C  
BRANCH  38  41
HETATM   41  C   UNL     1      -6.402   2.878  63.662  1.00  0.00    -0.018 C  
HETATM   42  N   UNL     1      -6.860   2.033  64.624  1.00  0.00    -0.037 N  
HETATM   43  O   UNL     1      -6.203   2.441  62.530  1.00  0.00    -0.009 OA 
HETATM   44  H2  UNL     1      -7.044   2.358  65.573  1.00  0.00     0.000 HD 
HETATM   45  H1  UNL     1      -7.011   1.060  64.359  1.00  0.00     0.000 HD 
ENDBRANCH  38  41
ENDBRANCH  37  38
ENDBRANCH  34  37
ENDBRANCH  25  28
ENDBRANCH  21  25
ENDBRANCH  17  21
ENDBRANCH  11  15
ENDBRANCH   6   7
ENDBRANCH   5   6
ENDBRANCH   4   5
ENDBRANCH   3   4
ENDBRANCH   2   3
TORSDOF 13
ENDMDL
MODEL      225
REMARK 921   NORMALIZED FREE ENERGY PREDICTED BY IDOCK:   44.96 KCAL/MOL
REMARK 922        TOTAL FREE ENERGY PREDICTED BY IDOCK:   76.82 KCAL/MOL
REMARK 923 INTER-LIGAND FREE ENERGY PREDICTED BY IDOCK:   53.11 KCAL/MOL
REMARK 924 INTRA-LIGAND FREE ENERGY PREDICTED BY IDOCK:   23.71 KCAL/MOL
REMARK 927      BINDING AFFINITY PREDICTED BY RF-SCORE:    0.00 PKD
ROOT
HETATM    1  C   UNL     1      -8.225  17.167  66.141  1.00  0.00    -0.234 C  
HETATM    2  O   UNL     1      -9.202  16.155  65.942  1.00  0.00    -0.341 OA 
ENDROOT
BRANCH   2   3
HETATM    3  C   UNL     1      -8.832  14.946  66.604  1.00  0.00    -0.254 C  
BRANCH   3   4
HETATM    4  C   UNL     1      -9.516  14.876  67.963  1.00  0.00    -0.198 C  
BRANCH   4   5
HETATM    5  C   UNL     1      -9.690  13.454  68.496  1.00  0.00    -0.156 C  
BRANCH   5   6
HETATM    6  O   UNL     1      -9.708  13.462  69.921  1.00  0.00     1.463 OA 
BRANCH   6   7
HETATM    7  C   UNL     1     -10.632  14.220  70.596  1.00  0.00     1.082 A  
HETATM    8  C   UNL     1     -11.631  13.488  71.275  1.00  0.00     1.092 A  
HETATM    9  C   UNL     1     -12.700  14.167  71.866  1.00  0.00    -0.406 A  
HETATM   10  C   UNL     1     -10.720  15.616  70.518  1.00  0.00    -0.295 A  
HETATM   11  C   UNL     1     -11.839  16.290  71.042  1.00  0.00    -0.246 A  
HETATM   12  C   UNL     1     -12.809  15.554  71.729  1.00  0.00    -0.512 A  
BRANCH   8  13
HETATM   13  O   UNL     1     -11.475  12.123  71.288  1.00  0.00     1.331 OA 
HETATM   14  C   UNL     1     -12.194  11.385  72.266  1.00  0.00     1.749 C  
ENDBRANCH   8  13
BRANCH  11  15
HETATM   15  C   UNL     1     -12.109  17.737  70.684  1.00  0.00     6.869 C  
HETATM   16  C   UNL     1     -10.997  18.815  70.762  1.00  0.00     3.381 C  
HETATM   17  C   UNL     1     -11.526  20.154  70.120  1.00  0.00     4.491 C  
HETATM   18  C   UNL     1     -10.446  19.139  72.185  1.00  0.00     3.608 C  
HETATM   19  C   UNL     1      -9.608  18.007  72.782  1.00  0.00    10.338 C  
HETATM   20  C   UNL     1     -11.520  19.591  73.178  1.00  0.00     7.531 C  
BRANCH  17  21
HETATM   21  C   UNL     1     -11.877  20.083  68.620  1.00  0.00     3.690 C  
HETATM   22  N   UNL     1     -13.248  20.586  68.468  1.00  0.00     4.904 NA 
HETATM   23  H1  UNL     1     -13.481  20.539  67.476  1.00  0.00     0.000 HD 
HETATM   24  H2  UNL     1     -13.377  21.517  68.864  1.00  0.00     0.000 HD 
BRANCH  21  25
HETATM   25  C   UNL     1     -11.703  18.649  67.990  1.00  0.00     1.996 C  
HETATM   26  H   UNL     1     -11.781  17.793  66.202  1.00  0.00     0.000 HD 
HETATM   27  O   UNL     1     -11.885  18.658  66.582  1.00  0.00     1.719 OA 
BRANCH  25  28
HETATM   28  C   UNL     1     -10.305  18.117  68.364  1.00  0.00    -0.371 C  
HETATM   29  C   UNL     1      -9.036  18.589  67.616  1.00  0.00    -0.283 C  
HETATM   30  C   UNL     1      -7.902  17.747  68.237  1.00  0.00    -0.279 C  
HETATM   31  C   UNL     1      -8.728  20.112  67.706  1.00  0.00    -0.332 C  
HETATM   32  C   UNL     1      -7.520  20.540  66.861  1.00  0.00    -0.336 C  
HETATM   33  O   UNL     1      -7.837  17.479  69.436  1.00  0.00     0.023 OA 
HETATM   34  N   UNL     1      -6.942  17.314  67.348  1.00  0.00    -0.155 N  
HETATM   35  C   UNL     1      -8.583  20.619  69.144  1.00  0.00     1.313 C  
HETATM   36  H   UNL     1      -6.973  17.626  66.378  1.00  0.00     0.000 HD 
BRANCH  34  37
HETATM   37  C   UNL     1      -5.888  16.417  67.784  1.00  0.00    -0.133 C  
BRANCH  37  38
HETATM   38  C   UNL     1      -6.322  14.943  67.849  1.00  0.00    -0.174 C  
HETATM   39  C   UNL     1      -7.804  14.821  67.435  1.00  0.00    -0.224 C  
HETATM   40  C   UNL     1      -5.462  14.078  66.913  1.00  0.00     1.657 C  
BRANCH  38  41
HETATM   41  C   UNL     1      -6.177  14.445  69.294  1.00  0.00    -0.110 C  
HETATM   42  N   UNL     1      -5.268  15.076  70.084  1.00  0.00    -0.103 N  
HETATM   43  O   UNL     1      -6.839  13.523  69.766  1.00  0.00     0.011 OA 
HETATM   44  H2  UNL     1      -4.705  15.849  69.731  1.00  0.00     0.000 HD 
HETATM   45  H1  UNL     1      -5.172  14.745  71.044  1.00  0.00     0.000 HD 
ENDBRANCH  38  41
ENDBRANCH  37  38
ENDBRANCH  34  37
ENDBRANCH  25  28
ENDBRANCH  21  25
ENDBRANCH  17  21
ENDBRANCH  11  15
ENDBRANCH   6   7
ENDBRANCH   5   6
ENDBRANCH   4   5
ENDBRANCH   3   4
ENDBRANCH   2   3
TORSDOF 13
ENDMDL
MODEL      226
REMARK 921   NORMALIZED FREE ENERGY PREDICTED BY IDOCK:   45.81 KCAL/MOL
REMARK 922        TOTAL FREE ENERGY PREDICTED BY IDOCK:   78.32 KCAL/MOL
REMARK 923 INTER-LIGAND FREE ENERGY PREDICTED BY IDOCK:   46.52 KCAL/MOL
REMARK 924 INTRA-LIGAND FREE ENERGY PREDICTED BY IDOCK:   31.80 KCAL/MOL
REMARK 927      BINDING AFFINITY PREDICTED BY RF-SCORE:    0.00 PKD
ROOT
HETATM    1  C   UNL     1     -13.868   8.028  70.395  1.00  0.00     1.571 C  
HETATM    2  O   UNL     1     -13.689   6.677  69.995  1.00  0.00     2.518 OA 
ENDROOT
BRANCH   2   3
HETATM    3  C   UNL     1     -12.624   6.063  70.720  1.00  0.00     1.429 C  
BRANCH   3   4
HETATM    4  C   UNL     1     -11.293   6.651  70.270  1.00  0.00    -0.431 C  
BRANCH   4   5
HETATM    5  C   UNL     1     -11.094   6.647  68.755  1.00  0.00    -0.227 C  
BRANCH   5   6
HETATM    6  O   UNL     1     -10.172   7.665  68.376  1.00  0.00    -0.188 OA 
BRANCH   6   7
HETATM    7  C   UNL     1     -10.622   8.924  68.063  1.00  0.00    -0.168 A  
HETATM    8  C   UNL     1     -11.831   8.967  67.335  1.00  0.00     3.668 A  
HETATM    9  C   UNL     1     -12.294  10.189  66.841  1.00  0.00     5.593 A  
HETATM   10  C   UNL     1      -9.897  10.101  68.282  1.00  0.00    -0.162 A  
HETATM   11  C   UNL     1     -10.321  11.317  67.714  1.00  0.00    -0.208 A  
HETATM   12  C   UNL     1     -11.530  11.347  67.014  1.00  0.00    -0.234 A  
BRANCH   8  13
HETATM   13  O   UNL     1     -12.469   7.763  67.153  1.00  0.00     5.271 OA 
HETATM   14  C   UNL     1     -11.664   6.614  66.930  1.00  0.00     1.309 C  
ENDBRANCH   8  13
BRANCH  11  15
HETATM   15  C   UNL     1      -9.393  12.514  67.663  1.00  0.00    -0.189 C  
HETATM   16  C   UNL     1      -8.420  12.739  66.477  1.00  0.00     0.151 C  
HETATM   17  C   UNL     1      -7.763  14.166  66.608  1.00  0.00     0.865 C  
HETATM   18  C   UNL     1      -7.280  11.688  66.308  1.00  0.00     0.232 C  
HETATM   19  C   UNL     1      -7.782  10.320  65.840  1.00  0.00    -0.137 C  
HETATM   20  C   UNL     1      -6.387  11.539  67.541  1.00  0.00    -0.076 C  
BRANCH  17  21
HETATM   21  C   UNL     1      -8.736  15.359  66.531  1.00  0.00    -0.300 C  
HETATM   22  N   UNL     1      -7.990  16.498  65.982  1.00  0.00    -0.217 NA 
HETATM   23  H1  UNL     1      -8.633  17.287  65.931  1.00  0.00     0.000 HD 
HETATM   24  H2  UNL     1      -7.544  16.289  65.089  1.00  0.00     0.000 HD 
BRANCH  21  25
HETATM   25  C   UNL     1      -9.424  15.713  67.904  1.00  0.00    -0.204 C  
HETATM   26  H   UNL     1     -10.902  16.855  68.573  1.00  0.00     0.000 HD 
HETATM   27  O   UNL     1     -10.488  16.641  67.745  1.00  0.00    -0.296 OA 
BRANCH  25  28
HETATM   28  C   UNL     1      -9.922  14.407  68.553  1.00  0.00    -0.237 C  
HETATM   29  C   UNL     1      -9.101  13.686  69.649  1.00  0.00     1.444 C  
HETATM   30  C   UNL     1      -9.906  12.402  69.935  1.00  0.00     2.283 C  
HETATM   31  C   UNL     1      -8.850  14.503  70.950  1.00  0.00     3.232 C  
HETATM   32  C   UNL     1      -7.944  13.782  71.957  1.00  0.00     8.656 C  
HETATM   33  O   UNL     1     -11.135  12.370  69.977  1.00  0.00     0.128 OA 
HETATM   34  N   UNL     1      -9.147  11.274  70.157  1.00  0.00     1.270 N  
HETATM   35  C   UNL     1     -10.140  14.973  71.631  1.00  0.00     2.068 C  
HETATM   36  H   UNL     1      -8.132  11.348  70.206  1.00  0.00     0.000 HD 
BRANCH  34  37
HETATM   37  C   UNL     1      -9.785   9.980  70.321  1.00  0.00    -0.050 C  
BRANCH  37  38
HETATM   38  C   UNL     1     -10.899   9.973  71.381  1.00  0.00     0.197 C  
HETATM   39  C   UNL     1     -11.271   8.516  71.731  1.00  0.00    -0.379 C  
HETATM   40  C   UNL     1     -10.444  10.700  72.657  1.00  0.00     9.087 C  
BRANCH  38  41
HETATM   41  C   UNL     1     -12.140  10.667  70.803  1.00  0.00    -0.374 C  
HETATM   42  N   UNL     1     -12.320  11.980  71.108  1.00  0.00    -0.282 N  
HETATM   43  O   UNL     1     -12.961  10.104  70.083  1.00  0.00    -0.094 OA 
HETATM   44  H2  UNL     1     -11.656  12.484  71.697  1.00  0.00     0.000 HD 
HETATM   45  H1  UNL     1     -13.144  12.441  70.724  1.00  0.00     0.000 HD 
ENDBRANCH  38  41
ENDBRANCH  37  38
ENDBRANCH  34  37
ENDBRANCH  25  28
ENDBRANCH  21  25
ENDBRANCH  17  21
ENDBRANCH  11  15
ENDBRANCH   6   7
ENDBRANCH   5   6
ENDBRANCH   4   5
ENDBRANCH   3   4
ENDBRANCH   2   3
TORSDOF 13
ENDMDL
MODEL      227
REMARK 921   NORMALIZED FREE ENERGY PREDICTED BY IDOCK:   80.35 KCAL/MOL
REMARK 922        TOTAL FREE ENERGY PREDICTED BY IDOCK:  139.10 KCAL/MOL
REMARK 923 INTER-LIGAND FREE ENERGY PREDICTED BY IDOCK:  118.58 KCAL/MOL
REMARK 924 INTRA-LIGAND FREE ENERGY PREDICTED BY IDOCK:   20.52 KCAL/MOL
REMARK 927      BINDING AFFINITY PREDICTED BY RF-SCORE:    0.00 PKD
ROOT
HETATM    1  C   UNL     1      -8.242   5.492  66.489  1.00  0.00    -0.105 C  
HETATM    2  O   UNL     1      -9.431   6.234  66.721  1.00  0.00    -0.136 OA 
ENDROOT
BRANCH   2   3
HETATM    3  C   UNL     1     -10.143   5.725  67.848  1.00  0.00    -0.162 C  
BRANCH   3   4
HETATM    4  C   UNL     1     -11.616   6.095  67.734  1.00  0.00     0.838 C  
BRANCH   4   5
HETATM    5  C   UNL     1     -11.934   7.014  66.555  1.00  0.00     3.913 C  
BRANCH   5   6
HETATM    6  O   UNL     1     -10.746   7.647  66.089  1.00  0.00     0.652 OA 
BRANCH   6   7
HETATM    7  C   UNL     1     -10.410   8.901  66.540  1.00  0.00    -0.197 A  
HETATM    8  C   UNL     1     -10.569   9.941  65.598  1.00  0.00     0.276 A  
HETATM    9  C   UNL     1     -10.115  11.225  65.909  1.00  0.00    -0.291 A  
HETATM   10  C   UNL     1      -9.799   9.162  67.772  1.00  0.00    -0.214 A  
HETATM   11  C   UNL     1      -9.269  10.436  68.050  1.00  0.00    -0.142 A  
HETATM   12  C   UNL     1      -9.453  11.460  67.117  1.00  0.00    -0.186 A  
BRANCH   8  13
HETATM   13  O   UNL     1     -11.163   9.593  64.409  1.00  0.00     3.836 OA 
HETATM   14  C   UNL     1     -10.737   8.392  63.782  1.00  0.00    10.371 C  
ENDBRANCH   8  13
BRANCH  11  15
HETATM   15  C   UNL     1      -8.330  10.645  69.221  1.00  0.00    -0.112 C  
HETATM   16  C   UNL     1      -7.641  12.010  69.477  1.00  0.00     0.540 C  
HETATM   17  C   UNL     1      -6.915  11.970  70.876  1.00  0.00     2.999 C  
HETATM   18  C   UNL     1      -6.610  12.477  68.404  1.00  0.00    -0.070 C  
HETATM   19  C   UNL     1      -7.257  12.877  67.077  1.00  0.00     0.158 C  
HETATM   20  C   UNL     1      -5.468  11.486  68.167  1.00  0.00    -0.042 C  
BRANCH  17  21
HETATM   21  C   UNL     1      -7.833  11.774  72.100  1.00  0.00    13.935 C  
HETATM   22  N   UNL     1      -7.929  10.331  72.349  1.00  0.00     3.913 NA 
HETATM   23  H1  UNL     1      -8.536  10.201  73.158  1.00  0.00     0.000 HD 
HETATM   24  H2  UNL     1      -7.018   9.884  72.458  1.00  0.00     0.000 HD 
BRANCH  21  25
HETATM   25  C   UNL     1      -9.253  12.440  71.947  1.00  0.00    19.734 C  
HETATM   26  H   UNL     1     -10.191  14.088  72.530  1.00  0.00     0.000 HD 
HETATM   27  O   UNL     1      -9.334  13.687  72.622  1.00  0.00    10.119 OA 
BRANCH  25  28
HETATM   28  C   UNL     1      -9.558  12.604  70.444  1.00  0.00     5.153 C  
HETATM   29  C   UNL     1     -10.240  13.879  69.894  1.00  0.00     0.881 C  
HETATM   30  C   UNL     1     -10.436  13.579  68.393  1.00  0.00    -0.246 C  
HETATM   31  C   UNL     1      -9.460  15.208  70.111  1.00  0.00     0.320 C  
HETATM   32  C   UNL     1     -10.230  16.450  69.641  1.00  0.00    -0.198 C  
HETATM   33  O   UNL     1      -9.602  12.991  67.707  1.00  0.00    -0.195 OA 
HETATM   34  N   UNL     1     -11.622  14.029  67.858  1.00  0.00    -0.323 N  
HETATM   35  C   UNL     1      -8.050  15.191  69.510  1.00  0.00    -0.167 C  
HETATM   36  H   UNL     1     -12.254  14.592  68.427  1.00  0.00     0.000 HD 
BRANCH  34  37
HETATM   37  C   UNL     1     -11.980  13.709  66.488  1.00  0.00    -0.424 C  
BRANCH  37  38
HETATM   38  C   UNL     1     -13.364  13.053  66.350  1.00  0.00     2.873 C  
HETATM   39  C   UNL     1     -14.193  13.321  67.624  1.00  0.00    13.835 C  
HETATM   40  C   UNL     1     -14.115  13.612  65.130  1.00  0.00     3.604 C  
BRANCH  38  41
HETATM   41  C   UNL     1     -13.183  11.536  66.198  1.00  0.00     6.816 C  
HETATM   42  N   UNL     1     -13.950  10.734  66.984  1.00  0.00    15.738 N  
HETATM   43  O   UNL     1     -12.397  11.020  65.407  1.00  0.00     1.285 OA 
HETATM   44  H2  UNL     1     -14.619  11.124  67.648  1.00  0.00     0.000 HD 
HETATM   45  H1  UNL     1     -13.830   9.727  66.883  1.00  0.00     0.000 HD 
ENDBRANCH  38  41
ENDBRANCH  37  38
ENDBRANCH  34  37
ENDBRANCH  25  28
ENDBRANCH  21  25
ENDBRANCH  17  21
ENDBRANCH  11  15
ENDBRANCH   6   7
ENDBRANCH   5   6
ENDBRANCH   4   5
ENDBRANCH   3   4
ENDBRANCH   2   3
TORSDOF 13
ENDMDL
