MODEL        1
REMARK 921   NORMALIZED FREE ENERGY PREDICTED BY IDOCK:   -6.91 KCAL/MOL
REMARK 922        TOTAL FREE ENERGY PREDICTED BY IDOCK:   -9.92 KCAL/MOL
REMARK 923 INTER-LIGAND FREE ENERGY PREDICTED BY IDOCK:   -8.53 KCAL/MOL
REMARK 924 INTRA-LIGAND FREE ENERGY PREDICTED BY IDOCK:   -1.40 KCAL/MOL
REMARK 927      BINDING AFFINITY PREDICTED BY RF-SCORE:    0.00 PKD
ROOT
HETATM    1  C   UNL     1     -10.483   9.139  68.842  1.00  0.00    -0.239 C  
HETATM    2  C   UNL     1     -10.981  10.358  68.114  1.00  0.00    -0.334 C  
HETATM    3  C   UNL     1     -10.676  10.543  66.811  1.00  0.00    -0.252 C  
ENDROOT
BRANCH   2   4
HETATM    4  C   UNL     1     -11.832  11.273  68.863  1.00  0.00    -0.413 C  
HETATM    5  C   UNL     1     -11.411  12.116  69.819  1.00  0.00    -0.261 C  
BRANCH   5   6
HETATM    6  C   UNL     1     -12.259  13.101  70.509  1.00  0.00    -0.405 C  
HETATM    7  C   UNL     1     -12.639  14.828  68.671  1.00  0.00     0.360 C  
HETATM    8  C   UNL     1     -13.073  12.698  71.506  1.00  0.00    -0.373 C  
HETATM    9  C   UNL     1     -13.914  13.635  72.328  1.00  0.00    -0.661 C  
HETATM   10  C   UNL     1     -13.254  11.260  71.946  1.00  0.00    -0.491 C  
HETATM   11  C   UNL     1     -10.594  14.969  70.112  1.00  0.00    -0.155 C  
HETATM   12  C   UNL     1     -12.099  14.584  70.102  1.00  0.00    -0.394 C  
HETATM   13  C   UNL     1     -12.808  15.608  71.038  1.00  0.00    -0.521 C  
HETATM   14  C   UNL     1     -13.846  15.120  72.034  1.00  0.00    -0.608 C  
ENDBRANCH   5   6
ENDBRANCH   2   4
BRANCH   3  15
HETATM   15  C   UNL     1     -11.057  11.697  66.025  1.00  0.00    -0.325 C  
HETATM   16  C   UNL     1     -10.374  12.851  65.961  1.00  0.00    -0.294 C  
BRANCH  16  17
HETATM   17  C   UNL     1     -10.864  13.994  65.197  1.00  0.00    -0.376 C  
HETATM   18  C   UNL     1     -10.980  16.482  64.914  1.00  0.00    -0.209 C  
HETATM   19  O   UNL     1     -11.703  16.538  63.936  1.00  0.00    -1.148 OA 
HETATM   20  C   UNL     1     -10.526  15.244  65.580  1.00  0.00    -0.396 C  
HETATM   21  C   UNL     1     -11.724  13.665  64.006  1.00  0.00    -0.405 C  
HETATM   22  O   UNL     1     -10.501  17.583  65.533  1.00  0.00    -0.628 OA 
ENDBRANCH  16  17
ENDBRANCH   3  15
TORSDOF 4
ENDMDL
MODEL        2
REMARK 921   NORMALIZED FREE ENERGY PREDICTED BY IDOCK:   -6.64 KCAL/MOL
REMARK 922        TOTAL FREE ENERGY PREDICTED BY IDOCK:   -9.59 KCAL/MOL
REMARK 923 INTER-LIGAND FREE ENERGY PREDICTED BY IDOCK:   -8.33 KCAL/MOL
REMARK 924 INTRA-LIGAND FREE ENERGY PREDICTED BY IDOCK:   -1.25 KCAL/MOL
REMARK 927      BINDING AFFINITY PREDICTED BY RF-SCORE:    0.00 PKD
ROOT
HETATM    1  C   UNL     1     -12.388  12.366  70.762  1.00  0.00    -0.377 C  
HETATM    2  C   UNL     1     -11.914  13.415  69.795  1.00  0.00    -0.396 C  
HETATM    3  C   UNL     1     -12.071  14.726  70.083  1.00  0.00    -0.382 C  
ENDROOT
BRANCH   2   4
HETATM    4  C   UNL     1     -11.244  12.947  68.589  1.00  0.00    -0.321 C  
HETATM    5  C   UNL     1     -11.861  12.489  67.488  1.00  0.00    -0.389 C  
BRANCH   5   6
HETATM    6  C   UNL     1     -11.185  12.103  66.239  1.00  0.00    -0.382 C  
HETATM    7  C   UNL     1     -10.327  14.354  65.403  1.00  0.00    -0.400 C  
HETATM    8  C   UNL     1     -10.648  10.871  66.125  1.00  0.00    -0.270 C  
HETATM    9  C   UNL     1     -10.011  10.350  64.867  1.00  0.00    -0.409 C  
HETATM   10  C   UNL     1     -10.614   9.838  67.233  1.00  0.00    -0.320 C  
HETATM   11  C   UNL     1     -12.657  13.622  64.847  1.00  0.00    -0.380 C  
HETATM   12  C   UNL     1     -11.206  13.121  65.077  1.00  0.00    -0.322 C  
HETATM   13  C   UNL     1     -10.722  12.568  63.702  1.00  0.00    -0.469 C  
HETATM   14  C   UNL     1      -9.971  11.249  63.648  1.00  0.00    -0.402 C  
ENDBRANCH   5   6
ENDBRANCH   2   4
BRANCH   3  15
HETATM   15  C   UNL     1     -11.701  15.818  69.210  1.00  0.00    -0.384 C  
HETATM   16  C   UNL     1     -10.663  16.647  69.402  1.00  0.00    -0.331 C  
BRANCH  16  17
HETATM   17  C   UNL     1     -10.399  17.770  68.507  1.00  0.00    -0.366 C  
HETATM   18  C   UNL     1     -10.481  18.718  66.188  1.00  0.00    -0.446 C  
HETATM   19  O   UNL     1      -9.971  19.803  66.397  1.00  0.00    -0.397 OA 
HETATM   20  C   UNL     1     -10.724  17.670  67.201  1.00  0.00    -0.203 C  
HETATM   21  C   UNL     1      -9.775  18.982  69.145  1.00  0.00    -0.310 C  
HETATM   22  O   UNL     1     -10.890  18.327  64.961  1.00  0.00    -0.679 OA 
ENDBRANCH  16  17
ENDBRANCH   3  15
TORSDOF 4
ENDMDL
MODEL        3
REMARK 921   NORMALIZED FREE ENERGY PREDICTED BY IDOCK:   -6.50 KCAL/MOL
REMARK 922        TOTAL FREE ENERGY PREDICTED BY IDOCK:   -9.42 KCAL/MOL
REMARK 923 INTER-LIGAND FREE ENERGY PREDICTED BY IDOCK:   -8.45 KCAL/MOL
REMARK 924 INTRA-LIGAND FREE ENERGY PREDICTED BY IDOCK:   -0.97 KCAL/MOL
REMARK 927      BINDING AFFINITY PREDICTED BY RF-SCORE:    0.00 PKD
ROOT
HETATM    1  C   UNL     1     -12.111  15.214  70.064  1.00  0.00    -0.384 C  
HETATM    2  C   UNL     1     -11.993  13.716  69.995  1.00  0.00    -0.413 C  
HETATM    3  C   UNL     1     -12.550  12.946  70.956  1.00  0.00    -0.376 C  
ENDROOT
BRANCH   2   4
HETATM    4  C   UNL     1     -11.310  13.159  68.835  1.00  0.00    -0.335 C  
HETATM    5  C   UNL     1     -11.910  12.738  67.711  1.00  0.00    -0.387 C  
BRANCH   5   6
HETATM    6  C   UNL     1     -11.210  12.260  66.508  1.00  0.00    -0.373 C  
HETATM    7  C   UNL     1     -10.161  14.415  65.635  1.00  0.00    -0.371 C  
HETATM    8  C   UNL     1     -10.758  10.990  66.460  1.00  0.00    -0.298 C  
HETATM    9  C   UNL     1     -10.106  10.381  65.250  1.00  0.00    -0.370 C  
HETATM   10  C   UNL     1     -10.843   9.999  67.602  1.00  0.00    -0.336 C  
HETATM   11  C   UNL     1     -12.512  13.825  65.000  1.00  0.00    -0.449 C  
HETATM   12  C   UNL     1     -11.110  13.234  65.312  1.00  0.00    -0.306 C  
HETATM   13  C   UNL     1     -10.608  12.598  63.980  1.00  0.00    -0.457 C  
HETATM   14  C   UNL     1      -9.950  11.230  64.004  1.00  0.00    -0.362 C  
ENDBRANCH   5   6
ENDBRANCH   2   4
BRANCH   3  15
HETATM   15  C   UNL     1     -12.458  11.504  71.021  1.00  0.00    -0.458 C  
HETATM   16  C   UNL     1     -13.182  10.715  71.831  1.00  0.00    -0.528 C  
BRANCH  16  17
HETATM   17  C   UNL     1     -12.978   9.271  71.883  1.00  0.00    -0.489 C  
HETATM   18  C   UNL     1     -11.392   7.345  72.130  1.00  0.00    -0.271 C  
HETATM   19  O   UNL     1     -12.176   6.423  71.999  1.00  0.00    -0.341 OA 
HETATM   20  C   UNL     1     -11.737   8.782  72.087  1.00  0.00    -0.433 C  
HETATM   21  C   UNL     1     -14.213   8.429  71.709  1.00  0.00    -0.536 C  
HETATM   22  O   UNL     1     -10.068   7.158  72.326  1.00  0.00    -0.178 OA 
ENDBRANCH  16  17
ENDBRANCH   3  15
TORSDOF 4
ENDMDL
MODEL        4
REMARK 921   NORMALIZED FREE ENERGY PREDICTED BY IDOCK:   -6.42 KCAL/MOL
REMARK 922        TOTAL FREE ENERGY PREDICTED BY IDOCK:   -9.32 KCAL/MOL
REMARK 923 INTER-LIGAND FREE ENERGY PREDICTED BY IDOCK:   -8.31 KCAL/MOL
REMARK 924 INTRA-LIGAND FREE ENERGY PREDICTED BY IDOCK:   -1.01 KCAL/MOL
REMARK 927      BINDING AFFINITY PREDICTED BY RF-SCORE:    0.00 PKD
ROOT
HETATM    1  C   UNL     1     -11.623  15.864  71.593  1.00  0.00    -0.541 C  
HETATM    2  C   UNL     1     -11.429  15.423  70.169  1.00  0.00    -0.338 C  
HETATM    3  C   UNL     1     -12.272  14.523  69.615  1.00  0.00    -0.336 C  
ENDROOT
BRANCH   2   4
HETATM    4  C   UNL     1     -10.343  16.048  69.425  1.00  0.00    -0.272 C  
HETATM    5  C   UNL     1     -10.475  16.695  68.256  1.00  0.00    -0.321 C  
BRANCH   5   6
HETATM    6  C   UNL     1      -9.392  17.402  67.555  1.00  0.00    -0.233 C  
HETATM    7  C   UNL     1      -9.188  19.533  68.940  1.00  0.00    -0.368 C  
HETATM    8  C   UNL     1      -8.446  16.694  66.903  1.00  0.00    -0.246 C  
HETATM    9  C   UNL     1      -7.348  17.319  66.088  1.00  0.00    -0.316 C  
HETATM   10  C   UNL     1      -8.355  15.181  66.890  1.00  0.00    -0.267 C  
HETATM   11  C   UNL     1     -10.864  19.408  67.082  1.00  0.00    -0.561 C  
HETATM   12  C   UNL     1      -9.451  18.946  67.531  1.00  0.00    -0.340 C  
HETATM   13  C   UNL     1      -8.447  19.633  66.557  1.00  0.00    -0.374 C  
HETATM   14  C   UNL     1      -7.295  18.829  65.979  1.00  0.00    -0.283 C  
ENDBRANCH   5   6
ENDBRANCH   2   4
BRANCH   3  15
HETATM   15  C   UNL     1     -12.154  13.991  68.275  1.00  0.00    -0.312 C  
HETATM   16  C   UNL     1     -11.547  12.839  67.949  1.00  0.00    -0.400 C  
BRANCH  16  17
HETATM   17  C   UNL     1     -11.411  12.407  66.561  1.00  0.00    -0.392 C  
HETATM   18  C   UNL     1     -11.930  12.801  64.140  1.00  0.00    -0.427 C  
HETATM   19  O   UNL     1     -11.387  11.824  63.658  1.00  0.00    -0.408 OA 
HETATM   20  C   UNL     1     -11.968  13.144  65.577  1.00  0.00    -0.457 C  
HETATM   21  C   UNL     1     -10.627  11.141  66.344  1.00  0.00    -0.315 C  
HETATM   22  O   UNL     1     -12.593  13.712  63.395  1.00  0.00    -0.799 OA 
ENDBRANCH  16  17
ENDBRANCH   3  15
TORSDOF 4
ENDMDL
MODEL        5
REMARK 921   NORMALIZED FREE ENERGY PREDICTED BY IDOCK:   -6.42 KCAL/MOL
REMARK 922        TOTAL FREE ENERGY PREDICTED BY IDOCK:   -9.32 KCAL/MOL
REMARK 923 INTER-LIGAND FREE ENERGY PREDICTED BY IDOCK:   -8.50 KCAL/MOL
REMARK 924 INTRA-LIGAND FREE ENERGY PREDICTED BY IDOCK:   -0.82 KCAL/MOL
REMARK 927      BINDING AFFINITY PREDICTED BY RF-SCORE:    0.00 PKD
ROOT
HETATM    1  C   UNL     1      -8.418   7.530  66.922  1.00  0.00    -0.122 C  
HETATM    2  C   UNL     1      -9.401   8.657  66.766  1.00  0.00    -0.229 C  
HETATM    3  C   UNL     1      -9.390   9.420  65.651  1.00  0.00    -0.309 C  
ENDROOT
BRANCH   2   4
HETATM    4  C   UNL     1     -10.375   8.837  67.834  1.00  0.00    -0.281 C  
HETATM    5  C   UNL     1     -10.087   9.218  69.089  1.00  0.00    -0.204 C  
BRANCH   5   6
HETATM    6  C   UNL     1     -11.082   9.485  70.140  1.00  0.00    -0.294 C  
HETATM    7  C   UNL     1     -10.070   8.254  72.130  1.00  0.00    -0.344 C  
HETATM    8  C   UNL     1     -11.809  10.621  70.098  1.00  0.00    -0.421 C  
HETATM    9  C   UNL     1     -12.905  10.948  71.073  1.00  0.00    -0.472 C  
HETATM   10  C   UNL     1     -11.634  11.721  69.070  1.00  0.00    -0.372 C  
HETATM   11  C   UNL     1     -11.518   7.017  70.502  1.00  0.00    -0.363 C  
HETATM   12  C   UNL     1     -11.303   8.385  71.203  1.00  0.00    -0.310 C  
HETATM   13  C   UNL     1     -12.544   8.593  72.123  1.00  0.00    -0.451 C  
HETATM   14  C   UNL     1     -13.227   9.949  72.165  1.00  0.00    -0.511 C  
ENDBRANCH   5   6
ENDBRANCH   2   4
BRANCH   3  15
HETATM   15  C   UNL     1     -10.252  10.558  65.414  1.00  0.00    -0.340 C  
HETATM   16  C   UNL     1     -10.479  11.124  64.219  1.00  0.00    -0.427 C  
BRANCH  16  17
HETATM   17  C   UNL     1     -11.310  12.315  64.076  1.00  0.00    -0.469 C  
HETATM   18  C   UNL     1     -11.599  14.777  64.457  1.00  0.00    -0.361 C  
HETATM   19  O   UNL     1     -12.720  14.918  64.004  1.00  0.00    -0.792 OA 
HETATM   20  C   UNL     1     -10.846  13.506  64.513  1.00  0.00    -0.422 C  
HETATM   21  C   UNL     1     -12.651  12.104  63.426  1.00  0.00    -0.584 C  
HETATM   22  O   UNL     1     -10.890  15.797  64.988  1.00  0.00    -0.419 OA 
ENDBRANCH  16  17
ENDBRANCH   3  15
TORSDOF 4
ENDMDL
MODEL        6
REMARK 921   NORMALIZED FREE ENERGY PREDICTED BY IDOCK:   -6.42 KCAL/MOL
REMARK 922        TOTAL FREE ENERGY PREDICTED BY IDOCK:   -9.31 KCAL/MOL
REMARK 923 INTER-LIGAND FREE ENERGY PREDICTED BY IDOCK:   -8.09 KCAL/MOL
REMARK 924 INTRA-LIGAND FREE ENERGY PREDICTED BY IDOCK:   -1.22 KCAL/MOL
REMARK 927      BINDING AFFINITY PREDICTED BY RF-SCORE:    0.00 PKD
ROOT
HETATM    1  C   UNL     1     -11.752  15.900  71.518  1.00  0.00    -0.545 C  
HETATM    2  C   UNL     1     -11.673  15.480  70.076  1.00  0.00    -0.363 C  
HETATM    3  C   UNL     1     -12.218  14.310  69.677  1.00  0.00    -0.371 C  
ENDROOT
BRANCH   2   4
HETATM    4  C   UNL     1     -11.040  16.411  69.151  1.00  0.00    -0.303 C  
HETATM    5  C   UNL     1      -9.719  16.629  69.053  1.00  0.00    -0.260 C  
BRANCH   5   6
HETATM    6  C   UNL     1      -9.078  17.502  68.057  1.00  0.00    -0.269 C  
HETATM    7  C   UNL     1      -9.175  16.049  65.963  1.00  0.00    -0.375 C  
HETATM    8  C   UNL     1      -9.164  18.841  68.191  1.00  0.00    -0.348 C  
HETATM    9  C   UNL     1      -8.476  19.818  67.278  1.00  0.00    -0.363 C  
HETATM   10  C   UNL     1      -9.950  19.553  69.273  1.00  0.00    -0.344 C  
HETATM   11  C   UNL     1      -7.270  15.797  67.569  1.00  0.00    -0.212 C  
HETATM   12  C   UNL     1      -8.254  16.820  66.941  1.00  0.00    -0.244 C  
HETATM   13  C   UNL     1      -7.380  17.782  66.081  1.00  0.00    -0.335 C  
HETATM   14  C   UNL     1      -7.630  19.278  66.143  1.00  0.00    -0.303 C  
ENDBRANCH   5   6
ENDBRANCH   2   4
BRANCH   3  15
HETATM   15  C   UNL     1     -12.159  13.782  68.332  1.00  0.00    -0.324 C  
HETATM   16  C   UNL     1     -11.352  12.791  67.921  1.00  0.00    -0.339 C  
BRANCH  16  17
HETATM   17  C   UNL     1     -11.305  12.365  66.525  1.00  0.00    -0.392 C  
HETATM   18  C   UNL     1     -11.931  12.800  64.137  1.00  0.00    -0.427 C  
HETATM   19  O   UNL     1     -11.455  11.804  63.622  1.00  0.00    -0.420 OA 
HETATM   20  C   UNL     1     -11.881  13.133  65.576  1.00  0.00    -0.420 C  
HETATM   21  C   UNL     1     -10.588  11.069  66.262  1.00  0.00    -0.295 C  
HETATM   22  O   UNL     1     -12.592  13.743  63.431  1.00  0.00    -0.842 OA 
ENDBRANCH  16  17
ENDBRANCH   3  15
TORSDOF 4
ENDMDL
MODEL        7
REMARK 921   NORMALIZED FREE ENERGY PREDICTED BY IDOCK:   -6.39 KCAL/MOL
REMARK 922        TOTAL FREE ENERGY PREDICTED BY IDOCK:   -9.28 KCAL/MOL
REMARK 923 INTER-LIGAND FREE ENERGY PREDICTED BY IDOCK:   -8.28 KCAL/MOL
REMARK 924 INTRA-LIGAND FREE ENERGY PREDICTED BY IDOCK:   -0.99 KCAL/MOL
REMARK 927      BINDING AFFINITY PREDICTED BY RF-SCORE:    0.00 PKD
ROOT
HETATM    1  C   UNL     1     -13.195  13.239  72.172  1.00  0.00    -0.562 C  
HETATM    2  C   UNL     1     -12.597  12.867  70.843  1.00  0.00    -0.355 C  
HETATM    3  C   UNL     1     -12.123  13.827  70.018  1.00  0.00    -0.416 C  
ENDROOT
BRANCH   2   4
HETATM    4  C   UNL     1     -12.512  11.447  70.531  1.00  0.00    -0.381 C  
HETATM    5  C   UNL     1     -11.422  10.680  70.696  1.00  0.00    -0.374 C  
BRANCH   5   6
HETATM    6  C   UNL     1     -11.368   9.228  70.465  1.00  0.00    -0.306 C  
HETATM    7  C   UNL     1      -8.985   8.936  69.604  1.00  0.00    -0.147 C  
HETATM    8  C   UNL     1     -12.130   8.404  71.213  1.00  0.00    -0.315 C  
HETATM    9  C   UNL     1     -12.209   6.918  71.001  1.00  0.00    -0.427 C  
HETATM   10  C   UNL     1     -13.013   8.850  72.361  1.00  0.00    -0.467 C  
HETATM   11  C   UNL     1     -10.823   9.534  68.010  1.00  0.00    -0.225 C  
HETATM   12  C   UNL     1     -10.488   8.729  69.295  1.00  0.00    -0.228 C  
HETATM   13  C   UNL     1     -10.674   7.228  68.920  1.00  0.00    -0.173 C  
HETATM   14  C   UNL     1     -11.398   6.300  69.880  1.00  0.00    -0.504 C  
ENDBRANCH   5   6
ENDBRANCH   2   4
BRANCH   3  15
HETATM   15  C   UNL     1     -11.574  13.593  68.701  1.00  0.00    -0.364 C  
HETATM   16  C   UNL     1     -12.268  13.632  67.553  1.00  0.00    -0.259 C  
BRANCH  16  17
HETATM   17  C   UNL     1     -11.651  13.314  66.268  1.00  0.00    -0.384 C  
HETATM   18  C   UNL     1     -11.910  12.442  63.932  1.00  0.00    -0.466 C  
HETATM   19  O   UNL     1     -10.752  12.514  63.563  1.00  0.00    -0.435 OA 
HETATM   20  C   UNL     1     -12.415  12.831  65.265  1.00  0.00    -0.528 C  
HETATM   21  C   UNL     1     -10.172  13.571  66.172  1.00  0.00    -0.303 C  
HETATM   22  O   UNL     1     -12.901  11.971  63.144  1.00  0.00    -0.661 OA 
ENDBRANCH  16  17
ENDBRANCH   3  15
TORSDOF 4
ENDMDL
MODEL        8
REMARK 921   NORMALIZED FREE ENERGY PREDICTED BY IDOCK:   -6.38 KCAL/MOL
REMARK 922        TOTAL FREE ENERGY PREDICTED BY IDOCK:   -9.27 KCAL/MOL
REMARK 923 INTER-LIGAND FREE ENERGY PREDICTED BY IDOCK:   -8.10 KCAL/MOL
REMARK 924 INTRA-LIGAND FREE ENERGY PREDICTED BY IDOCK:   -1.17 KCAL/MOL
REMARK 927      BINDING AFFINITY PREDICTED BY RF-SCORE:    0.00 PKD
ROOT
HETATM    1  C   UNL     1     -13.227  12.620  72.260  1.00  0.00    -0.465 C  
HETATM    2  C   UNL     1     -12.614  12.358  70.912  1.00  0.00    -0.337 C  
HETATM    3  C   UNL     1     -12.150  13.383  70.165  1.00  0.00    -0.415 C  
ENDROOT
BRANCH   2   4
HETATM    4  C   UNL     1     -12.503  10.965  70.497  1.00  0.00    -0.438 C  
HETATM    5  C   UNL     1     -11.422  10.188  70.670  1.00  0.00    -0.432 C  
BRANCH   5   6
HETATM    6  C   UNL     1     -11.347   8.759  70.330  1.00  0.00    -0.213 C  
HETATM    7  C   UNL     1     -13.337   7.820  71.618  1.00  0.00    -0.386 C  
HETATM    8  C   UNL     1     -10.819   8.381  69.147  1.00  0.00    -0.042 C  
HETATM    9  C   UNL     1     -10.620   6.947  68.741  1.00  0.00    -0.247 C  
HETATM   10  C   UNL     1     -10.349   9.334  68.068  1.00  0.00    -0.270 C  
HETATM   11  C   UNL     1     -11.124   8.085  72.761  1.00  0.00    -0.448 C  
HETATM   12  C   UNL     1     -11.805   7.749  71.407  1.00  0.00    -0.324 C  
HETATM   13  C   UNL     1     -11.454   6.259  71.110  1.00  0.00    -0.362 C  
HETATM   14  C   UNL     1     -11.024   5.856  69.711  1.00  0.00    -0.452 C  
ENDBRANCH   5   6
ENDBRANCH   2   4
BRANCH   3  15
HETATM   15  C   UNL     1     -11.588  13.255  68.838  1.00  0.00    -0.357 C  
HETATM   16  C   UNL     1     -12.276  13.364  67.690  1.00  0.00    -0.202 C  
BRANCH  16  17
HETATM   17  C   UNL     1     -11.645  13.152  66.391  1.00  0.00    -0.394 C  
HETATM   18  C   UNL     1     -11.805  13.278  63.892  1.00  0.00    -0.465 C  
HETATM   19  O   UNL     1     -10.716  12.818  63.599  1.00  0.00    -0.407 OA 
HETATM   20  C   UNL     1     -12.317  13.473  65.265  1.00  0.00    -0.506 C  
HETATM   21  C   UNL     1     -10.252  12.584  66.426  1.00  0.00    -0.260 C  
HETATM   22  O   UNL     1     -12.707  13.669  62.966  1.00  0.00    -0.681 OA 
ENDBRANCH  16  17
ENDBRANCH   3  15
TORSDOF 4
ENDMDL
MODEL        9
REMARK 921   NORMALIZED FREE ENERGY PREDICTED BY IDOCK:   -6.28 KCAL/MOL
REMARK 922        TOTAL FREE ENERGY PREDICTED BY IDOCK:   -9.15 KCAL/MOL
REMARK 923 INTER-LIGAND FREE ENERGY PREDICTED BY IDOCK:   -8.02 KCAL/MOL
REMARK 924 INTRA-LIGAND FREE ENERGY PREDICTED BY IDOCK:   -1.13 KCAL/MOL
REMARK 927      BINDING AFFINITY PREDICTED BY RF-SCORE:    0.00 PKD
ROOT
HETATM    1  C   UNL     1     -12.379  12.663  70.770  1.00  0.00    -0.372 C  
HETATM    2  C   UNL     1     -11.906  13.552  69.653  1.00  0.00    -0.398 C  
HETATM    3  C   UNL     1     -12.110  14.886  69.713  1.00  0.00    -0.357 C  
ENDROOT
BRANCH   2   4
HETATM    4  C   UNL     1     -11.187  12.913  68.559  1.00  0.00    -0.310 C  
HETATM    5  C   UNL     1     -11.732  12.090  67.649  1.00  0.00    -0.365 C  
BRANCH   5   6
HETATM    6  C   UNL     1     -11.021  11.518  66.494  1.00  0.00    -0.346 C  
HETATM    7  C   UNL     1     -10.220  13.621  65.294  1.00  0.00    -0.341 C  
HETATM    8  C   UNL     1     -10.445  10.304  66.600  1.00  0.00    -0.260 C  
HETATM    9  C   UNL     1      -9.769   9.597  65.457  1.00  0.00    -0.372 C  
HETATM   10  C   UNL     1     -10.397   9.478  67.869  1.00  0.00    -0.276 C  
HETATM   11  C   UNL     1     -12.516  12.726  64.844  1.00  0.00    -0.563 C  
HETATM   12  C   UNL     1     -11.054  12.321  65.173  1.00  0.00    -0.361 C  
HETATM   13  C   UNL     1     -10.529  11.557  63.920  1.00  0.00    -0.439 C  
HETATM   14  C   UNL     1      -9.736  10.275  64.103  1.00  0.00    -0.357 C  
ENDBRANCH   5   6
ENDBRANCH   2   4
BRANCH   3  15
HETATM   15  C   UNL     1     -11.745  15.830  68.679  1.00  0.00    -0.353 C  
HETATM   16  C   UNL     1     -10.691  16.660  68.723  1.00  0.00    -0.342 C  
BRANCH  16  17
HETATM   17  C   UNL     1     -10.433  17.633  67.665  1.00  0.00    -0.372 C  
HETATM   18  C   UNL     1      -9.951  20.006  67.017  1.00  0.00    -0.445 C  
HETATM   19  O   UNL     1      -9.923  19.880  65.807  1.00  0.00    -0.408 OA 
HETATM   20  C   UNL     1     -10.195  18.921  67.991  1.00  0.00    -0.452 C  
HETATM   21  C   UNL     1     -10.446  17.091  66.261  1.00  0.00    -0.258 C  
HETATM   22  O   UNL     1      -9.768  21.194  67.634  1.00  0.00    -0.274 OA 
ENDBRANCH  16  17
ENDBRANCH   3  15
TORSDOF 4
ENDMDL
MODEL       10
REMARK 921   NORMALIZED FREE ENERGY PREDICTED BY IDOCK:   -6.25 KCAL/MOL
REMARK 922        TOTAL FREE ENERGY PREDICTED BY IDOCK:   -9.11 KCAL/MOL
REMARK 923 INTER-LIGAND FREE ENERGY PREDICTED BY IDOCK:   -8.02 KCAL/MOL
REMARK 924 INTRA-LIGAND FREE ENERGY PREDICTED BY IDOCK:   -1.09 KCAL/MOL
REMARK 927      BINDING AFFINITY PREDICTED BY RF-SCORE:    0.00 PKD
ROOT
HETATM    1  C   UNL     1     -12.199  14.389  69.950  1.00  0.00    -0.394 C  
HETATM    2  C   UNL     1     -11.885  12.930  69.762  1.00  0.00    -0.380 C  
HETATM    3  C   UNL     1     -12.290  12.024  70.679  1.00  0.00    -0.394 C  
ENDROOT
BRANCH   2   4
HETATM    4  C   UNL     1     -11.187  12.556  68.539  1.00  0.00    -0.322 C  
HETATM    5  C   UNL     1     -11.763  12.027  67.448  1.00  0.00    -0.352 C  
BRANCH   5   6
HETATM    6  C   UNL     1     -11.069  11.735  66.184  1.00  0.00    -0.358 C  
HETATM    7  C   UNL     1     -10.417  14.074  65.405  1.00  0.00    -0.365 C  
HETATM    8  C   UNL     1     -10.430  10.557  66.030  1.00  0.00    -0.226 C  
HETATM    9  C   UNL     1      -9.764  10.129  64.752  1.00  0.00    -0.389 C  
HETATM   10  C   UNL     1     -10.295   9.501  67.108  1.00  0.00    -0.320 C  
HETATM   11  C   UNL     1     -12.681  13.160  64.847  1.00  0.00    -0.421 C  
HETATM   12  C   UNL     1     -11.190  12.780  65.051  1.00  0.00    -0.333 C  
HETATM   13  C   UNL     1     -10.675  12.309  63.657  1.00  0.00    -0.513 C  
HETATM   14  C   UNL     1      -9.814  11.062  63.559  1.00  0.00    -0.403 C  
ENDBRANCH   5   6
ENDBRANCH   2   4
BRANCH   3  15
HETATM   15  C   UNL     1     -12.004  10.607  70.628  1.00  0.00    -0.466 C  
HETATM   16  C   UNL     1     -11.909   9.796  71.694  1.00  0.00    -0.429 C  
BRANCH  16  17
HETATM   17  C   UNL     1     -11.547   8.388  71.560  1.00  0.00    -0.338 C  
HETATM   18  C   UNL     1     -11.187   6.408  70.065  1.00  0.00    -0.411 C  
HETATM   19  O   UNL     1     -10.910   5.571  70.905  1.00  0.00    -0.246 OA 
HETATM   20  C   UNL     1     -11.507   7.825  70.333  1.00  0.00    -0.171 C  
HETATM   21  C   UNL     1     -11.231   7.669  72.843  1.00  0.00    -0.426 C  
HETATM   22  O   UNL     1     -11.248   6.126  68.744  1.00  0.00    -0.367 OA 
ENDBRANCH  16  17
ENDBRANCH   3  15
TORSDOF 4
ENDMDL
MODEL       11
REMARK 921   NORMALIZED FREE ENERGY PREDICTED BY IDOCK:   -6.22 KCAL/MOL
REMARK 922        TOTAL FREE ENERGY PREDICTED BY IDOCK:   -9.07 KCAL/MOL
REMARK 923 INTER-LIGAND FREE ENERGY PREDICTED BY IDOCK:   -7.77 KCAL/MOL
REMARK 924 INTRA-LIGAND FREE ENERGY PREDICTED BY IDOCK:   -1.29 KCAL/MOL
REMARK 927      BINDING AFFINITY PREDICTED BY RF-SCORE:    0.00 PKD
ROOT
HETATM    1  C   UNL     1     -12.447  13.617  70.597  1.00  0.00    -0.417 C  
HETATM    2  C   UNL     1     -11.553  14.426  69.698  1.00  0.00    -0.343 C  
HETATM    3  C   UNL     1     -11.267  15.711  70.003  1.00  0.00    -0.332 C  
ENDROOT
BRANCH   2   4
HETATM    4  C   UNL     1     -10.987  13.745  68.541  1.00  0.00    -0.283 C  
HETATM    5  C   UNL     1     -11.696  13.167  67.559  1.00  0.00    -0.414 C  
BRANCH   5   6
HETATM    6  C   UNL     1     -11.122  12.559  66.348  1.00  0.00    -0.332 C  
HETATM    7  C   UNL     1     -10.100  14.589  65.191  1.00  0.00    -0.361 C  
HETATM    8  C   UNL     1     -10.710  11.275  66.377  1.00  0.00    -0.320 C  
HETATM    9  C   UNL     1     -10.188  10.538  65.176  1.00  0.00    -0.358 C  
HETATM   10  C   UNL     1     -10.717  10.394  67.610  1.00  0.00    -0.335 C  
HETATM   11  C   UNL     1     -12.514  14.027  64.824  1.00  0.00    -0.392 C  
HETATM   12  C   UNL     1     -11.106  13.418  65.063  1.00  0.00    -0.332 C  
HETATM   13  C   UNL     1     -10.745  12.649  63.756  1.00  0.00    -0.454 C  
HETATM   14  C   UNL     1     -10.124  11.266  63.848  1.00  0.00    -0.392 C  
ENDBRANCH   5   6
ENDBRANCH   2   4
BRANCH   3  15
HETATM   15  C   UNL     1     -10.463  16.598  69.190  1.00  0.00    -0.333 C  
HETATM   16  C   UNL     1     -10.816  17.082  67.989  1.00  0.00    -0.330 C  
BRANCH  16  17
HETATM   17  C   UNL     1      -9.915  17.918  67.201  1.00  0.00    -0.327 C  
HETATM   18  C   UNL     1      -7.646  18.245  66.185  1.00  0.00    -0.241 C  
HETATM   19  O   UNL     1      -7.805  19.347  65.693  1.00  0.00    -0.436 OA 
HETATM   20  C   UNL     1      -8.663  17.484  66.941  1.00  0.00    -0.269 C  
HETATM   21  C   UNL     1     -10.484  19.228  66.727  1.00  0.00    -0.544 C  
HETATM   22  O   UNL     1      -6.479  17.569  66.103  1.00  0.00    -0.228 OA 
ENDBRANCH  16  17
ENDBRANCH   3  15
TORSDOF 4
ENDMDL
MODEL       12
REMARK 921   NORMALIZED FREE ENERGY PREDICTED BY IDOCK:   -6.21 KCAL/MOL
REMARK 922        TOTAL FREE ENERGY PREDICTED BY IDOCK:   -9.06 KCAL/MOL
REMARK 923 INTER-LIGAND FREE ENERGY PREDICTED BY IDOCK:   -8.12 KCAL/MOL
REMARK 924 INTRA-LIGAND FREE ENERGY PREDICTED BY IDOCK:   -0.94 KCAL/MOL
REMARK 927      BINDING AFFINITY PREDICTED BY RF-SCORE:    0.00 PKD
ROOT
HETATM    1  C   UNL     1     -11.927  15.288  69.498  1.00  0.00    -0.356 C  
HETATM    2  C   UNL     1     -12.031  13.788  69.501  1.00  0.00    -0.399 C  
HETATM    3  C   UNL     1     -12.275  13.125  70.653  1.00  0.00    -0.402 C  
ENDROOT
BRANCH   2   4
HETATM    4  C   UNL     1     -11.910  13.115  68.214  1.00  0.00    -0.384 C  
HETATM    5  C   UNL     1     -10.928  13.319  67.322  1.00  0.00    -0.284 C  
BRANCH   5   6
HETATM    6  C   UNL     1     -10.761  12.573  66.064  1.00  0.00    -0.292 C  
HETATM    7  C   UNL     1     -10.480  10.186  66.918  1.00  0.00    -0.286 C  
HETATM    8  C   UNL     1     -11.339  13.031  64.935  1.00  0.00    -0.332 C  
HETATM    9  C   UNL     1     -11.162  12.390  63.587  1.00  0.00    -0.544 C  
HETATM   10  C   UNL     1     -12.239  14.247  64.857  1.00  0.00    -0.449 C  
HETATM   11  C   UNL     1      -8.489  11.698  66.762  1.00  0.00    -0.177 C  
HETATM   12  C   UNL     1      -9.841  11.331  66.094  1.00  0.00    -0.262 C  
HETATM   13  C   UNL     1      -9.481  10.740  64.697  1.00  0.00    -0.297 C  
HETATM   14  C   UNL     1     -10.277  11.165  63.476  1.00  0.00    -0.446 C  
ENDBRANCH   5   6
ENDBRANCH   2   4
BRANCH   3  15
HETATM   15  C   UNL     1     -12.345  11.686  70.784  1.00  0.00    -0.454 C  
HETATM   16  C   UNL     1     -13.026  11.026  71.734  1.00  0.00    -0.544 C  
BRANCH  16  17
HETATM   17  C   UNL     1     -12.988   9.570  71.837  1.00  0.00    -0.514 C  
HETATM   18  C   UNL     1     -11.703   7.439  71.530  1.00  0.00    -0.284 C  
HETATM   19  O   UNL     1     -12.557   6.641  71.868  1.00  0.00    -0.350 OA 
HETATM   20  C   UNL     1     -11.860   8.909  71.501  1.00  0.00    -0.402 C  
HETATM   21  C   UNL     1     -14.249   8.917  72.334  1.00  0.00    -0.452 C  
HETATM   22  O   UNL     1     -10.472   7.064  71.118  1.00  0.00    -0.211 OA 
ENDBRANCH  16  17
ENDBRANCH   3  15
TORSDOF 4
ENDMDL
MODEL       13
REMARK 921   NORMALIZED FREE ENERGY PREDICTED BY IDOCK:   -6.13 KCAL/MOL
REMARK 922        TOTAL FREE ENERGY PREDICTED BY IDOCK:   -8.96 KCAL/MOL
REMARK 923 INTER-LIGAND FREE ENERGY PREDICTED BY IDOCK:   -7.73 KCAL/MOL
REMARK 924 INTRA-LIGAND FREE ENERGY PREDICTED BY IDOCK:   -1.23 KCAL/MOL
REMARK 927      BINDING AFFINITY PREDICTED BY RF-SCORE:    0.00 PKD
ROOT
HETATM    1  C   UNL     1      -9.886  12.241  66.556  1.00  0.00    -0.240 C  
HETATM    2  C   UNL     1     -10.804  12.594  67.694  1.00  0.00    -0.248 C  
HETATM    3  C   UNL     1     -11.203  13.873  67.874  1.00  0.00    -0.302 C  
ENDROOT
BRANCH   2   4
HETATM    4  C   UNL     1     -11.268  11.497  68.533  1.00  0.00    -0.315 C  
HETATM    5  C   UNL     1     -10.600  10.985  69.578  1.00  0.00    -0.182 C  
BRANCH   5   6
HETATM    6  C   UNL     1     -11.112   9.938  70.478  1.00  0.00    -0.398 C  
HETATM    7  C   UNL     1      -8.998   8.593  70.954  1.00  0.00    -0.227 C  
HETATM    8  C   UNL     1     -12.174  10.198  71.267  1.00  0.00    -0.496 C  
HETATM    9  C   UNL     1     -12.823   9.176  72.157  1.00  0.00    -0.486 C  
HETATM   10  C   UNL     1     -12.866  11.542  71.369  1.00  0.00    -0.489 C  
HETATM   11  C   UNL     1     -10.367   8.086  68.918  1.00  0.00    -0.222 C  
HETATM   12  C   UNL     1     -10.443   8.547  70.399  1.00  0.00    -0.227 C  
HETATM   13  C   UNL     1     -11.188   7.410  71.162  1.00  0.00    -0.279 C  
HETATM   14  C   UNL     1     -12.267   7.766  72.170  1.00  0.00    -0.325 C  
ENDBRANCH   5   6
ENDBRANCH   2   4
BRANCH   3  15
HETATM   15  C   UNL     1     -12.040  14.336  68.959  1.00  0.00    -0.320 C  
HETATM   16  C   UNL     1     -11.600  14.921  70.084  1.00  0.00    -0.333 C  
BRANCH  16  17
HETATM   17  C   UNL     1     -12.509  15.297  71.163  1.00  0.00    -0.438 C  
HETATM   18  C   UNL     1     -12.819  16.258  73.457  1.00  0.00    -0.464 C  
HETATM   19  O   UNL     1     -14.026  16.138  73.563  1.00  0.00    -0.408 OA 
HETATM   20  C   UNL     1     -12.013  15.862  72.284  1.00  0.00    -0.617 C  
HETATM   21  C   UNL     1     -13.967  15.019  70.916  1.00  0.00    -0.208 C  
HETATM   22  O   UNL     1     -12.047  16.775  74.438  1.00  0.00    -0.509 OA 
ENDBRANCH  16  17
ENDBRANCH   3  15
TORSDOF 4
ENDMDL
MODEL       14
REMARK 921   NORMALIZED FREE ENERGY PREDICTED BY IDOCK:   -6.07 KCAL/MOL
REMARK 922        TOTAL FREE ENERGY PREDICTED BY IDOCK:   -8.89 KCAL/MOL
REMARK 923 INTER-LIGAND FREE ENERGY PREDICTED BY IDOCK:   -8.07 KCAL/MOL
REMARK 924 INTRA-LIGAND FREE ENERGY PREDICTED BY IDOCK:   -0.82 KCAL/MOL
REMARK 927      BINDING AFFINITY PREDICTED BY RF-SCORE:    0.00 PKD
ROOT
HETATM    1  C   UNL     1     -10.260  17.751  67.731  1.00  0.00    -0.362 C  
HETATM    2  C   UNL     1     -10.597  16.373  68.231  1.00  0.00    -0.318 C  
HETATM    3  C   UNL     1     -11.074  16.203  69.484  1.00  0.00    -0.344 C  
ENDROOT
BRANCH   2   4
HETATM    4  C   UNL     1     -10.435  15.271  67.292  1.00  0.00    -0.275 C  
HETATM    5  C   UNL     1     -11.420  14.464  66.867  1.00  0.00    -0.379 C  
BRANCH   5   6
HETATM    6  C   UNL     1     -11.269  13.410  65.851  1.00  0.00    -0.314 C  
HETATM    7  C   UNL     1     -11.407  11.300  67.276  1.00  0.00    -0.329 C  
HETATM    8  C   UNL     1     -11.687  13.636  64.589  1.00  0.00    -0.414 C  
HETATM    9  C   UNL     1     -11.503  12.660  63.461  1.00  0.00    -0.557 C  
HETATM   10  C   UNL     1     -12.390  14.895  64.124  1.00  0.00    -0.212 C  
HETATM   11  C   UNL     1      -9.209  12.466  66.983  1.00  0.00    -0.208 C  
HETATM   12  C   UNL     1     -10.546  12.112  66.277  1.00  0.00    -0.285 C  
HETATM   13  C   UNL     1     -10.172  11.149  65.111  1.00  0.00    -0.347 C  
HETATM   14  C   UNL     1     -10.803  11.347  63.744  1.00  0.00    -0.468 C  
ENDBRANCH   5   6
ENDBRANCH   2   4
BRANCH   3  15
HETATM   15  C   UNL     1     -11.384  14.925  70.088  1.00  0.00    -0.299 C  
HETATM   16  C   UNL     1     -12.612  14.506  70.430  1.00  0.00    -0.405 C  
BRANCH  16  17
HETATM   17  C   UNL     1     -12.830  13.227  71.100  1.00  0.00    -0.363 C  
HETATM   18  C   UNL     1     -12.409  10.757  71.178  1.00  0.00    -0.393 C  
HETATM   19  O   UNL     1     -13.080  10.471  72.152  1.00  0.00    -0.459 OA 
HETATM   20  C   UNL     1     -12.243  12.113  70.614  1.00  0.00    -0.392 C  
HETATM   21  C   UNL     1     -13.712  13.270  72.319  1.00  0.00    -0.686 C  
HETATM   22  O   UNL     1     -11.721   9.837  70.467  1.00  0.00    -0.266 OA 
ENDBRANCH  16  17
ENDBRANCH   3  15
TORSDOF 4
ENDMDL
MODEL       15
REMARK 921   NORMALIZED FREE ENERGY PREDICTED BY IDOCK:   -6.06 KCAL/MOL
REMARK 922        TOTAL FREE ENERGY PREDICTED BY IDOCK:   -8.87 KCAL/MOL
REMARK 923 INTER-LIGAND FREE ENERGY PREDICTED BY IDOCK:   -7.93 KCAL/MOL
REMARK 924 INTRA-LIGAND FREE ENERGY PREDICTED BY IDOCK:   -0.94 KCAL/MOL
REMARK 927      BINDING AFFINITY PREDICTED BY RF-SCORE:    0.00 PKD
ROOT
HETATM    1  C   UNL     1     -12.639  12.672  71.343  1.00  0.00    -0.304 C  
HETATM    2  C   UNL     1     -12.275  13.542  70.172  1.00  0.00    -0.400 C  
HETATM    3  C   UNL     1     -12.007  14.853  70.357  1.00  0.00    -0.368 C  
ENDROOT
BRANCH   2   4
HETATM    4  C   UNL     1     -12.178  12.893  68.871  1.00  0.00    -0.044 C  
HETATM    5  C   UNL     1     -11.189  13.080  67.983  1.00  0.00    -0.310 C  
BRANCH   5   6
HETATM    6  C   UNL     1     -11.048  12.355  66.710  1.00  0.00    -0.333 C  
HETATM    7  C   UNL     1     -10.704   9.961  67.518  1.00  0.00    -0.333 C  
HETATM    8  C   UNL     1     -11.668  12.820  65.606  1.00  0.00    -0.443 C  
HETATM    9  C   UNL     1     -11.521  12.203  64.244  1.00  0.00    -0.437 C  
HETATM   10  C   UNL     1     -12.589  14.023  65.575  1.00  0.00    -0.543 C  
HETATM   11  C   UNL     1      -8.742  11.508  67.326  1.00  0.00    -0.151 C  
HETATM   12  C   UNL     1     -10.108  11.128  66.693  1.00  0.00    -0.256 C  
HETATM   13  C   UNL     1      -9.781  10.564  65.277  1.00  0.00    -0.328 C  
HETATM   14  C   UNL     1     -10.622  10.994  64.087  1.00  0.00    -0.412 C  
ENDBRANCH   5   6
ENDBRANCH   2   4
BRANCH   3  15
HETATM   15  C   UNL     1     -11.696  15.794  69.303  1.00  0.00    -0.384 C  
HETATM   16  C   UNL     1     -10.562  16.506  69.208  1.00  0.00    -0.327 C  
BRANCH  16  17
HETATM   17  C   UNL     1     -10.356  17.488  68.147  1.00  0.00    -0.375 C  
HETATM   18  C   UNL     1     -10.608  18.106  65.731  1.00  0.00    -0.175 C  
HETATM   19  O   UNL     1     -10.071  19.198  65.747  1.00  0.00    -0.479 OA 
HETATM   20  C   UNL     1     -10.783  17.214  66.896  1.00  0.00    -0.121 C  
HETATM   21  C   UNL     1      -9.672  18.763  68.560  1.00  0.00    -0.426 C  
HETATM   22  O   UNL     1     -11.115  17.557  64.605  1.00  0.00    -0.978 OA 
ENDBRANCH  16  17
ENDBRANCH   3  15
TORSDOF 4
ENDMDL
MODEL       16
REMARK 921   NORMALIZED FREE ENERGY PREDICTED BY IDOCK:   -6.06 KCAL/MOL
REMARK 922        TOTAL FREE ENERGY PREDICTED BY IDOCK:   -8.87 KCAL/MOL
REMARK 923 INTER-LIGAND FREE ENERGY PREDICTED BY IDOCK:   -7.89 KCAL/MOL
REMARK 924 INTRA-LIGAND FREE ENERGY PREDICTED BY IDOCK:   -0.98 KCAL/MOL
REMARK 927      BINDING AFFINITY PREDICTED BY RF-SCORE:    0.00 PKD
ROOT
HETATM    1  C   UNL     1     -10.226  10.666  65.914  1.00  0.00    -0.314 C  
HETATM    2  C   UNL     1     -10.861  11.196  67.169  1.00  0.00    -0.326 C  
HETATM    3  C   UNL     1     -11.253  12.487  67.240  1.00  0.00    -0.347 C  
ENDROOT
BRANCH   2   4
HETATM    4  C   UNL     1     -11.073  10.247  68.254  1.00  0.00    -0.311 C  
HETATM    5  C   UNL     1     -10.450  10.277  69.443  1.00  0.00    -0.259 C  
BRANCH   5   6
HETATM    6  C   UNL     1     -10.732   9.371  70.568  1.00  0.00    -0.335 C  
HETATM    7  C   UNL     1      -8.380   8.831  71.393  1.00  0.00    -0.222 C  
HETATM    8  C   UNL     1     -11.887   9.498  71.253  1.00  0.00    -0.450 C  
HETATM    9  C   UNL     1     -12.306   8.572  72.361  1.00  0.00    -0.424 C  
HETATM   10  C   UNL     1     -12.923  10.575  71.008  1.00  0.00    -0.475 C  
HETATM   11  C   UNL     1      -9.387   7.493  69.529  1.00  0.00    -0.153 C  
HETATM   12  C   UNL     1      -9.707   8.248  70.848  1.00  0.00    -0.204 C  
HETATM   13  C   UNL     1     -10.177   7.160  71.860  1.00  0.00    -0.208 C  
HETATM   14  C   UNL     1     -11.392   7.423  72.732  1.00  0.00    -0.356 C  
ENDBRANCH   5   6
ENDBRANCH   2   4
BRANCH   3  15
HETATM   15  C   UNL     1     -11.827  13.117  68.409  1.00  0.00    -0.386 C  
HETATM   16  C   UNL     1     -11.234  14.067  69.149  1.00  0.00    -0.308 C  
BRANCH  16  17
HETATM   17  C   UNL     1     -11.856  14.602  70.357  1.00  0.00    -0.365 C  
HETATM   18  C   UNL     1     -13.492  14.298  72.231  1.00  0.00    -0.457 C  
HETATM   19  O   UNL     1     -13.352  15.369  72.794  1.00  0.00    -0.425 OA 
HETATM   20  C   UNL     1     -12.769  13.861  71.019  1.00  0.00    -0.428 C  
HETATM   21  C   UNL     1     -11.399  15.974  70.774  1.00  0.00    -0.427 C  
HETATM   22  O   UNL     1     -14.361  13.356  72.658  1.00  0.00    -0.709 OA 
ENDBRANCH  16  17
ENDBRANCH   3  15
TORSDOF 4
ENDMDL
MODEL       17
REMARK 921   NORMALIZED FREE ENERGY PREDICTED BY IDOCK:   -6.05 KCAL/MOL
REMARK 922        TOTAL FREE ENERGY PREDICTED BY IDOCK:   -8.87 KCAL/MOL
REMARK 923 INTER-LIGAND FREE ENERGY PREDICTED BY IDOCK:   -7.69 KCAL/MOL
REMARK 924 INTRA-LIGAND FREE ENERGY PREDICTED BY IDOCK:   -1.18 KCAL/MOL
REMARK 927      BINDING AFFINITY PREDICTED BY RF-SCORE:    0.00 PKD
ROOT
HETATM    1  C   UNL     1     -10.148  11.229  65.441  1.00  0.00    -0.314 C  
HETATM    2  C   UNL     1     -10.828  11.576  66.736  1.00  0.00    -0.330 C  
HETATM    3  C   UNL     1     -11.154  12.859  67.010  1.00  0.00    -0.309 C  
ENDROOT
BRANCH   2   4
HETATM    4  C   UNL     1     -11.154  10.471  67.629  1.00  0.00    -0.375 C  
HETATM    5  C   UNL     1     -10.296   9.520  68.029  1.00  0.00    -0.260 C  
BRANCH   5   6
HETATM    6  C   UNL     1     -10.605   8.458  69.000  1.00  0.00    -0.172 C  
HETATM    7  C   UNL     1     -11.607   9.799  70.924  1.00  0.00    -0.441 C  
HETATM    8  C   UNL     1     -10.896   7.216  68.561  1.00  0.00    -0.141 C  
HETATM    9  C   UNL     1     -11.144   6.045  69.471  1.00  0.00    -0.468 C  
HETATM   10  C   UNL     1     -11.010   6.820  67.103  1.00  0.00    -0.458 C  
HETATM   11  C   UNL     1      -9.124   9.501  70.771  1.00  0.00    -0.176 C  
HETATM   12  C   UNL     1     -10.490   8.814  70.500  1.00  0.00    -0.246 C  
HETATM   13  C   UNL     1     -10.559   7.600  71.476  1.00  0.00    -0.239 C  
HETATM   14  C   UNL     1     -11.056   6.258  70.968  1.00  0.00    -0.357 C  
ENDBRANCH   5   6
ENDBRANCH   2   4
BRANCH   3  15
HETATM   15  C   UNL     1     -11.762  13.316  68.241  1.00  0.00    -0.388 C  
HETATM   16  C   UNL     1     -11.166  14.090  69.161  1.00  0.00    -0.308 C  
BRANCH  16  17
HETATM   17  C   UNL     1     -11.828  14.450  70.411  1.00  0.00    -0.381 C  
HETATM   18  C   UNL     1     -13.396  13.808  72.259  1.00  0.00    -0.521 C  
HETATM   19  O   UNL     1     -13.370  14.838  72.908  1.00  0.00    -0.459 OA 
HETATM   20  C   UNL     1     -12.644  13.558  71.012  1.00  0.00    -0.438 C  
HETATM   21  C   UNL     1     -11.523  15.825  70.940  1.00  0.00    -0.438 C  
HETATM   22  O   UNL     1     -14.148  12.742  72.608  1.00  0.00    -0.470 OA 
ENDBRANCH  16  17
ENDBRANCH   3  15
TORSDOF 4
ENDMDL
MODEL       18
REMARK 921   NORMALIZED FREE ENERGY PREDICTED BY IDOCK:   -6.03 KCAL/MOL
REMARK 922        TOTAL FREE ENERGY PREDICTED BY IDOCK:   -8.84 KCAL/MOL
REMARK 923 INTER-LIGAND FREE ENERGY PREDICTED BY IDOCK:   -7.92 KCAL/MOL
REMARK 924 INTRA-LIGAND FREE ENERGY PREDICTED BY IDOCK:   -0.92 KCAL/MOL
REMARK 927      BINDING AFFINITY PREDICTED BY RF-SCORE:    0.00 PKD
ROOT
HETATM    1  C   UNL     1     -10.728  14.490  64.849  1.00  0.00    -0.448 C  
HETATM    2  C   UNL     1     -10.940  14.779  66.310  1.00  0.00    -0.330 C  
HETATM    3  C   UNL     1     -11.767  14.001  67.044  1.00  0.00    -0.425 C  
ENDROOT
BRANCH   2   4
HETATM    4  C   UNL     1     -10.180  15.882  66.882  1.00  0.00    -0.277 C  
HETATM    5  C   UNL     1      -9.600  16.869  66.181  1.00  0.00    -0.280 C  
BRANCH   5   6
HETATM    6  C   UNL     1      -8.910  18.029  66.768  1.00  0.00    -0.274 C  
HETATM    7  C   UNL     1     -10.777  19.095  68.141  1.00  0.00    -0.228 C  
HETATM    8  C   UNL     1      -7.584  17.968  67.004  1.00  0.00    -0.237 C  
HETATM    9  C   UNL     1      -6.773  19.123  67.522  1.00  0.00    -0.214 C  
HETATM   10  C   UNL     1      -6.722  16.741  66.780  1.00  0.00    -0.257 C  
HETATM   11  C   UNL     1     -10.534  19.662  65.713  1.00  0.00    -0.540 C  
HETATM   12  C   UNL     1      -9.747  19.307  67.004  1.00  0.00    -0.406 C  
HETATM   13  C   UNL     1      -8.925  20.581  67.366  1.00  0.00    -0.420 C  
HETATM   14  C   UNL     1      -7.473  20.439  67.790  1.00  0.00    -0.303 C  
ENDBRANCH   5   6
ENDBRANCH   2   4
BRANCH   3  15
HETATM   15  C   UNL     1     -12.085  14.214  68.439  1.00  0.00    -0.308 C  
HETATM   16  C   UNL     1     -11.855  13.337  69.429  1.00  0.00    -0.386 C  
BRANCH  16  17
HETATM   17  C   UNL     1     -12.271  13.602  70.803  1.00  0.00    -0.424 C  
HETATM   18  C   UNL     1     -12.489  15.236  72.692  1.00  0.00    -0.380 C  
HETATM   19  O   UNL     1     -12.951  14.497  73.542  1.00  0.00    -0.551 OA 
HETATM   20  C   UNL     1     -12.137  14.845  71.311  1.00  0.00    -0.385 C  
HETATM   21  C   UNL     1     -12.839  12.427  71.552  1.00  0.00    -0.377 C  
HETATM   22  O   UNL     1     -12.224  16.541  72.922  1.00  0.00    -0.470 OA 
ENDBRANCH  16  17
ENDBRANCH   3  15
TORSDOF 4
ENDMDL
MODEL       19
REMARK 921   NORMALIZED FREE ENERGY PREDICTED BY IDOCK:   -6.02 KCAL/MOL
REMARK 922        TOTAL FREE ENERGY PREDICTED BY IDOCK:   -8.83 KCAL/MOL
REMARK 923 INTER-LIGAND FREE ENERGY PREDICTED BY IDOCK:   -7.56 KCAL/MOL
REMARK 924 INTRA-LIGAND FREE ENERGY PREDICTED BY IDOCK:   -1.27 KCAL/MOL
REMARK 927      BINDING AFFINITY PREDICTED BY RF-SCORE:    0.00 PKD
ROOT
HETATM    1  C   UNL     1     -13.298  12.980  72.207  1.00  0.00    -0.606 C  
HETATM    2  C   UNL     1     -12.758  13.637  70.967  1.00  0.00    -0.408 C  
HETATM    3  C   UNL     1     -12.574  14.975  70.931  1.00  0.00    -0.419 C  
ENDROOT
BRANCH   2   4
HETATM    4  C   UNL     1     -12.403  12.763  69.857  1.00  0.00    -0.138 C  
HETATM    5  C   UNL     1     -11.153  12.515  69.434  1.00  0.00    -0.145 C  
BRANCH   5   6
HETATM    6  C   UNL     1     -10.794  11.562  68.372  1.00  0.00    -0.250 C  
HETATM    7  C   UNL     1      -9.307  12.997  66.877  1.00  0.00    -0.241 C  
HETATM    8  C   UNL     1     -10.733  10.244  68.651  1.00  0.00    -0.255 C  
HETATM    9  C   UNL     1     -10.458   9.184  67.621  1.00  0.00    -0.323 C  
HETATM   10  C   UNL     1     -10.936   9.642  70.027  1.00  0.00    -0.297 C  
HETATM   11  C   UNL     1     -11.793  13.033  66.569  1.00  0.00    -0.464 C  
HETATM   12  C   UNL     1     -10.589  12.130  66.949  1.00  0.00    -0.257 C  
HETATM   13  C   UNL     1     -10.481  11.063  65.819  1.00  0.00    -0.290 C  
HETATM   14  C   UNL     1     -10.243   9.608  66.182  1.00  0.00    -0.276 C  
ENDBRANCH   5   6
ENDBRANCH   2   4
BRANCH   3  15
HETATM   15  C   UNL     1     -12.109  15.719  69.781  1.00  0.00    -0.298 C  
HETATM   16  C   UNL     1     -10.874  16.222  69.629  1.00  0.00    -0.345 C  
BRANCH  16  17
HETATM   17  C   UNL     1     -10.506  17.022  68.464  1.00  0.00    -0.373 C  
HETATM   18  C   UNL     1     -10.289  17.193  65.973  1.00  0.00    -0.309 C  
HETATM   19  O   UNL     1      -9.825  18.316  65.890  1.00  0.00    -0.527 OA 
HETATM   20  C   UNL     1     -10.652  16.502  67.227  1.00  0.00    -0.285 C  
HETATM   21  C   UNL     1      -9.990  18.405  68.758  1.00  0.00    -0.404 C  
HETATM   22  O   UNL     1     -10.524  16.417  64.892  1.00  0.00    -0.643 OA 
ENDBRANCH  16  17
ENDBRANCH   3  15
TORSDOF 4
ENDMDL
MODEL       20
REMARK 921   NORMALIZED FREE ENERGY PREDICTED BY IDOCK:   -6.01 KCAL/MOL
REMARK 922        TOTAL FREE ENERGY PREDICTED BY IDOCK:   -8.81 KCAL/MOL
REMARK 923 INTER-LIGAND FREE ENERGY PREDICTED BY IDOCK:   -7.75 KCAL/MOL
REMARK 924 INTRA-LIGAND FREE ENERGY PREDICTED BY IDOCK:   -1.07 KCAL/MOL
REMARK 927      BINDING AFFINITY PREDICTED BY RF-SCORE:    0.00 PKD
ROOT
HETATM    1  C   UNL     1      -9.905  15.446  65.383  1.00  0.00    -0.314 C  
HETATM    2  C   UNL     1     -10.429  14.877  66.672  1.00  0.00    -0.292 C  
HETATM    3  C   UNL     1     -11.196  15.634  67.487  1.00  0.00    -0.245 C  
ENDROOT
BRANCH   2   4
HETATM    4  C   UNL     1     -10.115  13.483  66.956  1.00  0.00    -0.244 C  
HETATM    5  C   UNL     1     -10.806  12.425  66.503  1.00  0.00    -0.284 C  
BRANCH   5   6
HETATM    6  C   UNL     1     -10.432  11.018  66.717  1.00  0.00    -0.300 C  
HETATM    7  C   UNL     1      -8.126  10.928  65.631  1.00  0.00    -0.060 C  
HETATM    8  C   UNL     1     -10.917  10.354  67.787  1.00  0.00    -0.369 C  
HETATM    9  C   UNL     1     -10.664   8.896  68.050  1.00  0.00    -0.168 C  
HETATM   10  C   UNL     1     -11.782  10.972  68.867  1.00  0.00    -0.400 C  
HETATM   11  C   UNL     1     -10.178  10.597  64.232  1.00  0.00    -0.391 C  
HETATM   12  C   UNL     1      -9.560  10.343  65.634  1.00  0.00    -0.281 C  
HETATM   13  C   UNL     1      -9.420   8.796  65.765  1.00  0.00    -0.239 C  
HETATM   14  C   UNL     1      -9.826   8.114  67.060  1.00  0.00    -0.299 C  
ENDBRANCH   5   6
ENDBRANCH   2   4
BRANCH   3  15
HETATM   15  C   UNL     1     -11.712  15.211  68.771  1.00  0.00    -0.366 C  
HETATM   16  C   UNL     1     -11.612  15.906  69.915  1.00  0.00    -0.337 C  
BRANCH  16  17
HETATM   17  C   UNL     1     -12.100  15.374  71.184  1.00  0.00    -0.418 C  
HETATM   18  C   UNL     1     -12.483  15.718  73.638  1.00  0.00    -0.577 C  
HETATM   19  O   UNL     1     -12.944  14.628  73.922  1.00  0.00    -0.389 OA 
HETATM   20  C   UNL     1     -12.052  16.146  72.290  1.00  0.00    -0.616 C  
HETATM   21  C   UNL     1     -12.638  13.970  71.141  1.00  0.00    -0.445 C  
HETATM   22  O   UNL     1     -12.297  16.694  74.552  1.00  0.00    -0.714 OA 
ENDBRANCH  16  17
ENDBRANCH   3  15
TORSDOF 4
ENDMDL
MODEL       21
REMARK 921   NORMALIZED FREE ENERGY PREDICTED BY IDOCK:   -5.98 KCAL/MOL
REMARK 922        TOTAL FREE ENERGY PREDICTED BY IDOCK:   -8.77 KCAL/MOL
REMARK 923 INTER-LIGAND FREE ENERGY PREDICTED BY IDOCK:   -7.28 KCAL/MOL
REMARK 924 INTRA-LIGAND FREE ENERGY PREDICTED BY IDOCK:   -1.49 KCAL/MOL
REMARK 927      BINDING AFFINITY PREDICTED BY RF-SCORE:    0.00 PKD
ROOT
HETATM    1  C   UNL     1     -10.636  11.090  66.218  1.00  0.00    -0.295 C  
HETATM    2  C   UNL     1     -10.709  12.552  66.562  1.00  0.00    -0.266 C  
HETATM    3  C   UNL     1     -10.062  13.463  65.802  1.00  0.00    -0.297 C  
ENDROOT
BRANCH   2   4
HETATM    4  C   UNL     1     -11.541  12.923  67.699  1.00  0.00    -0.406 C  
HETATM    5  C   UNL     1     -11.201  12.776  68.989  1.00  0.00    -0.317 C  
BRANCH   5   6
HETATM    6  C   UNL     1     -12.006  13.233  70.133  1.00  0.00    -0.388 C  
HETATM    7  C   UNL     1     -12.761  15.537  69.340  1.00  0.00     0.263 C  
HETATM    8  C   UNL     1     -12.640  12.329  70.907  1.00  0.00    -0.334 C  
HETATM    9  C   UNL     1     -13.417  12.686  72.143  1.00  0.00    -0.561 C  
HETATM   10  C   UNL     1     -12.659  10.835  70.651  1.00  0.00    -0.446 C  
HETATM   11  C   UNL     1     -10.546  15.273  70.480  1.00  0.00    -0.190 C  
HETATM   12  C   UNL     1     -12.006  14.749  70.439  1.00  0.00    -0.368 C  
HETATM   13  C   UNL     1     -12.643  15.149  71.804  1.00  0.00    -0.418 C  
HETATM   14  C   UNL     1     -13.492  14.141  72.559  1.00  0.00    -0.634 C  
ENDBRANCH   5   6
ENDBRANCH   2   4
BRANCH   3  15
HETATM   15  C   UNL     1     -10.020  14.884  66.065  1.00  0.00    -0.337 C  
HETATM   16  C   UNL     1      -9.186  15.491  66.925  1.00  0.00    -0.257 C  
BRANCH  16  17
HETATM   17  C   UNL     1      -9.257  16.926  67.184  1.00  0.00    -0.238 C  
HETATM   18  C   UNL     1     -10.109  19.181  66.497  1.00  0.00    -0.406 C  
HETATM   19  O   UNL     1      -9.590  19.862  67.361  1.00  0.00    -0.332 OA 
HETATM   20  C   UNL     1      -9.983  17.714  66.364  1.00  0.00    -0.337 C  
HETATM   21  C   UNL     1      -8.495  17.411  68.388  1.00  0.00    -0.263 C  
HETATM   22  O   UNL     1     -10.881  19.703  65.518  1.00  0.00    -0.452 OA 
ENDBRANCH  16  17
ENDBRANCH   3  15
TORSDOF 4
ENDMDL
MODEL       22
REMARK 921   NORMALIZED FREE ENERGY PREDICTED BY IDOCK:   -5.98 KCAL/MOL
REMARK 922        TOTAL FREE ENERGY PREDICTED BY IDOCK:   -8.77 KCAL/MOL
REMARK 923 INTER-LIGAND FREE ENERGY PREDICTED BY IDOCK:   -7.12 KCAL/MOL
REMARK 924 INTRA-LIGAND FREE ENERGY PREDICTED BY IDOCK:   -1.65 KCAL/MOL
REMARK 927      BINDING AFFINITY PREDICTED BY RF-SCORE:    0.00 PKD
ROOT
HETATM    1  C   UNL     1     -12.469  10.512  71.121  1.00  0.00    -0.517 C  
HETATM    2  C   UNL     1     -11.742  11.410  70.158  1.00  0.00    -0.414 C  
HETATM    3  C   UNL     1     -11.943  12.745  70.190  1.00  0.00    -0.371 C  
ENDROOT
BRANCH   2   4
HETATM    4  C   UNL     1     -10.795  10.776  69.250  1.00  0.00    -0.287 C  
HETATM    5  C   UNL     1     -11.046  10.448  67.973  1.00  0.00    -0.359 C  
BRANCH   5   6
HETATM    6  C   UNL     1     -10.059   9.891  67.034  1.00  0.00    -0.275 C  
HETATM    7  C   UNL     1      -8.400  11.817  66.832  1.00  0.00    -0.170 C  
HETATM    8  C   UNL     1      -9.854   8.558  66.994  1.00  0.00    -0.289 C  
HETATM    9  C   UNL     1      -8.932   7.883  66.017  1.00  0.00    -0.195 C  
HETATM   10  C   UNL     1     -10.519   7.554  67.914  1.00  0.00    -0.266 C  
HETATM   11  C   UNL     1     -10.432  11.761  65.368  1.00  0.00    -0.317 C  
HETATM   12  C   UNL     1      -9.364  10.877  66.068  1.00  0.00    -0.215 C  
HETATM   13  C   UNL     1      -8.542  10.213  64.922  1.00  0.00    -0.188 C  
HETATM   14  C   UNL     1      -8.192   8.738  65.009  1.00  0.00    -0.156 C  
ENDBRANCH   5   6
ENDBRANCH   2   4
BRANCH   3  15
HETATM   15  C   UNL     1     -11.340  13.698  69.283  1.00  0.00    -0.323 C  
HETATM   16  C   UNL     1     -11.767  13.962  68.039  1.00  0.00    -0.387 C  
BRANCH  16  17
HETATM   17  C   UNL     1     -11.058  14.889  67.162  1.00  0.00    -0.332 C  
HETATM   18  C   UNL     1     -11.012  16.190  65.019  1.00  0.00    -0.344 C  
HETATM   19  O   UNL     1      -9.913  16.704  65.122  1.00  0.00    -0.473 OA 
HETATM   20  C   UNL     1     -11.634  15.284  66.006  1.00  0.00     0.006 C  
HETATM   21  C   UNL     1      -9.708  15.344  67.646  1.00  0.00    -0.211 C  
HETATM   22  O   UNL     1     -11.814  16.386  63.950  1.00  0.00    -1.034 OA 
ENDBRANCH  16  17
ENDBRANCH   3  15
TORSDOF 4
ENDMDL
MODEL       23
REMARK 921   NORMALIZED FREE ENERGY PREDICTED BY IDOCK:   -5.93 KCAL/MOL
REMARK 922        TOTAL FREE ENERGY PREDICTED BY IDOCK:   -8.71 KCAL/MOL
REMARK 923 INTER-LIGAND FREE ENERGY PREDICTED BY IDOCK:   -7.56 KCAL/MOL
REMARK 924 INTRA-LIGAND FREE ENERGY PREDICTED BY IDOCK:   -1.14 KCAL/MOL
REMARK 927      BINDING AFFINITY PREDICTED BY RF-SCORE:    0.00 PKD
ROOT
HETATM    1  C   UNL     1      -8.021   6.914  67.898  1.00  0.00    -0.114 C  
HETATM    2  C   UNL     1      -8.991   7.972  67.450  1.00  0.00    -0.141 C  
HETATM    3  C   UNL     1      -8.872   8.529  66.224  1.00  0.00    -0.187 C  
ENDROOT
BRANCH   2   4
HETATM    4  C   UNL     1     -10.069   8.312  68.369  1.00  0.00    -0.227 C  
HETATM    5  C   UNL     1      -9.905   8.805  69.607  1.00  0.00    -0.183 C  
BRANCH   5   6
HETATM    6  C   UNL     1     -10.996   9.231  70.497  1.00  0.00    -0.318 C  
HETATM    7  C   UNL     1     -10.423   7.981  72.645  1.00  0.00    -0.408 C  
HETATM    8  C   UNL     1     -11.568  10.440  70.321  1.00  0.00    -0.410 C  
HETATM    9  C   UNL     1     -12.741  10.934  71.120  1.00  0.00    -0.530 C  
HETATM   10  C   UNL     1     -11.123  11.465  69.298  1.00  0.00    -0.313 C  
HETATM   11  C   UNL     1     -11.770   6.848  70.863  1.00  0.00    -0.408 C  
HETATM   12  C   UNL     1     -11.492   8.213  71.549  1.00  0.00    -0.310 C  
HETATM   13  C   UNL     1     -12.814   8.602  72.277  1.00  0.00    -0.438 C  
HETATM   14  C   UNL     1     -13.329  10.028  72.183  1.00  0.00    -0.469 C  
ENDBRANCH   5   6
ENDBRANCH   2   4
BRANCH   3  15
HETATM   15  C   UNL     1      -9.713   9.586  65.707  1.00  0.00    -0.357 C  
HETATM   16  C   UNL     1      -9.556  10.895  65.959  1.00  0.00    -0.248 C  
BRANCH  16  17
HETATM   17  C   UNL     1     -10.493  11.894  65.453  1.00  0.00    -0.312 C  
HETATM   18  C   UNL     1     -12.384  12.460  63.908  1.00  0.00    -0.508 C  
HETATM   19  O   UNL     1     -12.505  13.643  64.165  1.00  0.00    -0.635 OA 
HETATM   20  C   UNL     1     -11.404  11.540  64.522  1.00  0.00    -0.250 C  
HETATM   21  C   UNL     1     -10.360  13.273  66.042  1.00  0.00    -0.290 C  
HETATM   22  O   UNL     1     -13.150  11.829  62.991  1.00  0.00    -0.508 OA 
ENDBRANCH  16  17
ENDBRANCH   3  15
TORSDOF 4
ENDMDL
MODEL       24
REMARK 921   NORMALIZED FREE ENERGY PREDICTED BY IDOCK:   -5.91 KCAL/MOL
REMARK 922        TOTAL FREE ENERGY PREDICTED BY IDOCK:   -8.69 KCAL/MOL
REMARK 923 INTER-LIGAND FREE ENERGY PREDICTED BY IDOCK:   -7.54 KCAL/MOL
REMARK 924 INTRA-LIGAND FREE ENERGY PREDICTED BY IDOCK:   -1.15 KCAL/MOL
REMARK 927      BINDING AFFINITY PREDICTED BY RF-SCORE:    0.00 PKD
ROOT
HETATM    1  C   UNL     1     -12.262  14.121  70.088  1.00  0.00    -0.415 C  
HETATM    2  C   UNL     1     -12.159  12.634  69.887  1.00  0.00    -0.322 C  
HETATM    3  C   UNL     1     -12.257  11.797  70.943  1.00  0.00    -0.378 C  
ENDROOT
BRANCH   2   4
HETATM    4  C   UNL     1     -12.006  12.162  68.517  1.00  0.00    -0.273 C  
HETATM    5  C   UNL     1     -11.198  12.710  67.594  1.00  0.00    -0.329 C  
BRANCH   5   6
HETATM    6  C   UNL     1     -10.979  12.176  66.241  1.00  0.00    -0.332 C  
HETATM    7  C   UNL     1     -10.289   9.773  66.742  1.00  0.00    -0.289 C  
HETATM    8  C   UNL     1     -11.677  12.682  65.203  1.00  0.00    -0.407 C  
HETATM    9  C   UNL     1     -11.469  12.266  63.774  1.00  0.00    -0.545 C  
HETATM   10  C   UNL     1     -12.758  13.737  65.322  1.00  0.00    -0.481 C  
HETATM   11  C   UNL     1      -8.567  11.593  66.746  1.00  0.00    -0.180 C  
HETATM   12  C   UNL     1      -9.877  11.106  66.070  1.00  0.00    -0.270 C  
HETATM   13  C   UNL     1      -9.498  10.774  64.595  1.00  0.00    -0.297 C  
HETATM   14  C   UNL     1     -10.411  11.225  63.468  1.00  0.00    -0.463 C  
ENDBRANCH   5   6
ENDBRANCH   2   4
BRANCH   3  15
HETATM   15  C   UNL     1     -12.124  10.358  70.876  1.00  0.00    -0.477 C  
HETATM   16  C   UNL     1     -11.096   9.650  71.370  1.00  0.00    -0.397 C  
BRANCH  16  17
HETATM   17  C   UNL     1     -11.004   8.203  71.199  1.00  0.00    -0.271 C  
HETATM   18  C   UNL     1     -11.011   6.231  69.651  1.00  0.00    -0.374 C  
HETATM   19  O   UNL     1     -10.903   5.336  70.469  1.00  0.00    -0.199 OA 
HETATM   20  C   UNL     1     -11.060   7.676  69.958  1.00  0.00    -0.201 C  
HETATM   21  C   UNL     1     -10.840   7.404  72.463  1.00  0.00    -0.327 C  
HETATM   22  O   UNL     1     -11.112   6.001  68.324  1.00  0.00    -0.309 OA 
ENDBRANCH  16  17
ENDBRANCH   3  15
TORSDOF 4
ENDMDL
MODEL       25
REMARK 921   NORMALIZED FREE ENERGY PREDICTED BY IDOCK:   -5.91 KCAL/MOL
REMARK 922        TOTAL FREE ENERGY PREDICTED BY IDOCK:   -8.68 KCAL/MOL
REMARK 923 INTER-LIGAND FREE ENERGY PREDICTED BY IDOCK:   -7.54 KCAL/MOL
REMARK 924 INTRA-LIGAND FREE ENERGY PREDICTED BY IDOCK:   -1.14 KCAL/MOL
REMARK 927      BINDING AFFINITY PREDICTED BY RF-SCORE:    0.00 PKD
ROOT
HETATM    1  C   UNL     1     -12.605  13.280  70.958  1.00  0.00    -0.408 C  
HETATM    2  C   UNL     1     -12.083  12.625  69.709  1.00  0.00    -0.301 C  
HETATM    3  C   UNL     1     -11.644  13.380  68.678  1.00  0.00    -0.362 C  
ENDROOT
BRANCH   2   4
HETATM    4  C   UNL     1     -12.031  11.169  69.699  1.00  0.00    -0.429 C  
HETATM    5  C   UNL     1     -11.059  10.425  70.250  1.00  0.00    -0.379 C  
BRANCH   5   6
HETATM    6  C   UNL     1     -11.056   8.955  70.317  1.00  0.00    -0.251 C  
HETATM    7  C   UNL     1      -8.680   8.413  69.565  1.00  0.00    -0.137 C  
HETATM    8  C   UNL     1     -11.852   8.325  71.205  1.00  0.00    -0.319 C  
HETATM    9  C   UNL     1     -11.984   6.831  71.296  1.00  0.00    -0.414 C  
HETATM   10  C   UNL     1     -12.726   9.023  72.228  1.00  0.00    -0.457 C  
HETATM   11  C   UNL     1     -10.484   8.739  67.859  1.00  0.00    -0.275 C  
HETATM   12  C   UNL     1     -10.187   8.200  69.284  1.00  0.00    -0.216 C  
HETATM   13  C   UNL     1     -10.426   6.661  69.217  1.00  0.00    -0.247 C  
HETATM   14  C   UNL     1     -11.189   5.972  70.334  1.00  0.00    -0.380 C  
ENDBRANCH   5   6
ENDBRANCH   2   4
BRANCH   3  15
HETATM   15  C   UNL     1     -11.169  12.862  67.413  1.00  0.00    -0.331 C  
HETATM   16  C   UNL     1     -11.901  12.759  66.293  1.00  0.00    -0.485 C  
BRANCH  16  17
HETATM   17  C   UNL     1     -11.364  12.158  65.075  1.00  0.00    -0.379 C  
HETATM   18  C   UNL     1      -9.832  10.480  64.017  1.00  0.00    -0.324 C  
HETATM   19  O   UNL     1     -10.031  10.739  62.844  1.00  0.00    -0.307 OA 
HETATM   20  C   UNL     1     -10.472  11.150  65.169  1.00  0.00    -0.341 C  
HETATM   21  C   UNL     1     -11.879  12.731  63.782  1.00  0.00    -0.572 C  
HETATM   22  O   UNL     1      -8.965   9.524  64.418  1.00  0.00    -0.224 OA 
ENDBRANCH  16  17
ENDBRANCH   3  15
TORSDOF 4
ENDMDL
MODEL       26
REMARK 921   NORMALIZED FREE ENERGY PREDICTED BY IDOCK:   -5.88 KCAL/MOL
REMARK 922        TOTAL FREE ENERGY PREDICTED BY IDOCK:   -8.65 KCAL/MOL
REMARK 923 INTER-LIGAND FREE ENERGY PREDICTED BY IDOCK:   -7.91 KCAL/MOL
REMARK 924 INTRA-LIGAND FREE ENERGY PREDICTED BY IDOCK:   -0.74 KCAL/MOL
REMARK 927      BINDING AFFINITY PREDICTED BY RF-SCORE:    0.00 PKD
ROOT
HETATM    1  C   UNL     1     -10.970  14.353  64.951  1.00  0.00    -0.416 C  
HETATM    2  C   UNL     1     -11.129  14.707  66.404  1.00  0.00    -0.334 C  
HETATM    3  C   UNL     1     -11.882  13.931  67.214  1.00  0.00    -0.442 C  
ENDROOT
BRANCH   2   4
HETATM    4  C   UNL     1     -10.398  15.873  66.883  1.00  0.00    -0.291 C  
HETATM    5  C   UNL     1      -9.472  16.548  66.184  1.00  0.00    -0.347 C  
BRANCH   5   6
HETATM    6  C   UNL     1      -8.802  17.778  66.638  1.00  0.00    -0.282 C  
HETATM    7  C   UNL     1      -6.345  17.118  66.459  1.00  0.00    -0.253 C  
HETATM    8  C   UNL     1      -9.398  18.972  66.445  1.00  0.00    -0.358 C  
HETATM    9  C   UNL     1      -8.839  20.275  66.944  1.00  0.00    -0.400 C  
HETATM   10  C   UNL     1     -10.709  19.175  65.712  1.00  0.00    -0.388 C  
HETATM   11  C   UNL     1      -7.637  16.569  68.534  1.00  0.00    -0.200 C  
HETATM   12  C   UNL     1      -7.468  17.618  67.402  1.00  0.00    -0.209 C  
HETATM   13  C   UNL     1      -6.941  18.912  68.092  1.00  0.00    -0.265 C  
HETATM   14  C   UNL     1      -7.535  20.257  67.715  1.00  0.00    -0.319 C  
ENDBRANCH   5   6
ENDBRANCH   2   4
BRANCH   3  15
HETATM   15  C   UNL     1     -12.145  14.201  68.611  1.00  0.00    -0.320 C  
HETATM   16  C   UNL     1     -12.118  13.289  69.596  1.00  0.00    -0.331 C  
BRANCH  16  17
HETATM   17  C   UNL     1     -12.465  13.631  70.972  1.00  0.00    -0.456 C  
HETATM   18  C   UNL     1     -12.437  15.320  72.825  1.00  0.00    -0.391 C  
HETATM   19  O   UNL     1     -12.965  14.662  73.702  1.00  0.00    -0.531 OA 
HETATM   20  C   UNL     1     -12.169  14.860  71.446  1.00  0.00    -0.391 C  
HETATM   21  C   UNL     1     -13.152  12.550  71.761  1.00  0.00    -0.450 C  
HETATM   22  O   UNL     1     -12.011  16.588  73.017  1.00  0.00    -0.530 OA 
ENDBRANCH  16  17
ENDBRANCH   3  15
TORSDOF 4
ENDMDL
MODEL       27
REMARK 921   NORMALIZED FREE ENERGY PREDICTED BY IDOCK:   -5.83 KCAL/MOL
REMARK 922        TOTAL FREE ENERGY PREDICTED BY IDOCK:   -8.59 KCAL/MOL
REMARK 923 INTER-LIGAND FREE ENERGY PREDICTED BY IDOCK:   -7.50 KCAL/MOL
REMARK 924 INTRA-LIGAND FREE ENERGY PREDICTED BY IDOCK:   -1.09 KCAL/MOL
REMARK 927      BINDING AFFINITY PREDICTED BY RF-SCORE:    0.00 PKD
ROOT
HETATM    1  C   UNL     1      -8.005   8.219  65.598  1.00  0.00    -0.113 C  
HETATM    2  C   UNL     1      -9.149   8.520  66.526  1.00  0.00    -0.217 C  
HETATM    3  C   UNL     1      -9.304   7.810  67.666  1.00  0.00    -0.160 C  
ENDROOT
BRANCH   2   4
HETATM    4  C   UNL     1     -10.023   9.626  66.161  1.00  0.00    -0.346 C  
HETATM    5  C   UNL     1      -9.685  10.925  66.195  1.00  0.00    -0.252 C  
BRANCH   5   6
HETATM    6  C   UNL     1     -10.540  12.033  65.740  1.00  0.00    -0.301 C  
HETATM    7  C   UNL     1     -10.008  13.834  67.465  1.00  0.00    -0.233 C  
HETATM    8  C   UNL     1     -10.846  12.145  64.431  1.00  0.00    -0.372 C  
HETATM    9  C   UNL     1     -11.776  13.188  63.877  1.00  0.00    -0.515 C  
HETATM   10  C   UNL     1     -10.308  11.243  63.338  1.00  0.00    -0.449 C  
HETATM   11  C   UNL     1     -11.776  12.127  67.949  1.00  0.00    -0.403 C  
HETATM   12  C   UNL     1     -11.122  12.971  66.822  1.00  0.00    -0.316 C  
HETATM   13  C   UNL     1     -12.227  13.951  66.325  1.00  0.00    -0.498 C  
HETATM   14  C   UNL     1     -12.419  14.169  64.835  1.00  0.00    -0.419 C  
ENDBRANCH   5   6
ENDBRANCH   2   4
BRANCH   3  15
HETATM   15  C   UNL     1     -10.391   7.977  68.606  1.00  0.00    -0.224 C  
HETATM   16  C   UNL     1     -10.364   8.766  69.692  1.00  0.00    -0.213 C  
BRANCH  16  17
HETATM   17  C   UNL     1     -11.482   8.824  70.629  1.00  0.00    -0.263 C  
HETATM   18  C   UNL     1     -13.110  10.220  71.928  1.00  0.00    -0.463 C  
HETATM   19  O   UNL     1     -13.699   9.337  72.523  1.00  0.00    -0.467 OA 
HETATM   20  C   UNL     1     -12.002  10.022  70.969  1.00  0.00    -0.469 C  
HETATM   21  C   UNL     1     -11.975   7.498  71.142  1.00  0.00    -0.334 C  
HETATM   22  O   UNL     1     -13.401  11.530  72.087  1.00  0.00    -0.477 OA 
ENDBRANCH  16  17
ENDBRANCH   3  15
TORSDOF 4
ENDMDL
MODEL       28
REMARK 921   NORMALIZED FREE ENERGY PREDICTED BY IDOCK:   -5.81 KCAL/MOL
REMARK 922        TOTAL FREE ENERGY PREDICTED BY IDOCK:   -8.57 KCAL/MOL
REMARK 923 INTER-LIGAND FREE ENERGY PREDICTED BY IDOCK:   -7.48 KCAL/MOL
REMARK 924 INTRA-LIGAND FREE ENERGY PREDICTED BY IDOCK:   -1.09 KCAL/MOL
REMARK 927      BINDING AFFINITY PREDICTED BY RF-SCORE:    0.00 PKD
ROOT
HETATM    1  C   UNL     1      -8.518   8.183  67.552  1.00  0.00    -0.126 C  
HETATM    2  C   UNL     1      -9.462   9.139  68.227  1.00  0.00    -0.152 C  
HETATM    3  C   UNL     1      -9.541   9.178  69.575  1.00  0.00    -0.171 C  
ENDROOT
BRANCH   2   4
HETATM    4  C   UNL     1     -10.225  10.033  67.366  1.00  0.00    -0.269 C  
HETATM    5  C   UNL     1      -9.778  11.196  66.866  1.00  0.00    -0.216 C  
BRANCH   5   6
HETATM    6  C   UNL     1     -10.519  12.051  65.925  1.00  0.00    -0.290 C  
HETATM    7  C   UNL     1     -10.143  14.365  66.930  1.00  0.00    -0.259 C  
HETATM    8  C   UNL     1     -10.644  11.673  64.636  1.00  0.00    -0.366 C  
HETATM    9  C   UNL     1     -11.449  12.431  63.618  1.00  0.00    -0.568 C  
HETATM   10  C   UNL     1     -10.006  10.438  64.033  1.00  0.00    -0.305 C  
HETATM   11  C   UNL     1     -12.030  12.937  67.755  1.00  0.00    -0.336 C  
HETATM   12  C   UNL     1     -11.198  13.316  66.499  1.00  0.00    -0.329 C  
HETATM   13  C   UNL     1     -12.187  14.034  65.532  1.00  0.00    -0.455 C  
HETATM   14  C   UNL     1     -12.171  13.689  64.054  1.00  0.00    -0.443 C  
ENDBRANCH   5   6
ENDBRANCH   2   4
BRANCH   3  15
HETATM   15  C   UNL     1     -10.446  10.018  70.330  1.00  0.00    -0.331 C  
HETATM   16  C   UNL     1     -11.740   9.751  70.562  1.00  0.00    -0.343 C  
BRANCH  16  17
HETATM   17  C   UNL     1     -12.603  10.688  71.276  1.00  0.00    -0.533 C  
HETATM   18  C   UNL     1     -13.241  13.064  71.756  1.00  0.00    -0.392 C  
HETATM   19  O   UNL     1     -14.123  12.873  72.572  1.00  0.00    -0.556 OA 
HETATM   20  C   UNL     1     -12.455  12.014  71.074  1.00  0.00    -0.376 C  
HETATM   21  C   UNL     1     -13.621  10.069  72.196  1.00  0.00    -0.351 C  
HETATM   22  O   UNL     1     -12.855  14.301  71.371  1.00  0.00    -0.308 OA 
ENDBRANCH  16  17
ENDBRANCH   3  15
TORSDOF 4
ENDMDL
MODEL       29
REMARK 921   NORMALIZED FREE ENERGY PREDICTED BY IDOCK:   -5.78 KCAL/MOL
REMARK 922        TOTAL FREE ENERGY PREDICTED BY IDOCK:   -8.53 KCAL/MOL
REMARK 923 INTER-LIGAND FREE ENERGY PREDICTED BY IDOCK:   -7.45 KCAL/MOL
REMARK 924 INTRA-LIGAND FREE ENERGY PREDICTED BY IDOCK:   -1.07 KCAL/MOL
REMARK 927      BINDING AFFINITY PREDICTED BY RF-SCORE:    0.00 PKD
ROOT
HETATM    1  C   UNL     1     -12.081  15.823  71.203  1.00  0.00    -0.475 C  
HETATM    2  C   UNL     1     -11.627  15.261  69.884  1.00  0.00    -0.335 C  
HETATM    3  C   UNL     1     -12.239  14.175  69.361  1.00  0.00    -0.329 C  
ENDROOT
BRANCH   2   4
HETATM    4  C   UNL     1     -10.555  15.969  69.197  1.00  0.00    -0.260 C  
HETATM    5  C   UNL     1     -10.717  16.793  68.150  1.00  0.00    -0.361 C  
BRANCH   5   6
HETATM    6  C   UNL     1      -9.643  17.576  67.517  1.00  0.00    -0.265 C  
HETATM    7  C   UNL     1      -9.454  19.564  69.103  1.00  0.00    -0.309 C  
HETATM    8  C   UNL     1      -8.694  16.944  66.796  1.00  0.00    -0.261 C  
HETATM    9  C   UNL     1      -7.605  17.657  66.043  1.00  0.00    -0.256 C  
HETATM   10  C   UNL     1      -8.587  15.441  66.636  1.00  0.00    -0.318 C  
HETATM   11  C   UNL     1     -11.136  19.603  67.246  1.00  0.00    -0.255 C  
HETATM   12  C   UNL     1      -9.718  19.114  67.644  1.00  0.00    -0.391 C  
HETATM   13  C   UNL     1      -8.724  19.903  66.738  1.00  0.00    -0.407 C  
HETATM   14  C   UNL     1      -7.567  19.171  66.081  1.00  0.00    -0.299 C  
ENDBRANCH   5   6
ENDBRANCH   2   4
BRANCH   3  15
HETATM   15  C   UNL     1     -11.857  13.520  68.130  1.00  0.00    -0.400 C  
HETATM   16  C   UNL     1     -12.294  13.853  66.905  1.00  0.00    -0.331 C  
BRANCH  16  17
HETATM   17  C   UNL     1     -11.912  13.094  65.718  1.00  0.00    -0.473 C  
HETATM   18  C   UNL     1     -10.745  11.103  64.740  1.00  0.00    -0.264 C  
HETATM   19  O   UNL     1     -10.927  11.325  63.557  1.00  0.00    -0.381 OA 
HETATM   20  C   UNL     1     -11.217  11.945  65.859  1.00  0.00    -0.373 C  
HETATM   21  C   UNL     1     -12.351  13.675  64.401  1.00  0.00    -0.387 C  
HETATM   22  O   UNL     1     -10.056  10.028  65.185  1.00  0.00    -0.325 OA 
ENDBRANCH  16  17
ENDBRANCH   3  15
TORSDOF 4
ENDMDL
MODEL       30
REMARK 921   NORMALIZED FREE ENERGY PREDICTED BY IDOCK:   -5.78 KCAL/MOL
REMARK 922        TOTAL FREE ENERGY PREDICTED BY IDOCK:   -8.53 KCAL/MOL
REMARK 923 INTER-LIGAND FREE ENERGY PREDICTED BY IDOCK:   -7.42 KCAL/MOL
REMARK 924 INTRA-LIGAND FREE ENERGY PREDICTED BY IDOCK:   -1.11 KCAL/MOL
REMARK 927      BINDING AFFINITY PREDICTED BY RF-SCORE:    0.00 PKD
ROOT
HETATM    1  C   UNL     1      -9.528   8.726  66.690  1.00  0.00    -0.263 C  
HETATM    2  C   UNL     1     -10.340   9.190  67.868  1.00  0.00    -0.285 C  
HETATM    3  C   UNL     1     -11.122  10.287  67.764  1.00  0.00    -0.335 C  
ENDROOT
BRANCH   2   4
HETATM    4  C   UNL     1     -10.277   8.377  69.075  1.00  0.00    -0.217 C  
HETATM    5  C   UNL     1     -10.889   7.195  69.247  1.00  0.00    -0.204 C  
BRANCH   5   6
HETATM    6  C   UNL     1     -10.750   6.336  70.433  1.00  0.00    -0.329 C  
HETATM    7  C   UNL     1      -8.222   6.019  70.542  1.00  0.00    -0.113 C  
HETATM    8  C   UNL     1     -11.660   6.416  71.425  1.00  0.00    -0.368 C  
HETATM    9  C   UNL     1     -11.655   5.526  72.637  1.00  0.00    -0.293 C  
HETATM   10  C   UNL     1     -12.813   7.398  71.463  1.00  0.00    -0.416 C  
HETATM   11  C   UNL     1      -9.609   4.507  69.105  1.00  0.00    -0.251 C  
HETATM   12  C   UNL     1      -9.594   5.309  70.433  1.00  0.00    -0.241 C  
HETATM   13  C   UNL     1      -9.650   4.249  71.574  1.00  0.00    -0.234 C  
HETATM   14  C   UNL     1     -10.575   4.470  72.758  1.00  0.00    -0.263 C  
ENDBRANCH   5   6
ENDBRANCH   2   4
BRANCH   3  15
HETATM   15  C   UNL     1     -11.905  10.853  68.841  1.00  0.00    -0.340 C  
HETATM   16  C   UNL     1     -11.570  11.938  69.557  1.00  0.00    -0.394 C  
BRANCH  16  17
HETATM   17  C   UNL     1     -12.384  12.404  70.676  1.00  0.00    -0.367 C  
HETATM   18  C   UNL     1     -13.408  14.326  71.918  1.00  0.00    -0.388 C  
HETATM   19  O   UNL     1     -13.935  13.715  72.830  1.00  0.00    -0.725 OA 
HETATM   20  C   UNL     1     -12.629  13.724  70.816  1.00  0.00    -0.410 C  
HETATM   21  C   UNL     1     -12.901  11.333  71.598  1.00  0.00    -0.510 C  
HETATM   22  O   UNL     1     -13.466  15.671  71.808  1.00  0.00    -0.476 OA 
ENDBRANCH  16  17
ENDBRANCH   3  15
TORSDOF 4
ENDMDL
MODEL       31
REMARK 921   NORMALIZED FREE ENERGY PREDICTED BY IDOCK:   -5.75 KCAL/MOL
REMARK 922        TOTAL FREE ENERGY PREDICTED BY IDOCK:   -8.50 KCAL/MOL
REMARK 923 INTER-LIGAND FREE ENERGY PREDICTED BY IDOCK:   -7.33 KCAL/MOL
REMARK 924 INTRA-LIGAND FREE ENERGY PREDICTED BY IDOCK:   -1.16 KCAL/MOL
REMARK 927      BINDING AFFINITY PREDICTED BY RF-SCORE:    0.00 PKD
ROOT
HETATM    1  C   UNL     1      -9.183  15.611  65.781  1.00  0.00    -0.247 C  
HETATM    2  C   UNL     1     -10.055  14.972  66.825  1.00  0.00    -0.257 C  
HETATM    3  C   UNL     1     -10.979  15.707  67.482  1.00  0.00    -0.309 C  
ENDROOT
BRANCH   2   4
HETATM    4  C   UNL     1      -9.887  13.541  67.041  1.00  0.00    -0.251 C  
HETATM    5  C   UNL     1     -10.516  12.574  66.355  1.00  0.00    -0.269 C  
BRANCH   5   6
HETATM    6  C   UNL     1     -10.276  11.131  66.515  1.00  0.00    -0.275 C  
HETATM    7  C   UNL     1      -7.913  10.898  65.586  1.00  0.00    -0.037 C  
HETATM    8  C   UNL     1     -10.890  10.460  67.511  1.00  0.00    -0.358 C  
HETATM    9  C   UNL     1     -10.777   8.974  67.710  1.00  0.00    -0.217 C  
HETATM   10  C   UNL     1     -11.778  11.094  68.562  1.00  0.00    -0.368 C  
HETATM   11  C   UNL     1      -9.878  10.815  64.034  1.00  0.00    -0.390 C  
HETATM   12  C   UNL     1      -9.386  10.439  65.458  1.00  0.00    -0.244 C  
HETATM   13  C   UNL     1      -9.384   8.881  65.512  1.00  0.00    -0.214 C  
HETATM   14  C   UNL     1      -9.936   8.173  66.736  1.00  0.00    -0.349 C  
ENDBRANCH   5   6
ENDBRANCH   2   4
BRANCH   3  15
HETATM   15  C   UNL     1     -11.836  15.213  68.537  1.00  0.00    -0.307 C  
HETATM   16  C   UNL     1     -11.566  15.277  69.850  1.00  0.00    -0.335 C  
BRANCH  16  17
HETATM   17  C   UNL     1     -12.455  14.690  70.849  1.00  0.00    -0.406 C  
HETATM   18  C   UNL     1     -13.370  12.630  71.947  1.00  0.00    -0.387 C  
HETATM   19  O   UNL     1     -14.156  13.149  72.719  1.00  0.00    -0.641 OA 
HETATM   20  C   UNL     1     -12.494  13.349  70.998  1.00  0.00    -0.437 C  
HETATM   21  C   UNL     1     -13.268  15.666  71.655  1.00  0.00    -0.554 C  
HETATM   22  O   UNL     1     -13.208  11.292  71.857  1.00  0.00    -0.482 OA 
ENDBRANCH  16  17
ENDBRANCH   3  15
TORSDOF 4
ENDMDL
MODEL       32
REMARK 921   NORMALIZED FREE ENERGY PREDICTED BY IDOCK:   -5.75 KCAL/MOL
REMARK 922        TOTAL FREE ENERGY PREDICTED BY IDOCK:   -8.49 KCAL/MOL
REMARK 923 INTER-LIGAND FREE ENERGY PREDICTED BY IDOCK:   -7.73 KCAL/MOL
REMARK 924 INTRA-LIGAND FREE ENERGY PREDICTED BY IDOCK:   -0.76 KCAL/MOL
REMARK 927      BINDING AFFINITY PREDICTED BY RF-SCORE:    0.00 PKD
ROOT
HETATM    1  C   UNL     1     -13.431  15.530  72.164  1.00  0.00    -0.587 C  
HETATM    2  C   UNL     1     -12.820  14.320  71.514  1.00  0.00    -0.419 C  
HETATM    3  C   UNL     1     -13.167  13.080  71.923  1.00  0.00    -0.527 C  
ENDROOT
BRANCH   2   4
HETATM    4  C   UNL     1     -11.899  14.558  70.410  1.00  0.00    -0.378 C  
HETATM    5  C   UNL     1     -12.252  14.704  69.123  1.00  0.00    -0.223 C  
BRANCH   5   6
HETATM    6  C   UNL     1     -11.329  15.034  68.026  1.00  0.00    -0.339 C  
HETATM    7  C   UNL     1     -12.469  13.907  66.041  1.00  0.00    -0.501 C  
HETATM    8  C   UNL     1     -10.604  16.169  68.082  1.00  0.00    -0.290 C  
HETATM    9  C   UNL     1      -9.574  16.555  67.057  1.00  0.00    -0.249 C  
HETATM   10  C   UNL     1     -10.712  17.210  69.178  1.00  0.00    -0.184 C  
HETATM   11  C   UNL     1     -10.915  12.591  67.500  1.00  0.00    -0.288 C  
HETATM   12  C   UNL     1     -11.177  13.995  66.891  1.00  0.00    -0.323 C  
HETATM   13  C   UNL     1     -10.000  14.259  65.904  1.00  0.00    -0.340 C  
HETATM   14  C   UNL     1      -9.323  15.619  65.893  1.00  0.00    -0.357 C  
ENDBRANCH   5   6
ENDBRANCH   2   4
BRANCH   3  15
HETATM   15  C   UNL     1     -12.609  11.850  71.406  1.00  0.00    -0.346 C  
HETATM   16  C   UNL     1     -12.807  10.629  71.928  1.00  0.00    -0.487 C  
BRANCH  16  17
HETATM   17  C   UNL     1     -12.149   9.444  71.385  1.00  0.00    -0.442 C  
HETATM   18  C   UNL     1     -11.827   6.958  71.457  1.00  0.00    -0.324 C  
HETATM   19  O   UNL     1     -10.988   6.841  70.582  1.00  0.00    -0.240 OA 
HETATM   20  C   UNL     1     -12.444   8.228  71.893  1.00  0.00    -0.376 C  
HETATM   21  C   UNL     1     -11.175   9.691  70.265  1.00  0.00    -0.324 C  
HETATM   22  O   UNL     1     -12.302   5.908  72.161  1.00  0.00    -0.182 OA 
ENDBRANCH  16  17
ENDBRANCH   3  15
TORSDOF 4
ENDMDL
MODEL       33
REMARK 921   NORMALIZED FREE ENERGY PREDICTED BY IDOCK:   -5.73 KCAL/MOL
REMARK 922        TOTAL FREE ENERGY PREDICTED BY IDOCK:   -8.47 KCAL/MOL
REMARK 923 INTER-LIGAND FREE ENERGY PREDICTED BY IDOCK:   -7.21 KCAL/MOL
REMARK 924 INTRA-LIGAND FREE ENERGY PREDICTED BY IDOCK:   -1.26 KCAL/MOL
REMARK 927      BINDING AFFINITY PREDICTED BY RF-SCORE:    0.00 PKD
ROOT
HETATM    1  C   UNL     1      -9.456   8.758  66.268  1.00  0.00    -0.300 C  
HETATM    2  C   UNL     1     -10.314   9.136  67.444  1.00  0.00    -0.330 C  
HETATM    3  C   UNL     1     -10.816  10.386  67.546  1.00  0.00    -0.358 C  
ENDROOT
BRANCH   2   4
HETATM    4  C   UNL     1     -10.607   8.087  68.412  1.00  0.00    -0.150 C  
HETATM    5  C   UNL     1      -9.816   7.737  69.439  1.00  0.00    -0.176 C  
BRANCH   5   6
HETATM    6  C   UNL     1     -10.157   6.739  70.466  1.00  0.00    -0.201 C  
HETATM    7  C   UNL     1     -12.374   7.645  71.344  1.00  0.00    -0.358 C  
HETATM    8  C   UNL     1      -9.731   5.467  70.327  1.00  0.00    -0.254 C  
HETATM    9  C   UNL     1      -9.954   4.394  71.357  1.00  0.00    -0.248 C  
HETATM   10  C   UNL     1      -8.968   4.937  69.130  1.00  0.00    -0.132 C  
HETATM   11  C   UNL     1     -10.215   8.488  72.297  1.00  0.00    -0.395 C  
HETATM   12  C   UNL     1     -10.925   7.237  71.711  1.00  0.00    -0.256 C  
HETATM   13  C   UNL     1     -11.023   6.214  72.883  1.00  0.00    -0.294 C  
HETATM   14  C   UNL     1     -10.691   4.753  72.631  1.00  0.00    -0.263 C  
ENDBRANCH   5   6
ENDBRANCH   2   4
BRANCH   3  15
HETATM   15  C   UNL     1     -11.608  10.875  68.653  1.00  0.00    -0.373 C  
HETATM   16  C   UNL     1     -11.465  12.073  69.241  1.00  0.00    -0.361 C  
BRANCH  16  17
HETATM   17  C   UNL     1     -12.261  12.463  70.401  1.00  0.00    -0.370 C  
HETATM   18  C   UNL     1     -13.215  14.297  71.819  1.00  0.00    -0.367 C  
HETATM   19  O   UNL     1     -13.763  13.624  72.672  1.00  0.00    -0.668 OA 
HETATM   20  C   UNL     1     -12.458  13.772  70.663  1.00  0.00    -0.429 C  
HETATM   21  C   UNL     1     -12.816  11.331  71.222  1.00  0.00    -0.491 C  
HETATM   22  O   UNL     1     -13.224  15.648  71.834  1.00  0.00    -0.434 OA 
ENDBRANCH  16  17
ENDBRANCH   3  15
TORSDOF 4
ENDMDL
MODEL       34
REMARK 921   NORMALIZED FREE ENERGY PREDICTED BY IDOCK:   -5.71 KCAL/MOL
REMARK 922        TOTAL FREE ENERGY PREDICTED BY IDOCK:   -8.44 KCAL/MOL
REMARK 923 INTER-LIGAND FREE ENERGY PREDICTED BY IDOCK:   -7.24 KCAL/MOL
REMARK 924 INTRA-LIGAND FREE ENERGY PREDICTED BY IDOCK:   -1.20 KCAL/MOL
REMARK 927      BINDING AFFINITY PREDICTED BY RF-SCORE:    0.00 PKD
ROOT
HETATM    1  C   UNL     1     -10.457  11.289  63.861  1.00  0.00    -0.452 C  
HETATM    2  C   UNL     1     -10.619  12.354  64.911  1.00  0.00    -0.326 C  
HETATM    3  C   UNL     1     -10.375  13.649  64.609  1.00  0.00    -0.407 C  
ENDROOT
BRANCH   2   4
HETATM    4  C   UNL     1     -11.093  11.925  66.220  1.00  0.00    -0.364 C  
HETATM    5  C   UNL     1     -10.327  11.780  67.312  1.00  0.00    -0.231 C  
BRANCH   5   6
HETATM    6  C   UNL     1     -10.825  11.433  68.653  1.00  0.00    -0.249 C  
HETATM    7  C   UNL     1      -8.928   9.980  69.545  1.00  0.00    -0.220 C  
HETATM    8  C   UNL     1     -11.646  12.285  69.300  1.00  0.00    -0.383 C  
HETATM    9  C   UNL     1     -12.274  11.989  70.634  1.00  0.00    -0.409 C  
HETATM   10  C   UNL     1     -12.058  13.649  68.783  1.00  0.00    -0.332 C  
HETATM   11  C   UNL     1     -10.742   8.951  68.157  1.00  0.00    -0.148 C  
HETATM   12  C   UNL     1     -10.440  10.046  69.216  1.00  0.00    -0.245 C  
HETATM   13  C   UNL     1     -11.205   9.618  70.504  1.00  0.00    -0.359 C  
HETATM   14  C   UNL     1     -11.982  10.657  71.294  1.00  0.00    -0.344 C  
ENDBRANCH   5   6
ENDBRANCH   2   4
BRANCH   3  15
HETATM   15  C   UNL     1     -10.448  14.747  65.547  1.00  0.00    -0.378 C  
HETATM   16  C   UNL     1      -9.466  15.122  66.382  1.00  0.00    -0.325 C  
BRANCH  16  17
HETATM   17  C   UNL     1      -9.647  16.201  67.349  1.00  0.00    -0.229 C  
HETATM   18  C   UNL     1     -10.422  18.538  67.821  1.00  0.00    -0.408 C  
HETATM   19  O   UNL     1     -10.126  18.612  68.999  1.00  0.00    -0.394 OA 
HETATM   20  C   UNL     1     -10.212  17.361  66.952  1.00  0.00    -0.322 C  
HETATM   21  C   UNL     1      -9.181  15.909  68.749  1.00  0.00    -0.218 C  
HETATM   22  O   UNL     1     -10.985  19.562  67.143  1.00  0.00    -0.492 OA 
ENDBRANCH  16  17
ENDBRANCH   3  15
TORSDOF 4
ENDMDL
MODEL       35
REMARK 921   NORMALIZED FREE ENERGY PREDICTED BY IDOCK:   -5.68 KCAL/MOL
REMARK 922        TOTAL FREE ENERGY PREDICTED BY IDOCK:   -8.41 KCAL/MOL
REMARK 923 INTER-LIGAND FREE ENERGY PREDICTED BY IDOCK:   -7.28 KCAL/MOL
REMARK 924 INTRA-LIGAND FREE ENERGY PREDICTED BY IDOCK:   -1.13 KCAL/MOL
REMARK 927      BINDING AFFINITY PREDICTED BY RF-SCORE:    0.00 PKD
ROOT
HETATM    1  C   UNL     1     -11.292  10.311  70.728  1.00  0.00    -0.421 C  
HETATM    2  C   UNL     1     -11.188  11.058  69.426  1.00  0.00    -0.332 C  
HETATM    3  C   UNL     1     -11.835  12.232  69.262  1.00  0.00    -0.363 C  
ENDROOT
BRANCH   2   4
HETATM    4  C   UNL     1     -10.327  10.482  68.401  1.00  0.00    -0.199 C  
HETATM    5  C   UNL     1     -10.687   9.518  67.539  1.00  0.00    -0.311 C  
BRANCH   5   6
HETATM    6  C   UNL     1      -9.845   9.003  66.448  1.00  0.00    -0.356 C  
HETATM    7  C   UNL     1     -10.147   6.484  66.712  1.00  0.00    -0.239 C  
HETATM    8  C   UNL     1      -9.665   9.745  65.336  1.00  0.00    -0.383 C  
HETATM    9  C   UNL     1      -8.760   9.348  64.204  1.00  0.00    -0.224 C  
HETATM   10  C   UNL     1     -10.336  11.078  65.070  1.00  0.00    -0.360 C  
HETATM   11  C   UNL     1      -8.397   7.678  68.049  1.00  0.00    -0.124 C  
HETATM   12  C   UNL     1      -9.130   7.652  66.681  1.00  0.00    -0.198 C  
HETATM   13  C   UNL     1      -8.047   7.284  65.622  1.00  0.00    -0.133 C  
HETATM   14  C   UNL     1      -7.994   8.045  64.309  1.00  0.00    -0.137 C  
ENDBRANCH   5   6
ENDBRANCH   2   4
BRANCH   3  15
HETATM   15  C   UNL     1     -11.848  13.010  68.043  1.00  0.00    -0.391 C  
HETATM   16  C   UNL     1     -11.167  14.148  67.841  1.00  0.00    -0.299 C  
BRANCH  16  17
HETATM   17  C   UNL     1     -11.290  14.910  66.601  1.00  0.00    -0.326 C  
HETATM   18  C   UNL     1     -12.068  15.003  64.220  1.00  0.00    -0.306 C  
HETATM   19  O   UNL     1     -11.681  16.120  63.927  1.00  0.00    -0.860 OA 
HETATM   20  C   UNL     1     -11.906  14.353  65.537  1.00  0.00    -0.357 C  
HETATM   21  C   UNL     1     -10.708  16.297  66.626  1.00  0.00    -0.197 C  
HETATM   22  O   UNL     1     -12.704  14.196  63.343  1.00  0.00    -0.767 OA 
ENDBRANCH  16  17
ENDBRANCH   3  15
TORSDOF 4
ENDMDL
MODEL       36
REMARK 921   NORMALIZED FREE ENERGY PREDICTED BY IDOCK:   -5.67 KCAL/MOL
REMARK 922        TOTAL FREE ENERGY PREDICTED BY IDOCK:   -8.40 KCAL/MOL
REMARK 923 INTER-LIGAND FREE ENERGY PREDICTED BY IDOCK:   -7.22 KCAL/MOL
REMARK 924 INTRA-LIGAND FREE ENERGY PREDICTED BY IDOCK:   -1.17 KCAL/MOL
REMARK 927      BINDING AFFINITY PREDICTED BY RF-SCORE:    0.00 PKD
ROOT
HETATM    1  C   UNL     1     -11.114  11.609  64.399  1.00  0.00    -0.382 C  
HETATM    2  C   UNL     1     -11.262  12.192  65.777  1.00  0.00    -0.384 C  
HETATM    3  C   UNL     1     -11.972  13.327  65.961  1.00  0.00    -0.473 C  
ENDROOT
BRANCH   2   4
HETATM    4  C   UNL     1     -10.658  11.452  66.876  1.00  0.00    -0.292 C  
HETATM    5  C   UNL     1     -11.282  10.530  67.626  1.00  0.00    -0.338 C  
BRANCH   5   6
HETATM    6  C   UNL     1     -10.643   9.721  68.676  1.00  0.00    -0.249 C  
HETATM    7  C   UNL     1      -8.431   9.099  67.569  1.00  0.00    -0.116 C  
HETATM    8  C   UNL     1     -10.930   9.963  69.971  1.00  0.00    -0.338 C  
HETATM    9  C   UNL     1     -10.397   9.142  71.112  1.00  0.00    -0.387 C  
HETATM   10  C   UNL     1     -11.827  11.080  70.463  1.00  0.00    -0.464 C  
HETATM   11  C   UNL     1     -10.468   7.700  67.159  1.00  0.00    -0.412 C  
HETATM   12  C   UNL     1      -9.729   8.561  68.219  1.00  0.00    -0.171 C  
HETATM   13  C   UNL     1      -9.298   7.574  69.347  1.00  0.00    -0.152 C  
HETATM   14  C   UNL     1      -9.491   7.968  70.801  1.00  0.00    -0.173 C  
ENDBRANCH   5   6
ENDBRANCH   2   4
BRANCH   3  15
HETATM   15  C   UNL     1     -12.140  14.004  67.228  1.00  0.00    -0.405 C  
HETATM   16  C   UNL     1     -11.252  14.845  67.782  1.00  0.00    -0.329 C  
BRANCH  16  17
HETATM   17  C   UNL     1     -11.467  15.434  69.101  1.00  0.00    -0.344 C  
HETATM   18  C   UNL     1     -12.514  15.261  71.372  1.00  0.00    -0.361 C  
HETATM   19  O   UNL     1     -12.155  16.326  71.839  1.00  0.00    -0.471 OA 
HETATM   20  C   UNL     1     -12.197  14.763  70.017  1.00  0.00    -0.383 C  
HETATM   21  C   UNL     1     -10.828  16.777  69.330  1.00  0.00    -0.275 C  
HETATM   22  O   UNL     1     -13.281  14.384  72.056  1.00  0.00    -0.324 OA 
ENDBRANCH  16  17
ENDBRANCH   3  15
TORSDOF 4
ENDMDL
MODEL       37
REMARK 921   NORMALIZED FREE ENERGY PREDICTED BY IDOCK:   -5.65 KCAL/MOL
REMARK 922        TOTAL FREE ENERGY PREDICTED BY IDOCK:   -8.37 KCAL/MOL
REMARK 923 INTER-LIGAND FREE ENERGY PREDICTED BY IDOCK:   -7.41 KCAL/MOL
REMARK 924 INTRA-LIGAND FREE ENERGY PREDICTED BY IDOCK:   -0.96 KCAL/MOL
REMARK 927      BINDING AFFINITY PREDICTED BY RF-SCORE:    0.00 PKD
ROOT
HETATM    1  C   UNL     1      -8.876  16.723  66.335  1.00  0.00    -0.331 C  
HETATM    2  C   UNL     1      -9.817  15.913  67.185  1.00  0.00    -0.232 C  
HETATM    3  C   UNL     1     -10.732  16.530  67.964  1.00  0.00    -0.343 C  
ENDROOT
BRANCH   2   4
HETATM    4  C   UNL     1      -9.721  14.463  67.077  1.00  0.00    -0.256 C  
HETATM    5  C   UNL     1     -10.655  13.662  66.539  1.00  0.00    -0.282 C  
BRANCH   5   6
HETATM    6  C   UNL     1     -10.515  12.210  66.351  1.00  0.00    -0.261 C  
HETATM    7  C   UNL     1     -12.015  11.307  68.206  1.00  0.00    -0.215 C  
HETATM    8  C   UNL     1     -10.260  11.717  65.122  1.00  0.00    -0.309 C  
HETATM    9  C   UNL     1     -10.018  10.261  64.839  1.00  0.00    -0.393 C  
HETATM   10  C   UNL     1     -10.174  12.550  63.859  1.00  0.00    -0.386 C  
HETATM   11  C   UNL     1      -9.629  11.885  68.701  1.00  0.00    -0.101 C  
HETATM   12  C   UNL     1     -10.584  11.322  67.615  1.00  0.00    -0.252 C  
HETATM   13  C   UNL     1     -10.163   9.836  67.404  1.00  0.00    -0.284 C  
HETATM   14  C   UNL     1     -10.052   9.282  65.995  1.00  0.00    -0.262 C  
ENDBRANCH   5   6
ENDBRANCH   2   4
BRANCH   3  15
HETATM   15  C   UNL     1     -11.651  15.858  68.857  1.00  0.00    -0.392 C  
HETATM   16  C   UNL     1     -11.434  15.623  70.160  1.00  0.00    -0.358 C  
BRANCH  16  17
HETATM   17  C   UNL     1     -12.385  14.874  70.976  1.00  0.00    -0.388 C  
HETATM   18  C   UNL     1     -13.238  12.653  71.766  1.00  0.00    -0.359 C  
HETATM   19  O   UNL     1     -14.162  13.030  72.463  1.00  0.00    -0.597 OA 
HETATM   20  C   UNL     1     -12.318  13.526  71.008  1.00  0.00    -0.422 C  
HETATM   21  C   UNL     1     -13.383  15.701  71.741  1.00  0.00    -0.541 C  
HETATM   22  O   UNL     1     -12.941  11.347  71.589  1.00  0.00    -0.448 OA 
ENDBRANCH  16  17
ENDBRANCH   3  15
TORSDOF 4
ENDMDL
MODEL       38
REMARK 921   NORMALIZED FREE ENERGY PREDICTED BY IDOCK:   -5.65 KCAL/MOL
REMARK 922        TOTAL FREE ENERGY PREDICTED BY IDOCK:   -8.36 KCAL/MOL
REMARK 923 INTER-LIGAND FREE ENERGY PREDICTED BY IDOCK:   -7.09 KCAL/MOL
REMARK 924 INTRA-LIGAND FREE ENERGY PREDICTED BY IDOCK:   -1.28 KCAL/MOL
REMARK 927      BINDING AFFINITY PREDICTED BY RF-SCORE:    0.00 PKD
ROOT
HETATM    1  C   UNL     1     -11.299   8.144  71.279  1.00  0.00    -0.300 C  
HETATM    2  C   UNL     1     -10.828   8.916  70.078  1.00  0.00    -0.239 C  
HETATM    3  C   UNL     1     -10.418   8.263  68.968  1.00  0.00    -0.212 C  
ENDROOT
BRANCH   2   4
HETATM    4  C   UNL     1     -10.892  10.369  70.160  1.00  0.00    -0.333 C  
HETATM    5  C   UNL     1     -11.821  11.139  69.572  1.00  0.00    -0.423 C  
BRANCH   5   6
HETATM    6  C   UNL     1     -11.934  12.598  69.731  1.00  0.00    -0.365 C  
HETATM    7  C   UNL     1     -12.039  13.372  67.304  1.00  0.00    -0.352 C  
HETATM    8  C   UNL     1     -12.526  13.104  70.832  1.00  0.00    -0.407 C  
HETATM    9  C   UNL     1     -12.617  14.575  71.130  1.00  0.00    -0.406 C  
HETATM   10  C   UNL     1     -13.173  12.276  71.924  1.00  0.00    -0.481 C  
HETATM   11  C   UNL     1      -9.818  13.013  68.404  1.00  0.00    -0.203 C  
HETATM   12  C   UNL     1     -11.277  13.482  68.647  1.00  0.00    -0.311 C  
HETATM   13  C   UNL     1     -11.186  14.999  68.996  1.00  0.00    -0.279 C  
HETATM   14  C   UNL     1     -12.006  15.553  70.147  1.00  0.00    -0.389 C  
ENDBRANCH   5   6
ENDBRANCH   2   4
BRANCH   3  15
HETATM   15  C   UNL     1      -9.900   8.898  67.776  1.00  0.00    -0.208 C  
HETATM   16  C   UNL     1     -10.636   9.301  66.729  1.00  0.00    -0.207 C  
BRANCH  16  17
HETATM   17  C   UNL     1     -10.026   9.872  65.531  1.00  0.00    -0.363 C  
HETATM   18  C   UNL     1     -10.151  11.523  63.649  1.00  0.00    -0.388 C  
HETATM   19  O   UNL     1      -9.124  11.235  63.063  1.00  0.00    -0.274 OA 
HETATM   20  C   UNL     1     -10.646  10.881  64.885  1.00  0.00    -0.304 C  
HETATM   21  C   UNL     1      -8.711   9.268  65.117  1.00  0.00    -0.216 C  
HETATM   22  O   UNL     1     -10.994  12.487  63.219  1.00  0.00    -0.425 OA 
ENDBRANCH  16  17
ENDBRANCH   3  15
TORSDOF 4
ENDMDL
MODEL       39
REMARK 921   NORMALIZED FREE ENERGY PREDICTED BY IDOCK:   -5.64 KCAL/MOL
REMARK 922        TOTAL FREE ENERGY PREDICTED BY IDOCK:   -8.36 KCAL/MOL
REMARK 923 INTER-LIGAND FREE ENERGY PREDICTED BY IDOCK:   -7.05 KCAL/MOL
REMARK 924 INTRA-LIGAND FREE ENERGY PREDICTED BY IDOCK:   -1.30 KCAL/MOL
REMARK 927      BINDING AFFINITY PREDICTED BY RF-SCORE:    0.00 PKD
ROOT
HETATM    1  C   UNL     1      -9.710  10.979  65.007  1.00  0.00    -0.303 C  
HETATM    2  C   UNL     1     -10.269  10.334  66.245  1.00  0.00    -0.287 C  
HETATM    3  C   UNL     1     -10.003   9.037  66.515  1.00  0.00    -0.355 C  
ENDROOT
BRANCH   2   4
HETATM    4  C   UNL     1     -11.048  11.182  67.138  1.00  0.00    -0.352 C  
HETATM    5  C   UNL     1     -10.579  11.778  68.246  1.00  0.00    -0.236 C  
BRANCH   5   6
HETATM    6  C   UNL     1     -11.343  12.705  69.094  1.00  0.00    -0.339 C  
HETATM    7  C   UNL     1     -12.116  14.440  67.392  1.00  0.00    -0.348 C  
HETATM    8  C   UNL     1     -11.955  12.243  70.204  1.00  0.00    -0.377 C  
HETATM    9  C   UNL     1     -12.689  13.120  71.180  1.00  0.00    -0.386 C  
HETATM   10  C   UNL     1     -11.988  10.789  70.631  1.00  0.00    -0.466 C  
HETATM   11  C   UNL     1      -9.865  14.664  68.469  1.00  0.00    -0.228 C  
HETATM   12  C   UNL     1     -11.328  14.201  68.704  1.00  0.00    -0.306 C  
HETATM   13  C   UNL     1     -11.917  15.170  69.773  1.00  0.00    -0.367 C  
HETATM   14  C   UNL     1     -12.744  14.611  70.917  1.00  0.00    -0.413 C  
ENDBRANCH   5   6
ENDBRANCH   2   4
BRANCH   3  15
HETATM   15  C   UNL     1     -10.526   8.300  67.645  1.00  0.00    -0.303 C  
HETATM   16  C   UNL     1      -9.917   8.169  68.834  1.00  0.00    -0.198 C  
BRANCH  16  17
HETATM   17  C   UNL     1     -10.482   7.348  69.901  1.00  0.00    -0.238 C  
HETATM   18  C   UNL     1     -10.774   6.945  72.358  1.00  0.00    -0.226 C  
HETATM   19  O   UNL     1     -11.422   5.915  72.316  1.00  0.00    -0.293 OA 
HETATM   20  C   UNL     1     -10.285   7.704  71.188  1.00  0.00    -0.207 C  
HETATM   21  C   UNL     1     -11.266   6.144  69.455  1.00  0.00    -0.482 C  
HETATM   22  O   UNL     1     -10.406   7.530  73.519  1.00  0.00    -0.345 OA 
ENDBRANCH  16  17
ENDBRANCH   3  15
TORSDOF 4
ENDMDL
MODEL       40
REMARK 921   NORMALIZED FREE ENERGY PREDICTED BY IDOCK:   -5.64 KCAL/MOL
REMARK 922        TOTAL FREE ENERGY PREDICTED BY IDOCK:   -8.36 KCAL/MOL
REMARK 923 INTER-LIGAND FREE ENERGY PREDICTED BY IDOCK:   -7.84 KCAL/MOL
REMARK 924 INTRA-LIGAND FREE ENERGY PREDICTED BY IDOCK:   -0.52 KCAL/MOL
REMARK 927      BINDING AFFINITY PREDICTED BY RF-SCORE:    0.00 PKD
ROOT
HETATM    1  C   UNL     1     -11.023   9.982  67.749  1.00  0.00    -0.310 C  
HETATM    2  C   UNL     1     -11.577  11.101  68.587  1.00  0.00    -0.383 C  
HETATM    3  C   UNL     1     -11.939  10.876  69.869  1.00  0.00    -0.430 C  
ENDROOT
BRANCH   2   4
HETATM    4  C   UNL     1     -11.648  12.418  67.967  1.00  0.00    -0.403 C  
HETATM    5  C   UNL     1     -10.622  13.053  67.378  1.00  0.00    -0.239 C  
BRANCH   5   6
HETATM    6  C   UNL     1     -10.719  14.343  66.675  1.00  0.00    -0.292 C  
HETATM    7  C   UNL     1     -12.904  14.064  65.390  1.00  0.00    -0.442 C  
HETATM    8  C   UNL     1     -10.167  15.444  67.224  1.00  0.00    -0.254 C  
HETATM    9  C   UNL     1     -10.137  16.788  66.550  1.00  0.00    -0.322 C  
HETATM   10  C   UNL     1      -9.496  15.490  68.582  1.00  0.00    -0.204 C  
HETATM   11  C   UNL     1     -10.760  13.222  64.405  1.00  0.00    -0.432 C  
HETATM   12  C   UNL     1     -11.384  14.342  65.280  1.00  0.00    -0.336 C  
HETATM   13  C   UNL     1     -11.220  15.662  64.467  1.00  0.00    -0.337 C  
HETATM   14  C   UNL     1     -10.753  16.923  65.173  1.00  0.00    -0.118 C  
ENDBRANCH   5   6
ENDBRANCH   2   4
BRANCH   3  15
HETATM   15  C   UNL     1     -12.529  11.859  70.750  1.00  0.00    -0.384 C  
HETATM   16  C   UNL     1     -12.317  13.183  70.687  1.00  0.00    -0.405 C  
BRANCH  16  17
HETATM   17  C   UNL     1     -12.898  14.103  71.661  1.00  0.00    -0.428 C  
HETATM   18  C   UNL     1     -12.623  16.125  73.118  1.00  0.00    -0.498 C  
HETATM   19  O   UNL     1     -13.713  16.131  73.659  1.00  0.00    -0.504 OA 
HETATM   20  C   UNL     1     -12.165  15.143  72.112  1.00  0.00    -0.451 C  
HETATM   21  C   UNL     1     -14.311  13.804  72.082  1.00  0.00    -0.465 C  
HETATM   22  O   UNL     1     -11.666  17.039  73.390  1.00  0.00    -0.199 OA 
ENDBRANCH  16  17
ENDBRANCH   3  15
TORSDOF 4
ENDMDL
MODEL       41
REMARK 921   NORMALIZED FREE ENERGY PREDICTED BY IDOCK:   -5.64 KCAL/MOL
REMARK 922        TOTAL FREE ENERGY PREDICTED BY IDOCK:   -8.35 KCAL/MOL
REMARK 923 INTER-LIGAND FREE ENERGY PREDICTED BY IDOCK:   -7.07 KCAL/MOL
REMARK 924 INTRA-LIGAND FREE ENERGY PREDICTED BY IDOCK:   -1.28 KCAL/MOL
REMARK 927      BINDING AFFINITY PREDICTED BY RF-SCORE:    0.00 PKD
ROOT
HETATM    1  C   UNL     1      -6.745  12.368  69.010  1.00  0.00    -0.100 C  
HETATM    2  C   UNL     1      -7.499  13.552  68.470  1.00  0.00    -0.122 C  
HETATM    3  C   UNL     1      -7.453  14.739  69.114  1.00  0.00    -0.153 C  
ENDROOT
BRANCH   2   4
HETATM    4  C   UNL     1      -8.217  13.362  67.217  1.00  0.00    -0.162 C  
HETATM    5  C   UNL     1      -9.444  12.830  67.099  1.00  0.00    -0.223 C  
BRANCH   5   6
HETATM    6  C   UNL     1     -10.202  12.723  65.842  1.00  0.00    -0.300 C  
HETATM    7  C   UNL     1     -10.368  15.167  65.134  1.00  0.00    -0.416 C  
HETATM    8  C   UNL     1     -10.098  11.605  65.094  1.00  0.00    -0.304 C  
HETATM    9  C   UNL     1     -10.891  11.363  63.840  1.00  0.00    -0.463 C  
HETATM   10  C   UNL     1      -9.181  10.439  65.405  1.00  0.00    -0.233 C  
HETATM   11  C   UNL     1     -12.060  14.207  66.713  1.00  0.00    -0.474 C  
HETATM   12  C   UNL     1     -11.159  13.884  65.490  1.00  0.00    -0.304 C  
HETATM   13  C   UNL     1     -12.131  13.604  64.304  1.00  0.00    -0.480 C  
HETATM   14  C   UNL     1     -11.872  12.423  63.386  1.00  0.00    -0.571 C  
ENDBRANCH   5   6
ENDBRANCH   2   4
BRANCH   3  15
HETATM   15  C   UNL     1      -8.174  15.928  68.716  1.00  0.00    -0.196 C  
HETATM   16  C   UNL     1      -7.638  16.991  68.097  1.00  0.00    -0.194 C  
BRANCH  16  17
HETATM   17  C   UNL     1      -8.424  18.183  67.792  1.00  0.00    -0.251 C  
HETATM   18  C   UNL     1     -10.124  19.303  66.329  1.00  0.00    -0.442 C  
HETATM   19  O   UNL     1     -10.139  20.404  66.849  1.00  0.00    -0.453 OA 
HETATM   20  C   UNL     1      -9.295  18.159  66.760  1.00  0.00    -0.286 C  
HETATM   21  C   UNL     1      -8.192  19.367  68.691  1.00  0.00    -0.399 C  
HETATM   22  O   UNL     1     -10.881  18.991  65.254  1.00  0.00    -0.540 OA 
ENDBRANCH  16  17
ENDBRANCH   3  15
TORSDOF 4
ENDMDL
MODEL       42
REMARK 921   NORMALIZED FREE ENERGY PREDICTED BY IDOCK:   -5.61 KCAL/MOL
REMARK 922        TOTAL FREE ENERGY PREDICTED BY IDOCK:   -8.32 KCAL/MOL
REMARK 923 INTER-LIGAND FREE ENERGY PREDICTED BY IDOCK:   -6.87 KCAL/MOL
REMARK 924 INTRA-LIGAND FREE ENERGY PREDICTED BY IDOCK:   -1.45 KCAL/MOL
REMARK 927      BINDING AFFINITY PREDICTED BY RF-SCORE:    0.00 PKD
ROOT
HETATM    1  C   UNL     1      -6.931  12.276  68.955  1.00  0.00    -0.098 C  
HETATM    2  C   UNL     1      -7.425  13.569  68.367  1.00  0.00    -0.124 C  
HETATM    3  C   UNL     1      -7.097  14.747  68.943  1.00  0.00    -0.118 C  
ENDROOT
BRANCH   2   4
HETATM    4  C   UNL     1      -8.212  13.481  67.144  1.00  0.00    -0.126 C  
HETATM    5  C   UNL     1      -9.431  12.926  67.045  1.00  0.00    -0.235 C  
BRANCH   5   6
HETATM    6  C   UNL     1     -10.260  12.919  65.829  1.00  0.00    -0.298 C  
HETATM    7  C   UNL     1     -10.458  15.412  65.330  1.00  0.00    -0.440 C  
HETATM    8  C   UNL     1     -10.202  11.865  64.989  1.00  0.00    -0.316 C  
HETATM    9  C   UNL     1     -11.067  11.723  63.767  1.00  0.00    -0.513 C  
HETATM   10  C   UNL     1      -9.273  10.680  65.153  1.00  0.00    -0.241 C  
HETATM   11  C   UNL     1     -12.060  14.326  66.921  1.00  0.00    -0.440 C  
HETATM   12  C   UNL     1     -11.232  14.104  65.627  1.00  0.00    -0.308 C  
HETATM   13  C   UNL     1     -12.271  13.919  64.480  1.00  0.00    -0.451 C  
HETATM   14  C   UNL     1     -12.069  12.816  63.456  1.00  0.00    -0.642 C  
ENDBRANCH   5   6
ENDBRANCH   2   4
BRANCH   3  15
HETATM   15  C   UNL     1      -7.555  16.044  68.497  1.00  0.00    -0.155 C  
HETATM   16  C   UNL     1      -8.765  16.568  68.746  1.00  0.00    -0.259 C  
BRANCH  16  17
HETATM   17  C   UNL     1      -9.173  17.859  68.198  1.00  0.00    -0.278 C  
HETATM   18  C   UNL     1      -8.528  20.165  67.457  1.00  0.00    -0.335 C  
HETATM   19  O   UNL     1      -9.627  20.592  67.155  1.00  0.00    -0.438 OA 
HETATM   20  C   UNL     1      -8.242  18.811  67.976  1.00  0.00    -0.317 C  
HETATM   21  C   UNL     1     -10.643  18.013  67.913  1.00  0.00    -0.387 C  
HETATM   22  O   UNL     1      -7.402  20.907  67.361  1.00  0.00    -0.351 OA 
ENDBRANCH  16  17
ENDBRANCH   3  15
TORSDOF 4
ENDMDL
MODEL       43
REMARK 921   NORMALIZED FREE ENERGY PREDICTED BY IDOCK:   -5.56 KCAL/MOL
REMARK 922        TOTAL FREE ENERGY PREDICTED BY IDOCK:   -8.25 KCAL/MOL
REMARK 923 INTER-LIGAND FREE ENERGY PREDICTED BY IDOCK:   -7.19 KCAL/MOL
REMARK 924 INTRA-LIGAND FREE ENERGY PREDICTED BY IDOCK:   -1.07 KCAL/MOL
REMARK 927      BINDING AFFINITY PREDICTED BY RF-SCORE:    0.00 PKD
ROOT
HETATM    1  C   UNL     1     -11.648  15.911  71.260  1.00  0.00    -0.509 C  
HETATM    2  C   UNL     1     -11.325  15.390  69.887  1.00  0.00    -0.318 C  
HETATM    3  C   UNL     1     -11.610  14.110  69.561  1.00  0.00    -0.349 C  
ENDROOT
BRANCH   2   4
HETATM    4  C   UNL     1     -10.751  16.337  68.940  1.00  0.00    -0.300 C  
HETATM    5  C   UNL     1      -9.543  16.911  69.053  1.00  0.00    -0.216 C  
BRANCH   5   6
HETATM    6  C   UNL     1      -8.932  17.796  68.049  1.00  0.00    -0.263 C  
HETATM    7  C   UNL     1      -8.571  16.190  66.101  1.00  0.00    -0.331 C  
HETATM    8  C   UNL     1      -9.232  19.111  68.048  1.00  0.00    -0.364 C  
HETATM    9  C   UNL     1      -8.599  20.112  67.121  1.00  0.00    -0.415 C  
HETATM   10  C   UNL     1     -10.235  19.769  68.974  1.00  0.00    -0.362 C  
HETATM   11  C   UNL     1      -6.844  16.369  67.908  1.00  0.00    -0.152 C  
HETATM   12  C   UNL     1      -7.893  17.171  67.090  1.00  0.00    -0.211 C  
HETATM   13  C   UNL     1      -7.081  18.191  66.236  1.00  0.00    -0.298 C  
HETATM   14  C   UNL     1      -7.558  19.628  66.132  1.00  0.00    -0.326 C  
ENDBRANCH   5   6
ENDBRANCH   2   4
BRANCH   3  15
HETATM   15  C   UNL     1     -11.300  13.488  68.293  1.00  0.00    -0.328 C  
HETATM   16  C   UNL     1     -12.161  13.327  67.276  1.00  0.00    -0.341 C  
BRANCH  16  17
HETATM   17  C   UNL     1     -11.785  12.624  66.052  1.00  0.00    -0.470 C  
HETATM   18  C   UNL     1     -10.439  10.816  64.955  1.00  0.00    -0.237 C  
HETATM   19  O   UNL     1     -10.760  11.004  63.796  1.00  0.00    -0.362 OA 
HETATM   20  C   UNL     1     -10.923  11.588  66.119  1.00  0.00    -0.320 C  
HETATM   21  C   UNL     1     -12.422  13.129  64.786  1.00  0.00    -0.460 C  
HETATM   22  O   UNL     1      -9.566   9.854  65.326  1.00  0.00    -0.256 OA 
ENDBRANCH  16  17
ENDBRANCH   3  15
TORSDOF 4
ENDMDL
MODEL       44
REMARK 921   NORMALIZED FREE ENERGY PREDICTED BY IDOCK:   -5.52 KCAL/MOL
REMARK 922        TOTAL FREE ENERGY PREDICTED BY IDOCK:   -8.21 KCAL/MOL
REMARK 923 INTER-LIGAND FREE ENERGY PREDICTED BY IDOCK:   -7.34 KCAL/MOL
REMARK 924 INTRA-LIGAND FREE ENERGY PREDICTED BY IDOCK:   -0.87 KCAL/MOL
REMARK 927      BINDING AFFINITY PREDICTED BY RF-SCORE:    0.00 PKD
ROOT
HETATM    1  C   UNL     1     -12.242  11.309  70.790  1.00  0.00    -0.479 C  
HETATM    2  C   UNL     1     -11.808  12.270  69.718  1.00  0.00    -0.388 C  
HETATM    3  C   UNL     1     -12.142  13.576  69.799  1.00  0.00    -0.381 C  
ENDROOT
BRANCH   2   4
HETATM    4  C   UNL     1     -10.981  11.733  68.644  1.00  0.00    -0.269 C  
HETATM    5  C   UNL     1     -11.356  10.773  67.784  1.00  0.00    -0.354 C  
BRANCH   5   6
HETATM    6  C   UNL     1     -10.553  10.297  66.647  1.00  0.00    -0.232 C  
HETATM    7  C   UNL     1     -10.657   7.769  66.967  1.00  0.00    -0.396 C  
HETATM    8  C   UNL     1     -10.500  11.029  65.515  1.00  0.00    -0.302 C  
HETATM    9  C   UNL     1      -9.645  10.675  64.330  1.00  0.00    -0.349 C  
HETATM   10  C   UNL     1     -11.280  12.306  65.275  1.00  0.00    -0.372 C  
HETATM   11  C   UNL     1      -8.913   9.108  68.167  1.00  0.00    -0.129 C  
HETATM   12  C   UNL     1      -9.730   9.004  66.851  1.00  0.00    -0.260 C  
HETATM   13  C   UNL     1      -8.695   8.693  65.728  1.00  0.00    -0.212 C  
HETATM   14  C   UNL     1      -8.783   9.431  64.403  1.00  0.00    -0.227 C  
ENDBRANCH   5   6
ENDBRANCH   2   4
BRANCH   3  15
HETATM   15  C   UNL     1     -11.824  14.578  68.806  1.00  0.00    -0.350 C  
HETATM   16  C   UNL     1     -10.586  14.976  68.473  1.00  0.00    -0.235 C  
BRANCH  16  17
HETATM   17  C   UNL     1     -10.355  16.046  67.507  1.00  0.00    -0.287 C  
HETATM   18  C   UNL     1     -10.392  18.498  66.985  1.00  0.00    -0.399 C  
HETATM   19  O   UNL     1     -10.041  18.459  65.820  1.00  0.00    -0.553 OA 
HETATM   20  C   UNL     1     -10.559  17.329  67.874  1.00  0.00    -0.384 C  
HETATM   21  C   UNL     1      -9.884  15.608  66.147  1.00  0.00    -0.340 C  
HETATM   22  O   UNL     1     -10.690  19.652  67.621  1.00  0.00    -0.445 OA 
ENDBRANCH  16  17
ENDBRANCH   3  15
TORSDOF 4
ENDMDL
MODEL       45
REMARK 921   NORMALIZED FREE ENERGY PREDICTED BY IDOCK:   -5.50 KCAL/MOL
REMARK 922        TOTAL FREE ENERGY PREDICTED BY IDOCK:   -8.18 KCAL/MOL
REMARK 923 INTER-LIGAND FREE ENERGY PREDICTED BY IDOCK:   -7.58 KCAL/MOL
REMARK 924 INTRA-LIGAND FREE ENERGY PREDICTED BY IDOCK:   -0.61 KCAL/MOL
REMARK 927      BINDING AFFINITY PREDICTED BY RF-SCORE:    0.00 PKD
ROOT
HETATM    1  C   UNL     1     -10.138   9.817  66.424  1.00  0.00    -0.313 C  
HETATM    2  C   UNL     1     -10.688  10.209  67.768  1.00  0.00    -0.328 C  
HETATM    3  C   UNL     1     -11.419  11.338  67.900  1.00  0.00    -0.360 C  
ENDROOT
BRANCH   2   4
HETATM    4  C   UNL     1     -10.439   9.296  68.875  1.00  0.00    -0.235 C  
HETATM    5  C   UNL     1     -10.029   9.659  70.101  1.00  0.00    -0.309 C  
BRANCH   5   6
HETATM    6  C   UNL     1      -9.865   8.744  71.242  1.00  0.00    -0.336 C  
HETATM    7  C   UNL     1     -11.778   7.101  70.861  1.00  0.00    -0.367 C  
HETATM    8  C   UNL     1      -8.638   8.544  71.766  1.00  0.00    -0.254 C  
HETATM    9  C   UNL     1      -8.376   7.697  72.980  1.00  0.00    -0.178 C  
HETATM   10  C   UNL     1      -7.358   9.141  71.219  1.00  0.00    -0.054 C  
HETATM   11  C   UNL     1     -12.195   9.234  72.106  1.00  0.00    -0.377 C  
HETATM   12  C   UNL     1     -11.147   8.120  71.841  1.00  0.00    -0.346 C  
HETATM   13  C   UNL     1     -10.952   7.384  73.201  1.00  0.00    -0.408 C  
HETATM   14  C   UNL     1      -9.551   7.031  73.668  1.00  0.00    -0.261 C  
ENDBRANCH   5   6
ENDBRANCH   2   4
BRANCH   3  15
HETATM   15  C   UNL     1     -11.954  11.838  69.147  1.00  0.00    -0.356 C  
HETATM   16  C   UNL     1     -11.807  13.090  69.608  1.00  0.00    -0.385 C  
BRANCH  16  17
HETATM   17  C   UNL     1     -12.321  13.496  70.913  1.00  0.00    -0.437 C  
HETATM   18  C   UNL     1     -12.516  15.269  72.675  1.00  0.00    -0.380 C  
HETATM   19  O   UNL     1     -13.152  14.652  73.509  1.00  0.00    -0.566 OA 
HETATM   20  C   UNL     1     -12.080  14.746  71.363  1.00  0.00    -0.401 C  
HETATM   21  C   UNL     1     -13.107  12.453  71.660  1.00  0.00    -0.408 C  
HETATM   22  O   UNL     1     -12.110  16.545  72.860  1.00  0.00    -0.517 OA 
ENDBRANCH  16  17
ENDBRANCH   3  15
TORSDOF 4
ENDMDL
MODEL       46
REMARK 921   NORMALIZED FREE ENERGY PREDICTED BY IDOCK:   -5.49 KCAL/MOL
REMARK 922        TOTAL FREE ENERGY PREDICTED BY IDOCK:   -8.17 KCAL/MOL
REMARK 923 INTER-LIGAND FREE ENERGY PREDICTED BY IDOCK:   -7.43 KCAL/MOL
REMARK 924 INTRA-LIGAND FREE ENERGY PREDICTED BY IDOCK:   -0.74 KCAL/MOL
REMARK 927      BINDING AFFINITY PREDICTED BY RF-SCORE:    0.00 PKD
ROOT
HETATM    1  C   UNL     1      -9.430   8.639  66.237  1.00  0.00    -0.307 C  
HETATM    2  C   UNL     1     -10.102   9.707  67.055  1.00  0.00    -0.275 C  
HETATM    3  C   UNL     1     -10.644   9.404  68.255  1.00  0.00    -0.256 C  
ENDROOT
BRANCH   2   4
HETATM    4  C   UNL     1     -10.084  11.061  66.517  1.00  0.00    -0.270 C  
HETATM    5  C   UNL     1     -11.170  11.774  66.179  1.00  0.00    -0.363 C  
BRANCH   5   6
HETATM    6  C   UNL     1     -11.153  13.172  65.721  1.00  0.00    -0.293 C  
HETATM    7  C   UNL     1      -9.061  14.065  66.875  1.00  0.00    -0.262 C  
HETATM    8  C   UNL     1     -11.688  13.489  64.524  1.00  0.00    -0.431 C  
HETATM    9  C   UNL     1     -11.795  14.894  64.002  1.00  0.00    -0.056 C  
HETATM   10  C   UNL     1     -12.259  12.486  63.541  1.00  0.00    -0.652 C  
HETATM   11  C   UNL     1     -11.252  14.061  68.091  1.00  0.00    -0.299 C  
HETATM   12  C   UNL     1     -10.591  14.232  66.696  1.00  0.00    -0.278 C  
HETATM   13  C   UNL     1     -10.842  15.713  66.282  1.00  0.00    -0.262 C  
HETATM   14  C   UNL     1     -11.284  16.030  64.865  1.00  0.00    -0.319 C  
ENDBRANCH   5   6
ENDBRANCH   2   4
BRANCH   3  15
HETATM   15  C   UNL     1     -11.355  10.334  69.104  1.00  0.00    -0.244 C  
HETATM   16  C   UNL     1     -11.800  10.071  70.343  1.00  0.00    -0.343 C  
BRANCH  16  17
HETATM   17  C   UNL     1     -12.573  11.047  71.107  1.00  0.00    -0.522 C  
HETATM   18  C   UNL     1     -13.094  13.450  71.593  1.00  0.00    -0.375 C  
HETATM   19  O   UNL     1     -13.913  13.301  72.482  1.00  0.00    -0.701 OA 
HETATM   20  C   UNL     1     -12.400  12.364  70.870  1.00  0.00    -0.358 C  
HETATM   21  C   UNL     1     -13.531  10.476  72.117  1.00  0.00    -0.265 C  
HETATM   22  O   UNL     1     -12.702  14.667  71.157  1.00  0.00    -0.300 OA 
ENDBRANCH  16  17
ENDBRANCH   3  15
TORSDOF 4
ENDMDL
MODEL       47
REMARK 921   NORMALIZED FREE ENERGY PREDICTED BY IDOCK:   -5.48 KCAL/MOL
REMARK 922        TOTAL FREE ENERGY PREDICTED BY IDOCK:   -8.16 KCAL/MOL
REMARK 923 INTER-LIGAND FREE ENERGY PREDICTED BY IDOCK:   -6.86 KCAL/MOL
REMARK 924 INTRA-LIGAND FREE ENERGY PREDICTED BY IDOCK:   -1.29 KCAL/MOL
REMARK 927      BINDING AFFINITY PREDICTED BY RF-SCORE:    0.00 PKD
ROOT
HETATM    1  C   UNL     1     -11.414  14.831  66.188  1.00  0.00    -0.311 C  
HETATM    2  C   UNL     1     -11.136  13.677  67.110  1.00  0.00    -0.311 C  
HETATM    3  C   UNL     1     -11.674  13.651  68.349  1.00  0.00    -0.393 C  
ENDROOT
BRANCH   2   4
HETATM    4  C   UNL     1     -10.319  12.592  66.583  1.00  0.00    -0.244 C  
HETATM    5  C   UNL     1     -10.789  11.429  66.105  1.00  0.00    -0.310 C  
BRANCH   5   6
HETATM    6  C   UNL     1      -9.967  10.374  65.492  1.00  0.00    -0.348 C  
HETATM    7  C   UNL     1     -10.507   8.374  66.979  1.00  0.00    -0.375 C  
HETATM    8  C   UNL     1      -9.689  10.427  64.173  1.00  0.00    -0.387 C  
HETATM    9  C   UNL     1      -8.793   9.447  63.468  1.00  0.00    -0.198 C  
HETATM   10  C   UNL     1     -10.228  11.473  63.218  1.00  0.00    -0.432 C  
HETATM   11  C   UNL     1      -8.692   9.969  67.642  1.00  0.00    -0.121 C  
HETATM   12  C   UNL     1      -9.387   9.291  66.430  1.00  0.00    -0.247 C  
HETATM   13  C   UNL     1      -8.312   8.363  65.786  1.00  0.00    -0.150 C  
HETATM   14  C   UNL     1      -8.153   8.337  64.276  1.00  0.00    -0.147 C  
ENDBRANCH   5   6
ENDBRANCH   2   4
BRANCH   3  15
HETATM   15  C   UNL     1     -11.437  12.621  69.337  1.00  0.00    -0.330 C  
HETATM   16  C   UNL     1     -12.156  11.496  69.473  1.00  0.00    -0.351 C  
BRANCH  16  17
HETATM   17  C   UNL     1     -11.893  10.539  70.543  1.00  0.00    -0.442 C  
HETATM   18  C   UNL     1     -10.407   8.761  71.500  1.00  0.00    -0.303 C  
HETATM   19  O   UNL     1     -11.054   8.472  72.490  1.00  0.00    -0.355 OA 
HETATM   20  C   UNL     1     -10.773   9.785  70.500  1.00  0.00    -0.381 C  
HETATM   21  C   UNL     1     -12.923  10.482  71.639  1.00  0.00    -0.581 C  
HETATM   22  O   UNL     1      -9.243   8.151  71.183  1.00  0.00    -0.144 OA 
ENDBRANCH  16  17
ENDBRANCH   3  15
TORSDOF 4
ENDMDL
MODEL       48
REMARK 921   NORMALIZED FREE ENERGY PREDICTED BY IDOCK:   -5.47 KCAL/MOL
REMARK 922        TOTAL FREE ENERGY PREDICTED BY IDOCK:   -8.15 KCAL/MOL
REMARK 923 INTER-LIGAND FREE ENERGY PREDICTED BY IDOCK:   -7.12 KCAL/MOL
REMARK 924 INTRA-LIGAND FREE ENERGY PREDICTED BY IDOCK:   -1.03 KCAL/MOL
REMARK 927      BINDING AFFINITY PREDICTED BY RF-SCORE:    0.00 PKD
ROOT
HETATM    1  C   UNL     1      -9.641   9.660  65.449  1.00  0.00    -0.361 C  
HETATM    2  C   UNL     1     -10.305  10.362  66.602  1.00  0.00    -0.292 C  
HETATM    3  C   UNL     1     -10.448  11.705  66.589  1.00  0.00    -0.268 C  
ENDROOT
BRANCH   2   4
HETATM    4  C   UNL     1     -10.818   9.524  67.678  1.00  0.00    -0.253 C  
HETATM    5  C   UNL     1     -10.099   9.070  68.717  1.00  0.00    -0.214 C  
BRANCH   5   6
HETATM    6  C   UNL     1     -10.642   8.300  69.847  1.00  0.00    -0.232 C  
HETATM    7  C   UNL     1      -8.914   6.439  70.077  1.00  0.00    -0.146 C  
HETATM    8  C   UNL     1     -11.377   8.926  70.789  1.00  0.00    -0.325 C  
HETATM    9  C   UNL     1     -12.044   8.218  71.935  1.00  0.00    -0.382 C  
HETATM   10  C   UNL     1     -11.641  10.418  70.829  1.00  0.00    -0.450 C  
HETATM   11  C   UNL     1     -10.813   6.186  68.462  1.00  0.00    -0.389 C  
HETATM   12  C   UNL     1     -10.408   6.772  69.842  1.00  0.00    -0.229 C  
HETATM   13  C   UNL     1     -11.225   5.973  70.902  1.00  0.00    -0.335 C  
HETATM   14  C   UNL     1     -11.897   6.714  72.044  1.00  0.00    -0.365 C  
ENDBRANCH   5   6
ENDBRANCH   2   4
BRANCH   3  15
HETATM   15  C   UNL     1     -11.023  12.489  67.660  1.00  0.00    -0.279 C  
HETATM   16  C   UNL     1     -11.166  13.824  67.655  1.00  0.00    -0.316 C  
BRANCH  16  17
HETATM   17  C   UNL     1     -11.693  14.546  68.809  1.00  0.00    -0.362 C  
HETATM   18  C   UNL     1     -12.811  14.465  71.051  1.00  0.00    -0.353 C  
HETATM   19  O   UNL     1     -12.894  15.659  71.276  1.00  0.00    -0.453 OA 
HETATM   20  C   UNL     1     -12.218  13.855  69.843  1.00  0.00    -0.393 C  
HETATM   21  C   UNL     1     -11.592  16.046  68.743  1.00  0.00    -0.352 C  
HETATM   22  O   UNL     1     -13.277  13.526  71.903  1.00  0.00    -0.375 OA 
ENDBRANCH  16  17
ENDBRANCH   3  15
TORSDOF 4
ENDMDL
MODEL       49
REMARK 921   NORMALIZED FREE ENERGY PREDICTED BY IDOCK:   -5.44 KCAL/MOL
REMARK 922        TOTAL FREE ENERGY PREDICTED BY IDOCK:   -8.10 KCAL/MOL
REMARK 923 INTER-LIGAND FREE ENERGY PREDICTED BY IDOCK:   -6.68 KCAL/MOL
REMARK 924 INTRA-LIGAND FREE ENERGY PREDICTED BY IDOCK:   -1.42 KCAL/MOL
REMARK 927      BINDING AFFINITY PREDICTED BY RF-SCORE:    0.00 PKD
ROOT
HETATM    1  C   UNL     1     -12.792  11.509  71.396  1.00  0.00    -0.489 C  
HETATM    2  C   UNL     1     -11.979  11.512  70.132  1.00  0.00    -0.452 C  
HETATM    3  C   UNL     1     -11.394  10.374  69.697  1.00  0.00    -0.333 C  
ENDROOT
BRANCH   2   4
HETATM    4  C   UNL     1     -11.907  12.767  69.395  1.00  0.00    -0.359 C  
HETATM    5  C   UNL     1     -10.807  13.526  69.262  1.00  0.00    -0.107 C  
BRANCH   5   6
HETATM    6  C   UNL     1     -10.716  14.745  68.443  1.00  0.00    -0.243 C  
HETATM    7  C   UNL     1     -11.620  13.927  66.203  1.00  0.00    -0.371 C  
HETATM    8  C   UNL     1     -10.818  15.954  69.033  1.00  0.00    -0.266 C  
HETATM    9  C   UNL     1     -10.656  17.257  68.301  1.00  0.00    -0.383 C  
HETATM   10  C   UNL     1     -11.101  16.176  70.505  1.00  0.00    -0.338 C  
HETATM   11  C   UNL     1      -9.195  13.626  66.756  1.00  0.00    -0.251 C  
HETATM   12  C   UNL     1     -10.416  14.568  66.937  1.00  0.00    -0.269 C  
HETATM   13  C   UNL     1     -10.062  15.879  66.173  1.00  0.00    -0.334 C  
HETATM   14  C   UNL     1     -10.353  17.223  66.817  1.00  0.00    -0.308 C  
ENDBRANCH   5   6
ENDBRANCH   2   4
BRANCH   3  15
HETATM   15  C   UNL     1     -10.550  10.270  68.526  1.00  0.00    -0.240 C  
HETATM   16  C   UNL     1     -10.982  10.034  67.277  1.00  0.00    -0.225 C  
BRANCH  16  17
HETATM   17  C   UNL     1     -10.056   9.873  66.160  1.00  0.00    -0.315 C  
HETATM   18  C   UNL     1      -9.293  10.625  63.893  1.00  0.00    -0.267 C  
HETATM   19  O   UNL     1      -8.399   9.820  63.707  1.00  0.00    -0.144 OA 
HETATM   20  C   UNL     1     -10.146  10.702  65.098  1.00  0.00    -0.374 C  
HETATM   21  C   UNL     1      -9.045   8.768  66.302  1.00  0.00    -0.240 C  
HETATM   22  O   UNL     1      -9.629  11.569  62.986  1.00  0.00    -0.374 OA 
ENDBRANCH  16  17
ENDBRANCH   3  15
TORSDOF 4
ENDMDL
MODEL       50
REMARK 921   NORMALIZED FREE ENERGY PREDICTED BY IDOCK:   -5.41 KCAL/MOL
REMARK 922        TOTAL FREE ENERGY PREDICTED BY IDOCK:   -8.07 KCAL/MOL
REMARK 923 INTER-LIGAND FREE ENERGY PREDICTED BY IDOCK:   -7.09 KCAL/MOL
REMARK 924 INTRA-LIGAND FREE ENERGY PREDICTED BY IDOCK:   -0.98 KCAL/MOL
REMARK 927      BINDING AFFINITY PREDICTED BY RF-SCORE:    0.00 PKD
ROOT
HETATM    1  C   UNL     1     -13.087  11.813  72.185  1.00  0.00    -0.308 C  
HETATM    2  C   UNL     1     -12.487  12.261  70.881  1.00  0.00    -0.371 C  
HETATM    3  C   UNL     1     -12.259  13.573  70.652  1.00  0.00    -0.434 C  
ENDROOT
BRANCH   2   4
HETATM    4  C   UNL     1     -12.126  11.219  69.928  1.00  0.00    -0.414 C  
HETATM    5  C   UNL     1     -10.895  10.705  69.772  1.00  0.00    -0.317 C  
BRANCH   5   6
HETATM    6  C   UNL     1     -10.554   9.592  68.872  1.00  0.00    -0.239 C  
HETATM    7  C   UNL     1     -11.331   7.578  70.230  1.00  0.00    -0.219 C  
HETATM    8  C   UNL     1     -10.545   9.791  67.538  1.00  0.00    -0.335 C  
HETATM    9  C   UNL     1     -10.130   8.745  66.540  1.00  0.00    -0.349 C  
HETATM   10  C   UNL     1     -10.942  11.084  66.855  1.00  0.00    -0.311 C  
HETATM   11  C   UNL     1      -9.040   8.522  70.598  1.00  0.00    -0.184 C  
HETATM   12  C   UNL     1     -10.130   8.256  69.525  1.00  0.00    -0.197 C  
HETATM   13  C   UNL     1      -9.521   7.205  68.549  1.00  0.00    -0.139 C  
HETATM   14  C   UNL     1      -9.686   7.390  67.051  1.00  0.00    -0.248 C  
ENDBRANCH   5   6
ENDBRANCH   2   4
BRANCH   3  15
HETATM   15  C   UNL     1     -11.736  14.122  69.420  1.00  0.00    -0.361 C  
HETATM   16  C   UNL     1     -11.542  15.427  69.173  1.00  0.00    -0.354 C  
BRANCH  16  17
HETATM   17  C   UNL     1     -11.073  15.903  67.875  1.00  0.00    -0.317 C  
HETATM   18  C   UNL     1     -10.509  15.388  65.487  1.00  0.00    -0.380 C  
HETATM   19  O   UNL     1     -10.129  16.488  65.130  1.00  0.00    -0.536 OA 
HETATM   20  C   UNL     1     -10.996  15.041  66.839  1.00  0.00    -0.324 C  
HETATM   21  C   UNL     1     -10.716  17.363  67.804  1.00  0.00    -0.332 C  
HETATM   22  O   UNL     1     -10.523  14.316  64.664  1.00  0.00    -0.425 OA 
ENDBRANCH  16  17
ENDBRANCH   3  15
TORSDOF 4
ENDMDL
MODEL       51
REMARK 921   NORMALIZED FREE ENERGY PREDICTED BY IDOCK:   -5.40 KCAL/MOL
REMARK 922        TOTAL FREE ENERGY PREDICTED BY IDOCK:   -8.06 KCAL/MOL
REMARK 923 INTER-LIGAND FREE ENERGY PREDICTED BY IDOCK:   -7.09 KCAL/MOL
REMARK 924 INTRA-LIGAND FREE ENERGY PREDICTED BY IDOCK:   -0.97 KCAL/MOL
REMARK 927      BINDING AFFINITY PREDICTED BY RF-SCORE:    0.00 PKD
ROOT
HETATM    1  C   UNL     1      -6.570   9.617  67.427  1.00  0.00    -0.070 C  
HETATM    2  C   UNL     1      -7.922   9.739  68.075  1.00  0.00    -0.097 C  
HETATM    3  C   UNL     1      -8.074   9.464  69.389  1.00  0.00    -0.105 C  
ENDROOT
BRANCH   2   4
HETATM    4  C   UNL     1      -9.016  10.212  67.237  1.00  0.00    -0.144 C  
HETATM    5  C   UNL     1      -9.033  11.376  66.567  1.00  0.00    -0.192 C  
BRANCH   5   6
HETATM    6  C   UNL     1     -10.100  11.808  65.651  1.00  0.00    -0.278 C  
HETATM    7  C   UNL     1     -10.541  14.185  66.463  1.00  0.00    -0.282 C  
HETATM    8  C   UNL     1     -10.164  11.287  64.409  1.00  0.00    -0.377 C  
HETATM    9  C   UNL     1     -11.260  11.598  63.428  1.00  0.00    -0.401 C  
HETATM   10  C   UNL     1      -9.156  10.317  63.825  1.00  0.00    -0.285 C  
HETATM   11  C   UNL     1     -11.702  12.256  67.561  1.00  0.00    -0.402 C  
HETATM   12  C   UNL     1     -11.158  12.788  66.207  1.00  0.00    -0.321 C  
HETATM   13  C   UNL     1     -12.406  13.001  65.298  1.00  0.00    -0.537 C  
HETATM   14  C   UNL     1     -12.366  12.544  63.851  1.00  0.00    -0.576 C  
ENDBRANCH   5   6
ENDBRANCH   2   4
BRANCH   3  15
HETATM   15  C   UNL     1      -9.330   9.498  70.105  1.00  0.00    -0.286 C  
HETATM   16  C   UNL     1     -10.122   8.439  70.334  1.00  0.00    -0.202 C  
BRANCH  16  17
HETATM   17  C   UNL     1     -11.412   8.572  71.006  1.00  0.00    -0.313 C  
HETATM   18  C   UNL     1     -13.173  10.074  71.969  1.00  0.00    -0.443 C  
HETATM   19  O   UNL     1     -13.946   9.232  72.387  1.00  0.00    -0.460 OA 
HETATM   20  C   UNL     1     -11.900   9.803  71.269  1.00  0.00    -0.481 C  
HETATM   21  C   UNL     1     -12.108   7.283  71.347  1.00  0.00    -0.370 C  
HETATM   22  O   UNL     1     -13.389  11.400  72.111  1.00  0.00    -0.469 OA 
ENDBRANCH  16  17
ENDBRANCH   3  15
TORSDOF 4
ENDMDL
MODEL       52
REMARK 921   NORMALIZED FREE ENERGY PREDICTED BY IDOCK:   -5.37 KCAL/MOL
REMARK 922        TOTAL FREE ENERGY PREDICTED BY IDOCK:   -8.02 KCAL/MOL
REMARK 923 INTER-LIGAND FREE ENERGY PREDICTED BY IDOCK:   -7.18 KCAL/MOL
REMARK 924 INTRA-LIGAND FREE ENERGY PREDICTED BY IDOCK:   -0.84 KCAL/MOL
REMARK 927      BINDING AFFINITY PREDICTED BY RF-SCORE:    0.00 PKD
ROOT
HETATM    1  C   UNL     1     -14.011  15.406  72.063  1.00  0.00    -0.640 C  
HETATM    2  C   UNL     1     -13.399  14.167  71.472  1.00  0.00    -0.424 C  
HETATM    3  C   UNL     1     -13.474  12.990  72.133  1.00  0.00    -0.638 C  
ENDROOT
BRANCH   2   4
HETATM    4  C   UNL     1     -12.784  14.295  70.158  1.00  0.00    -0.246 C  
HETATM    5  C   UNL     1     -11.465  14.257  69.911  1.00  0.00    -0.301 C  
BRANCH   5   6
HETATM    6  C   UNL     1     -10.854  14.297  68.573  1.00  0.00    -0.264 C  
HETATM    7  C   UNL     1      -8.807  15.760  68.988  1.00  0.00    -0.236 C  
HETATM    8  C   UNL     1     -11.024  13.257  67.731  1.00  0.00    -0.278 C  
HETATM    9  C   UNL     1     -10.513  13.235  66.317  1.00  0.00    -0.289 C  
HETATM   10  C   UNL     1     -11.751  11.974  68.078  1.00  0.00    -0.398 C  
HETATM   11  C   UNL     1     -11.014  16.822  68.461  1.00  0.00    -0.312 C  
HETATM   12  C   UNL     1     -10.112  15.592  68.171  1.00  0.00    -0.218 C  
HETATM   13  C   UNL     1      -9.722  15.692  66.665  1.00  0.00    -0.266 C  
HETATM   14  C   UNL     1      -9.771  14.448  65.795  1.00  0.00    -0.283 C  
ENDBRANCH   5   6
ENDBRANCH   2   4
BRANCH   3  15
HETATM   15  C   UNL     1     -12.881  11.749  71.687  1.00  0.00    -0.433 C  
HETATM   16  C   UNL     1     -13.216  10.526  72.127  1.00  0.00    -0.398 C  
BRANCH  16  17
HETATM   17  C   UNL     1     -12.518   9.326  71.675  1.00  0.00    -0.448 C  
HETATM   18  C   UNL     1     -12.330   6.826  71.701  1.00  0.00    -0.362 C  
HETATM   19  O   UNL     1     -11.340   6.693  71.006  1.00  0.00    -0.280 OA 
HETATM   20  C   UNL     1     -12.964   8.112  72.062  1.00  0.00    -0.329 C  
HETATM   21  C   UNL     1     -11.330   9.558  70.781  1.00  0.00    -0.387 C  
HETATM   22  O   UNL     1     -12.983   5.779  72.252  1.00  0.00     0.250 OA 
ENDBRANCH  16  17
ENDBRANCH   3  15
TORSDOF 4
ENDMDL
MODEL       53
REMARK 921   NORMALIZED FREE ENERGY PREDICTED BY IDOCK:   -5.34 KCAL/MOL
REMARK 922        TOTAL FREE ENERGY PREDICTED BY IDOCK:   -7.99 KCAL/MOL
REMARK 923 INTER-LIGAND FREE ENERGY PREDICTED BY IDOCK:   -7.11 KCAL/MOL
REMARK 924 INTRA-LIGAND FREE ENERGY PREDICTED BY IDOCK:   -0.87 KCAL/MOL
REMARK 927      BINDING AFFINITY PREDICTED BY RF-SCORE:    0.00 PKD
ROOT
HETATM    1  C   UNL     1      -7.881   8.572  65.668  1.00  0.00    -0.102 C  
HETATM    2  C   UNL     1      -8.995   8.949  66.606  1.00  0.00    -0.165 C  
HETATM    3  C   UNL     1      -9.397   8.086  67.565  1.00  0.00    -0.171 C  
ENDROOT
BRANCH   2   4
HETATM    4  C   UNL     1      -9.560  10.284  66.458  1.00  0.00    -0.228 C  
HETATM    5  C   UNL     1     -10.711  10.572  65.830  1.00  0.00    -0.061 C  
BRANCH   5   6
HETATM    6  C   UNL     1     -11.324  11.909  65.761  1.00  0.00    -0.354 C  
HETATM    7  C   UNL     1     -12.622  11.765  63.571  1.00  0.00    -0.485 C  
HETATM    8  C   UNL     1     -11.611  12.571  66.901  1.00  0.00    -0.436 C  
HETATM    9  C   UNL     1     -12.158  13.970  66.938  1.00  0.00    -0.465 C  
HETATM   10  C   UNL     1     -11.421  12.011  68.296  1.00  0.00    -0.361 C  
HETATM   11  C   UNL     1     -10.204  12.422  63.548  1.00  0.00    -0.339 C  
HETATM   12  C   UNL     1     -11.525  12.524  64.358  1.00  0.00    -0.406 C  
HETATM   13  C   UNL     1     -11.918  14.033  64.346  1.00  0.00    -0.480 C  
HETATM   14  C   UNL     1     -12.397  14.692  65.628  1.00  0.00    -0.151 C  
ENDBRANCH   5   6
ENDBRANCH   2   4
BRANCH   3  15
HETATM   15  C   UNL     1     -10.487   8.320  68.487  1.00  0.00    -0.199 C  
HETATM   16  C   UNL     1     -10.359   8.487  69.812  1.00  0.00    -0.212 C  
BRANCH  16  17
HETATM   17  C   UNL     1     -11.520   8.649  70.683  1.00  0.00    -0.256 C  
HETATM   18  C   UNL     1     -13.093  10.191  71.881  1.00  0.00    -0.466 C  
HETATM   19  O   UNL     1     -13.790   9.366  72.444  1.00  0.00    -0.451 OA 
HETATM   20  C   UNL     1     -11.954   9.891  70.988  1.00  0.00    -0.456 C  
HETATM   21  C   UNL     1     -12.154   7.375  71.171  1.00  0.00    -0.357 C  
HETATM   22  O   UNL     1     -13.279  11.522  72.019  1.00  0.00    -0.509 OA 
ENDBRANCH  16  17
ENDBRANCH   3  15
TORSDOF 4
ENDMDL
MODEL       54
REMARK 921   NORMALIZED FREE ENERGY PREDICTED BY IDOCK:   -5.34 KCAL/MOL
REMARK 922        TOTAL FREE ENERGY PREDICTED BY IDOCK:   -7.98 KCAL/MOL
REMARK 923 INTER-LIGAND FREE ENERGY PREDICTED BY IDOCK:   -6.97 KCAL/MOL
REMARK 924 INTRA-LIGAND FREE ENERGY PREDICTED BY IDOCK:   -1.02 KCAL/MOL
REMARK 927      BINDING AFFINITY PREDICTED BY RF-SCORE:    0.00 PKD
ROOT
HETATM    1  C   UNL     1     -13.200  11.527  72.065  1.00  0.00    -0.443 C  
HETATM    2  C   UNL     1     -12.647  12.059  70.772  1.00  0.00    -0.312 C  
HETATM    3  C   UNL     1     -12.558  13.391  70.567  1.00  0.00    -0.281 C  
ENDROOT
BRANCH   2   4
HETATM    4  C   UNL     1     -12.174  11.078  69.803  1.00  0.00    -0.388 C  
HETATM    5  C   UNL     1     -10.889  10.746  69.600  1.00  0.00    -0.294 C  
BRANCH   5   6
HETATM    6  C   UNL     1     -10.424   9.692  68.685  1.00  0.00    -0.235 C  
HETATM    7  C   UNL     1      -8.579  10.902  67.405  1.00  0.00    -0.127 C  
HETATM    8  C   UNL     1     -10.523   8.398  69.053  1.00  0.00    -0.216 C  
HETATM    9  C   UNL     1     -10.154   7.245  68.161  1.00  0.00    -0.201 C  
HETATM   10  C   UNL     1     -11.020   7.919  70.402  1.00  0.00    -0.251 C  
HETATM   11  C   UNL     1     -10.957  11.086  66.639  1.00  0.00    -0.253 C  
HETATM   12  C   UNL     1      -9.919  10.134  67.292  1.00  0.00    -0.241 C  
HETATM   13  C   UNL     1      -9.697   8.977  66.271  1.00  0.00    -0.345 C  
HETATM   14  C   UNL     1      -9.649   7.542  66.763  1.00  0.00    -0.265 C  
ENDBRANCH   5   6
ENDBRANCH   2   4
BRANCH   3  15
HETATM   15  C   UNL     1     -12.091  14.014  69.348  1.00  0.00    -0.386 C  
HETATM   16  C   UNL     1     -11.395  15.160  69.279  1.00  0.00    -0.313 C  
BRANCH  16  17
HETATM   17  C   UNL     1     -11.020  15.758  68.001  1.00  0.00    -0.330 C  
HETATM   18  C   UNL     1     -10.615  15.468  65.544  1.00  0.00    -0.396 C  
HETATM   19  O   UNL     1     -10.271  16.601  65.263  1.00  0.00    -0.600 OA 
HETATM   20  C   UNL     1     -11.004  14.993  66.888  1.00  0.00    -0.324 C  
HETATM   21  C   UNL     1     -10.685  17.224  68.038  1.00  0.00    -0.367 C  
HETATM   22  O   UNL     1     -10.672  14.473  64.631  1.00  0.00    -0.399 OA 
ENDBRANCH  16  17
ENDBRANCH   3  15
TORSDOF 4
ENDMDL
MODEL       55
REMARK 921   NORMALIZED FREE ENERGY PREDICTED BY IDOCK:   -5.32 KCAL/MOL
REMARK 922        TOTAL FREE ENERGY PREDICTED BY IDOCK:   -7.97 KCAL/MOL
REMARK 923 INTER-LIGAND FREE ENERGY PREDICTED BY IDOCK:   -7.34 KCAL/MOL
REMARK 924 INTRA-LIGAND FREE ENERGY PREDICTED BY IDOCK:   -0.62 KCAL/MOL
REMARK 927      BINDING AFFINITY PREDICTED BY RF-SCORE:    0.00 PKD
ROOT
HETATM    1  C   UNL     1      -8.227   9.554  67.095  1.00  0.00    -0.113 C  
HETATM    2  C   UNL     1      -9.123  10.306  68.040  1.00  0.00    -0.132 C  
HETATM    3  C   UNL     1      -9.632   9.689  69.129  1.00  0.00    -0.176 C  
ENDROOT
BRANCH   2   4
HETATM    4  C   UNL     1      -9.358  11.714  67.749  1.00  0.00    -0.178 C  
HETATM    5  C   UNL     1      -9.368  12.261  66.523  1.00  0.00    -0.230 C  
BRANCH   5   6
HETATM    6  C   UNL     1      -9.694  13.665  66.227  1.00  0.00    -0.295 C  
HETATM    7  C   UNL     1     -12.239  13.580  66.085  1.00  0.00    -0.484 C  
HETATM    8  C   UNL     1      -8.879  14.646  66.666  1.00  0.00    -0.240 C  
HETATM    9  C   UNL     1      -9.078  16.102  66.347  1.00  0.00    -0.339 C  
HETATM   10  C   UNL     1      -7.654  14.429  67.531  1.00  0.00    -0.212 C  
HETATM   11  C   UNL     1     -10.858  13.048  64.064  1.00  0.00    -0.408 C  
HETATM   12  C   UNL     1     -10.930  13.933  65.338  1.00  0.00    -0.316 C  
HETATM   13  C   UNL     1     -11.075  15.400  64.831  1.00  0.00    -0.435 C  
HETATM   14  C   UNL     1     -10.252  16.501  65.477  1.00  0.00    -0.261 C  
ENDBRANCH   5   6
ENDBRANCH   2   4
BRANCH   3  15
HETATM   15  C   UNL     1     -10.542  10.295  70.077  1.00  0.00    -0.321 C  
HETATM   16  C   UNL     1     -11.664  10.959  69.760  1.00  0.00    -0.413 C  
BRANCH  16  17
HETATM   17  C   UNL     1     -12.492  11.602  70.776  1.00  0.00    -0.425 C  
HETATM   18  C   UNL     1     -13.429  13.716  71.744  1.00  0.00    -0.384 C  
HETATM   19  O   UNL     1     -14.041  13.250  72.688  1.00  0.00    -0.744 OA 
HETATM   20  C   UNL     1     -12.647  12.943  70.757  1.00  0.00    -0.314 C  
HETATM   21  C   UNL     1     -13.127  10.680  71.782  1.00  0.00    -0.571 C  
HETATM   22  O   UNL     1     -13.384  15.041  71.484  1.00  0.00    -0.353 OA 
ENDBRANCH  16  17
ENDBRANCH   3  15
TORSDOF 4
ENDMDL
MODEL       56
REMARK 921   NORMALIZED FREE ENERGY PREDICTED BY IDOCK:   -5.31 KCAL/MOL
REMARK 922        TOTAL FREE ENERGY PREDICTED BY IDOCK:   -7.95 KCAL/MOL
REMARK 923 INTER-LIGAND FREE ENERGY PREDICTED BY IDOCK:   -7.09 KCAL/MOL
REMARK 924 INTRA-LIGAND FREE ENERGY PREDICTED BY IDOCK:   -0.86 KCAL/MOL
REMARK 927      BINDING AFFINITY PREDICTED BY RF-SCORE:    0.00 PKD
ROOT
HETATM    1  C   UNL     1     -11.532  15.434  64.523  1.00  0.00    -0.314 C  
HETATM    2  C   UNL     1     -11.304  14.748  65.842  1.00  0.00    -0.331 C  
HETATM    3  C   UNL     1     -11.892  13.559  66.100  1.00  0.00    -0.426 C  
ENDROOT
BRANCH   2   4
HETATM    4  C   UNL     1     -10.394  15.398  66.776  1.00  0.00    -0.279 C  
HETATM    5  C   UNL     1      -9.348  16.166  66.432  1.00  0.00    -0.329 C  
BRANCH   5   6
HETATM    6  C   UNL     1      -8.486  16.892  67.378  1.00  0.00    -0.204 C  
HETATM    7  C   UNL     1     -10.179  18.375  68.578  1.00  0.00    -0.394 C  
HETATM    8  C   UNL     1      -7.360  16.309  67.837  1.00  0.00    -0.140 C  
HETATM    9  C   UNL     1      -6.372  16.996  68.739  1.00  0.00    -0.172 C  
HETATM   10  C   UNL     1      -6.926  14.894  67.513  1.00  0.00    -0.203 C  
HETATM   11  C   UNL     1      -9.155  19.141  66.423  1.00  0.00    -0.362 C  
HETATM   12  C   UNL     1      -8.884  18.344  67.728  1.00  0.00    -0.289 C  
HETATM   13  C   UNL     1      -7.807  19.156  68.509  1.00  0.00    -0.380 C  
HETATM   14  C   UNL     1      -6.642  18.427  69.154  1.00  0.00    -0.280 C  
ENDBRANCH   5   6
ENDBRANCH   2   4
BRANCH   3  15
HETATM   15  C   UNL     1     -11.785  12.834  67.347  1.00  0.00    -0.425 C  
HETATM   16  C   UNL     1     -11.455  11.539  67.466  1.00  0.00    -0.355 C  
BRANCH  16  17
HETATM   17  C   UNL     1     -11.438  10.864  68.760  1.00  0.00    -0.376 C  
HETATM   18  C   UNL     1     -12.308  10.724  71.108  1.00  0.00    -0.393 C  
HETATM   19  O   UNL     1     -11.643   9.787  71.511  1.00  0.00    -0.380 OA 
HETATM   20  C   UNL     1     -12.252  11.297  69.747  1.00  0.00    -0.343 C  
HETATM   21  C   UNL     1     -10.490   9.701  68.880  1.00  0.00    -0.234 C  
HETATM   22  O   UNL     1     -13.198  11.377  71.885  1.00  0.00    -0.484 OA 
ENDBRANCH  16  17
ENDBRANCH   3  15
TORSDOF 4
ENDMDL
MODEL       57
REMARK 921   NORMALIZED FREE ENERGY PREDICTED BY IDOCK:   -5.31 KCAL/MOL
REMARK 922        TOTAL FREE ENERGY PREDICTED BY IDOCK:   -7.95 KCAL/MOL
REMARK 923 INTER-LIGAND FREE ENERGY PREDICTED BY IDOCK:   -6.79 KCAL/MOL
REMARK 924 INTRA-LIGAND FREE ENERGY PREDICTED BY IDOCK:   -1.16 KCAL/MOL
REMARK 927      BINDING AFFINITY PREDICTED BY RF-SCORE:    0.00 PKD
ROOT
HETATM    1  C   UNL     1      -9.017   8.117  65.858  1.00  0.00    -0.195 C  
HETATM    2  C   UNL     1      -9.750   9.331  66.361  1.00  0.00    -0.325 C  
HETATM    3  C   UNL     1      -9.673  10.499  65.686  1.00  0.00    -0.289 C  
ENDROOT
BRANCH   2   4
HETATM    4  C   UNL     1     -10.567   9.161  67.555  1.00  0.00    -0.317 C  
HETATM    5  C   UNL     1     -10.096   8.939  68.792  1.00  0.00    -0.215 C  
BRANCH   5   6
HETATM    6  C   UNL     1     -10.920   8.858  70.008  1.00  0.00    -0.217 C  
HETATM    7  C   UNL     1      -9.640   7.133  71.382  1.00  0.00    -0.163 C  
HETATM    8  C   UNL     1     -11.630   9.934  70.406  1.00  0.00    -0.356 C  
HETATM    9  C   UNL     1     -12.565   9.930  71.583  1.00  0.00    -0.519 C  
HETATM   10  C   UNL     1     -11.594  11.290  69.730  1.00  0.00    -0.408 C  
HETATM   11  C   UNL     1     -11.330   6.379  69.693  1.00  0.00    -0.479 C  
HETATM   12  C   UNL     1     -10.996   7.490  70.724  1.00  0.00    -0.265 C  
HETATM   13  C   UNL     1     -12.083   7.383  71.835  1.00  0.00    -0.341 C  
HETATM   14  C   UNL     1     -12.735   8.646  72.370  1.00  0.00    -0.423 C  
ENDBRANCH   5   6
ENDBRANCH   2   4
BRANCH   3  15
HETATM   15  C   UNL     1     -10.293  11.738  66.100  1.00  0.00    -0.266 C  
HETATM   16  C   UNL     1      -9.700  12.695  66.832  1.00  0.00    -0.234 C  
BRANCH  16  17
HETATM   17  C   UNL     1     -10.420  13.888  67.268  1.00  0.00    -0.271 C  
HETATM   18  C   UNL     1     -10.345  16.168  68.309  1.00  0.00    -0.266 C  
HETATM   19  O   UNL     1     -11.533  16.430  68.302  1.00  0.00    -0.312 OA 
HETATM   20  C   UNL     1      -9.734  14.921  67.802  1.00  0.00    -0.212 C  
HETATM   21  C   UNL     1     -11.911  13.862  67.067  1.00  0.00    -0.459 C  
HETATM   22  O   UNL     1      -9.413  17.010  68.807  1.00  0.00    -0.260 OA 
ENDBRANCH  16  17
ENDBRANCH   3  15
TORSDOF 4
ENDMDL
MODEL       58
REMARK 921   NORMALIZED FREE ENERGY PREDICTED BY IDOCK:   -5.30 KCAL/MOL
REMARK 922        TOTAL FREE ENERGY PREDICTED BY IDOCK:   -7.94 KCAL/MOL
REMARK 923 INTER-LIGAND FREE ENERGY PREDICTED BY IDOCK:   -7.04 KCAL/MOL
REMARK 924 INTRA-LIGAND FREE ENERGY PREDICTED BY IDOCK:   -0.90 KCAL/MOL
REMARK 927      BINDING AFFINITY PREDICTED BY RF-SCORE:    0.00 PKD
ROOT
HETATM    1  C   UNL     1     -11.254  12.030  65.834  1.00  0.00    -0.385 C  
HETATM    2  C   UNL     1     -11.142  11.458  67.220  1.00  0.00    -0.363 C  
HETATM    3  C   UNL     1     -10.324  10.409  67.459  1.00  0.00    -0.268 C  
ENDROOT
BRANCH   2   4
HETATM    4  C   UNL     1     -11.905  12.118  68.271  1.00  0.00    -0.361 C  
HETATM    5  C   UNL     1     -11.411  12.517  69.454  1.00  0.00    -0.275 C  
BRANCH   5   6
HETATM    6  C   UNL     1     -12.163  13.264  70.475  1.00  0.00    -0.416 C  
HETATM    7  C   UNL     1     -12.761  15.397  69.213  1.00  0.00     0.303 C  
HETATM    8  C   UNL     1     -12.848  12.592  71.423  1.00  0.00    -0.359 C  
HETATM    9  C   UNL     1     -13.578  13.258  72.556  1.00  0.00    -0.637 C  
HETATM   10  C   UNL     1     -12.979  11.084  71.488  1.00  0.00    -0.553 C  
HETATM   11  C   UNL     1     -10.553  15.217  70.383  1.00  0.00    -0.225 C  
HETATM   12  C   UNL     1     -12.049  14.805  70.454  1.00  0.00    -0.381 C  
HETATM   13  C   UNL     1     -12.633  15.530  71.704  1.00  0.00    -0.486 C  
HETATM   14  C   UNL     1     -13.541  14.769  72.655  1.00  0.00    -0.565 C  
ENDBRANCH   5   6
ENDBRANCH   2   4
BRANCH   3  15
HETATM   15  C   UNL     1     -10.174   9.747  68.737  1.00  0.00    -0.210 C  
HETATM   16  C   UNL     1      -9.220  10.015  69.642  1.00  0.00    -0.236 C  
BRANCH  16  17
HETATM   17  C   UNL     1      -9.098   9.250  70.880  1.00  0.00    -0.288 C  
HETATM   18  C   UNL     1     -10.227   8.059  72.775  1.00  0.00    -0.319 C  
HETATM   19  O   UNL     1      -9.246   7.727  73.415  1.00  0.00    -0.231 OA 
HETATM   20  C   UNL     1     -10.212   8.812  71.504  1.00  0.00    -0.371 C  
HETATM   21  C   UNL     1      -7.693   9.004  71.360  1.00  0.00    -0.081 C  
HETATM   22  O   UNL     1     -11.488   7.776  73.170  1.00  0.00    -0.330 OA 
ENDBRANCH  16  17
ENDBRANCH   3  15
TORSDOF 4
ENDMDL
MODEL       59
REMARK 921   NORMALIZED FREE ENERGY PREDICTED BY IDOCK:   -5.29 KCAL/MOL
REMARK 922        TOTAL FREE ENERGY PREDICTED BY IDOCK:   -7.92 KCAL/MOL
REMARK 923 INTER-LIGAND FREE ENERGY PREDICTED BY IDOCK:   -7.20 KCAL/MOL
REMARK 924 INTRA-LIGAND FREE ENERGY PREDICTED BY IDOCK:   -0.72 KCAL/MOL
REMARK 927      BINDING AFFINITY PREDICTED BY RF-SCORE:    0.00 PKD
ROOT
HETATM    1  C   UNL     1     -10.112  15.155  65.277  1.00  0.00    -0.365 C  
HETATM    2  C   UNL     1     -10.728  14.700  66.571  1.00  0.00    -0.312 C  
HETATM    3  C   UNL     1     -11.202  15.606  67.454  1.00  0.00    -0.219 C  
ENDROOT
BRANCH   2   4
HETATM    4  C   UNL     1     -10.831  13.262  66.784  1.00  0.00    -0.289 C  
HETATM    5  C   UNL     1      -9.903  12.358  66.429  1.00  0.00    -0.249 C  
BRANCH   5   6
HETATM    6  C   UNL     1      -9.970  10.918  66.726  1.00  0.00    -0.245 C  
HETATM    7  C   UNL     1     -11.474  10.889  68.786  1.00  0.00    -0.376 C  
HETATM    8  C   UNL     1      -9.850  10.024  65.724  1.00  0.00    -0.345 C  
HETATM    9  C   UNL     1      -9.821   8.535  65.931  1.00  0.00    -0.012 C  
HETATM   10  C   UNL     1      -9.723  10.383  64.257  1.00  0.00    -0.389 C  
HETATM   11  C   UNL     1      -9.008  11.245  69.046  1.00  0.00     0.024 C  
HETATM   12  C   UNL     1     -10.088  10.506  68.211  1.00  0.00    -0.180 C  
HETATM   13  C   UNL     1      -9.882   8.987  68.495  1.00  0.00    -0.184 C  
HETATM   14  C   UNL     1      -9.923   7.998  67.344  1.00  0.00    -0.270 C  
ENDBRANCH   5   6
ENDBRANCH   2   4
BRANCH   3  15
HETATM   15  C   UNL     1     -11.767  15.287  68.747  1.00  0.00    -0.374 C  
HETATM   16  C   UNL     1     -11.525  15.954  69.886  1.00  0.00    -0.344 C  
BRANCH  16  17
HETATM   17  C   UNL     1     -12.082  15.524  71.165  1.00  0.00    -0.433 C  
HETATM   18  C   UNL     1     -12.404  15.965  73.612  1.00  0.00    -0.572 C  
HETATM   19  O   UNL     1     -13.020  14.960  73.916  1.00  0.00    -0.468 OA 
HETATM   20  C   UNL     1     -11.917  16.300  72.257  1.00  0.00    -0.605 C  
HETATM   21  C   UNL     1     -12.824  14.215  71.147  1.00  0.00    -0.431 C  
HETATM   22  O   UNL     1     -12.071  16.919  74.509  1.00  0.00    -0.563 OA 
ENDBRANCH  16  17
ENDBRANCH   3  15
TORSDOF 4
ENDMDL
MODEL       60
REMARK 921   NORMALIZED FREE ENERGY PREDICTED BY IDOCK:   -5.21 KCAL/MOL
REMARK 922        TOTAL FREE ENERGY PREDICTED BY IDOCK:   -7.83 KCAL/MOL
REMARK 923 INTER-LIGAND FREE ENERGY PREDICTED BY IDOCK:   -6.82 KCAL/MOL
REMARK 924 INTRA-LIGAND FREE ENERGY PREDICTED BY IDOCK:   -1.01 KCAL/MOL
REMARK 927      BINDING AFFINITY PREDICTED BY RF-SCORE:    0.00 PKD
ROOT
HETATM    1  C   UNL     1      -8.836   9.296  64.341  1.00  0.00    -0.197 C  
HETATM    2  C   UNL     1      -9.249   9.088  65.772  1.00  0.00    -0.293 C  
HETATM    3  C   UNL     1      -9.182   7.859  66.328  1.00  0.00    -0.231 C  
ENDROOT
BRANCH   2   4
HETATM    4  C   UNL     1      -9.662  10.270  66.518  1.00  0.00    -0.243 C  
HETATM    5  C   UNL     1     -10.869  10.853  66.441  1.00  0.00    -0.210 C  
BRANCH   5   6
HETATM    6  C   UNL     1     -11.311  11.991  67.263  1.00  0.00    -0.394 C  
HETATM    7  C   UNL     1     -12.541  13.417  65.543  1.00  0.00    -0.520 C  
HETATM    8  C   UNL     1     -11.554  11.810  68.577  1.00  0.00    -0.380 C  
HETATM    9  C   UNL     1     -11.928  12.922  69.518  1.00  0.00    -0.346 C  
HETATM   10  C   UNL     1     -11.482  10.477  69.294  1.00  0.00    -0.323 C  
HETATM   11  C   UNL     1     -10.062  13.655  65.818  1.00  0.00    -0.311 C  
HETATM   12  C   UNL     1     -11.388  13.374  66.576  1.00  0.00    -0.346 C  
HETATM   13  C   UNL     1     -11.594  14.581  67.539  1.00  0.00    -0.403 C  
HETATM   14  C   UNL     1     -12.033  14.331  68.971  1.00  0.00    -0.360 C  
ENDBRANCH   5   6
ENDBRANCH   2   4
BRANCH   3  15
HETATM   15  C   UNL     1      -9.599   7.532  67.674  1.00  0.00    -0.171 C  
HETATM   16  C   UNL     1      -9.945   6.309  68.104  1.00  0.00    -0.149 C  
BRANCH  16  17
HETATM   17  C   UNL     1     -10.422   6.078  69.465  1.00  0.00    -0.330 C  
HETATM   18  C   UNL     1     -12.081   6.611  71.267  1.00  0.00    -0.341 C  
HETATM   19  O   UNL     1     -11.644   5.905  72.156  1.00  0.00    -0.296 OA 
HETATM   20  C   UNL     1     -11.517   6.732  69.906  1.00  0.00    -0.355 C  
HETATM   21  C   UNL     1      -9.628   5.090  70.277  1.00  0.00    -0.255 C  
HETATM   22  O   UNL     1     -13.164   7.403  71.427  1.00  0.00    -0.364 OA 
ENDBRANCH  16  17
ENDBRANCH   3  15
TORSDOF 4
ENDMDL
MODEL       61
REMARK 921   NORMALIZED FREE ENERGY PREDICTED BY IDOCK:   -5.20 KCAL/MOL
REMARK 922        TOTAL FREE ENERGY PREDICTED BY IDOCK:   -7.81 KCAL/MOL
REMARK 923 INTER-LIGAND FREE ENERGY PREDICTED BY IDOCK:   -6.32 KCAL/MOL
REMARK 924 INTRA-LIGAND FREE ENERGY PREDICTED BY IDOCK:   -1.49 KCAL/MOL
REMARK 927      BINDING AFFINITY PREDICTED BY RF-SCORE:    0.00 PKD
ROOT
HETATM    1  C   UNL     1     -10.817  11.443  63.415  1.00  0.00    -0.375 C  
HETATM    2  C   UNL     1     -10.356  11.346  64.843  1.00  0.00    -0.347 C  
HETATM    3  C   UNL     1     -10.143  10.137  65.407  1.00  0.00    -0.342 C  
ENDROOT
BRANCH   2   4
HETATM    4  C   UNL     1     -10.108  12.598  65.544  1.00  0.00    -0.279 C  
HETATM    5  C   UNL     1     -11.053  13.384  66.086  1.00  0.00    -0.299 C  
BRANCH   5   6
HETATM    6  C   UNL     1     -10.792  14.601  66.870  1.00  0.00    -0.305 C  
HETATM    7  C   UNL     1      -9.433  13.673  68.819  1.00  0.00     0.010 C  
HETATM    8  C   UNL     1     -10.714  15.793  66.245  1.00  0.00    -0.282 C  
HETATM    9  C   UNL     1     -10.534  17.102  66.962  1.00  0.00    -0.282 C  
HETATM   10  C   UNL     1     -10.801  15.990  64.745  1.00  0.00    -0.315 C  
HETATM   11  C   UNL     1     -11.936  13.652  68.921  1.00  0.00    -0.392 C  
HETATM   12  C   UNL     1     -10.708  14.450  68.406  1.00  0.00    -0.250 C  
HETATM   13  C   UNL     1     -10.704  15.789  69.204  1.00  0.00    -0.246 C  
HETATM   14  C   UNL     1     -10.443  17.095  68.474  1.00  0.00    -0.377 C  
ENDBRANCH   5   6
ENDBRANCH   2   4
BRANCH   3  15
HETATM   15  C   UNL     1      -9.749   9.921  66.782  1.00  0.00    -0.244 C  
HETATM   16  C   UNL     1     -10.590   9.692  67.804  1.00  0.00    -0.320 C  
BRANCH  16  17
HETATM   17  C   UNL     1     -10.113   9.553  69.177  1.00  0.00    -0.200 C  
HETATM   18  C   UNL     1     -10.623   9.005  71.569  1.00  0.00    -0.345 C  
HETATM   19  O   UNL     1      -9.528   9.210  72.059  1.00  0.00    -0.323 OA 
HETATM   20  C   UNL     1     -10.970   9.154  70.140  1.00  0.00    -0.267 C  
HETATM   21  C   UNL     1      -8.659   9.869  69.400  1.00  0.00    -0.180 C  
HETATM   22  O   UNL     1     -11.690   8.614  72.301  1.00  0.00    -0.363 OA 
ENDBRANCH  16  17
ENDBRANCH   3  15
TORSDOF 4
ENDMDL
MODEL       62
REMARK 921   NORMALIZED FREE ENERGY PREDICTED BY IDOCK:   -5.18 KCAL/MOL
REMARK 922        TOTAL FREE ENERGY PREDICTED BY IDOCK:   -7.79 KCAL/MOL
REMARK 923 INTER-LIGAND FREE ENERGY PREDICTED BY IDOCK:   -6.47 KCAL/MOL
REMARK 924 INTRA-LIGAND FREE ENERGY PREDICTED BY IDOCK:   -1.32 KCAL/MOL
REMARK 927      BINDING AFFINITY PREDICTED BY RF-SCORE:    0.00 PKD
ROOT
HETATM    1  C   UNL     1     -11.013   9.322  71.625  1.00  0.00    -0.433 C  
HETATM    2  C   UNL     1     -11.198   9.922  70.259  1.00  0.00    -0.364 C  
HETATM    3  C   UNL     1     -11.708  11.166  70.126  1.00  0.00    -0.439 C  
ENDROOT
BRANCH   2   4
HETATM    4  C   UNL     1     -10.755   9.125  69.122  1.00  0.00    -0.190 C  
HETATM    5  C   UNL     1      -9.500   9.083  68.647  1.00  0.00    -0.149 C  
BRANCH   5   6
HETATM    6  C   UNL     1      -9.038   8.210  67.556  1.00  0.00    -0.147 C  
HETATM    7  C   UNL     1      -9.436   5.895  68.550  1.00  0.00    -0.134 C  
HETATM    8  C   UNL     1      -9.125   8.635  66.279  1.00  0.00    -0.233 C  
HETATM    9  C   UNL     1      -8.606   7.856  65.103  1.00  0.00    -0.052 C  
HETATM   10  C   UNL     1      -9.745   9.948  65.846  1.00  0.00    -0.326 C  
HETATM   11  C   UNL     1      -7.298   7.110  69.032  1.00  0.00    -0.092 C  
HETATM   12  C   UNL     1      -8.387   6.865  67.953  1.00  0.00    -0.121 C  
HETATM   13  C   UNL     1      -7.675   6.107  66.792  1.00  0.00    -0.103 C  
HETATM   14  C   UNL     1      -7.938   6.519  65.355  1.00  0.00    -0.120 C  
ENDBRANCH   5   6
ENDBRANCH   2   4
BRANCH   3  15
HETATM   15  C   UNL     1     -11.976  11.822  68.865  1.00  0.00    -0.332 C  
HETATM   16  C   UNL     1     -11.232  12.801  68.326  1.00  0.00    -0.308 C  
BRANCH  16  17
HETATM   17  C   UNL     1     -11.612  13.460  67.080  1.00  0.00    -0.399 C  
HETATM   18  C   UNL     1     -12.544  13.269  64.761  1.00  0.00    -0.337 C  
HETATM   19  O   UNL     1     -12.450  14.431  64.412  1.00  0.00    -0.635 OA 
HETATM   20  C   UNL     1     -12.148  12.731  66.079  1.00  0.00    -0.458 C  
HETATM   21  C   UNL     1     -11.372  14.945  67.026  1.00  0.00    -0.345 C  
HETATM   22  O   UNL     1     -13.027  12.299  63.953  1.00  0.00    -0.753 OA 
ENDBRANCH  16  17
ENDBRANCH   3  15
TORSDOF 4
ENDMDL
MODEL       63
REMARK 921   NORMALIZED FREE ENERGY PREDICTED BY IDOCK:   -5.16 KCAL/MOL
REMARK 922        TOTAL FREE ENERGY PREDICTED BY IDOCK:   -7.77 KCAL/MOL
REMARK 923 INTER-LIGAND FREE ENERGY PREDICTED BY IDOCK:   -6.16 KCAL/MOL
REMARK 924 INTRA-LIGAND FREE ENERGY PREDICTED BY IDOCK:   -1.61 KCAL/MOL
REMARK 927      BINDING AFFINITY PREDICTED BY RF-SCORE:    0.00 PKD
ROOT
HETATM    1  C   UNL     1     -11.941  12.800  63.150  1.00  0.00    -0.347 C  
HETATM    2  C   UNL     1     -11.943  12.899  64.651  1.00  0.00    -0.445 C  
HETATM    3  C   UNL     1     -12.402  14.016  65.258  1.00  0.00    -0.480 C  
ENDROOT
BRANCH   2   4
HETATM    4  C   UNL     1     -11.486  11.730  65.390  1.00  0.00    -0.239 C  
HETATM    5  C   UNL     1     -10.226  11.519  65.805  1.00  0.00    -0.293 C  
BRANCH   5   6
HETATM    6  C   UNL     1      -9.788  10.381  66.629  1.00  0.00    -0.251 C  
HETATM    7  C   UNL     1     -11.523  10.403  68.498  1.00  0.00    -0.231 C  
HETATM    8  C   UNL     1      -9.146   9.346  66.049  1.00  0.00    -0.228 C  
HETATM    9  C   UNL     1      -8.585   8.178  66.812  1.00  0.00    -0.136 C  
HETATM   10  C   UNL     1      -8.893   9.211  64.561  1.00  0.00    -0.165 C  
HETATM   11  C   UNL     1      -9.482  11.844  68.673  1.00  0.00    -0.087 C  
HETATM   12  C   UNL     1     -10.015  10.482  68.154  1.00  0.00    -0.172 C  
HETATM   13  C   UNL     1      -9.296   9.390  69.004  1.00  0.00    -0.153 C  
HETATM   14  C   UNL     1      -8.736   8.156  68.319  1.00  0.00    -0.133 C  
ENDBRANCH   5   6
ENDBRANCH   2   4
BRANCH   3  15
HETATM   15  C   UNL     1     -12.405  14.242  66.686  1.00  0.00    -0.320 C  
HETATM   16  C   UNL     1     -11.473  14.928  67.366  1.00  0.00    -0.354 C  
BRANCH  16  17
HETATM   17  C   UNL     1     -11.515  15.051  68.820  1.00  0.00    -0.337 C  
HETATM   18  C   UNL     1     -12.245  14.104  71.024  1.00  0.00    -0.358 C  
HETATM   19  O   UNL     1     -11.835  14.980  71.763  1.00  0.00    -0.350 OA 
HETATM   20  C   UNL     1     -12.108  14.084  69.552  1.00  0.00    -0.397 C  
HETATM   21  C   UNL     1     -10.862  16.280  69.392  1.00  0.00    -0.331 C  
HETATM   22  O   UNL     1     -12.904  13.015  71.475  1.00  0.00    -0.355 OA 
ENDBRANCH  16  17
ENDBRANCH   3  15
TORSDOF 4
ENDMDL
MODEL       64
REMARK 921   NORMALIZED FREE ENERGY PREDICTED BY IDOCK:   -5.15 KCAL/MOL
REMARK 922        TOTAL FREE ENERGY PREDICTED BY IDOCK:   -7.75 KCAL/MOL
REMARK 923 INTER-LIGAND FREE ENERGY PREDICTED BY IDOCK:   -6.63 KCAL/MOL
REMARK 924 INTRA-LIGAND FREE ENERGY PREDICTED BY IDOCK:   -1.12 KCAL/MOL
REMARK 927      BINDING AFFINITY PREDICTED BY RF-SCORE:    0.00 PKD
ROOT
HETATM    1  C   UNL     1     -12.093   6.621  71.719  1.00  0.00    -0.400 C  
HETATM    2  C   UNL     1     -11.837   8.050  71.327  1.00  0.00    -0.321 C  
HETATM    3  C   UNL     1     -12.520   9.052  71.923  1.00  0.00    -0.454 C  
ENDROOT
BRANCH   2   4
HETATM    4  C   UNL     1     -10.798   8.287  70.332  1.00  0.00    -0.241 C  
HETATM    5  C   UNL     1     -10.984   8.285  69.002  1.00  0.00     0.095 C  
BRANCH   5   6
HETATM    6  C   UNL     1      -9.952   8.612  68.006  1.00  0.00    -0.221 C  
HETATM    7  C   UNL     1      -8.872  10.676  69.045  1.00  0.00    -0.154 C  
HETATM    8  C   UNL     1      -9.409   7.629  67.259  1.00  0.00    -0.174 C  
HETATM    9  C   UNL     1      -8.412   7.868  66.160  1.00  0.00    -0.139 C  
HETATM   10  C   UNL     1      -9.724   6.154  67.412  1.00  0.00    -0.133 C  
HETATM   11  C   UNL     1     -10.914  10.923  67.615  1.00  0.00    -0.350 C  
HETATM   12  C   UNL     1      -9.607  10.106  67.807  1.00  0.00    -0.168 C  
HETATM   13  C   UNL     1      -8.720  10.421  66.565  1.00  0.00    -0.143 C  
HETATM   14  C   UNL     1      -7.992   9.292  65.858  1.00  0.00    -0.106 C  
ENDBRANCH   5   6
ENDBRANCH   2   4
BRANCH   3  15
HETATM   15  C   UNL     1     -12.394  10.454  71.593  1.00  0.00    -0.402 C  
HETATM   16  C   UNL     1     -13.259  11.416  71.949  1.00  0.00    -0.485 C  
BRANCH  16  17
HETATM   17  C   UNL     1     -13.094  12.800  71.515  1.00  0.00    -0.380 C  
HETATM   18  C   UNL     1     -13.592  15.229  71.885  1.00  0.00    -0.475 C  
HETATM   19  O   UNL     1     -13.018  15.700  70.920  1.00  0.00    -0.482 OA 
HETATM   20  C   UNL     1     -13.658  13.794  72.233  1.00  0.00    -0.656 C  
HETATM   21  C   UNL     1     -12.275  13.001  70.269  1.00  0.00    -0.368 C  
HETATM   22  O   UNL     1     -14.269  15.988  72.775  1.00  0.00    -0.472 OA 
ENDBRANCH  16  17
ENDBRANCH   3  15
TORSDOF 4
ENDMDL
MODEL       65
REMARK 921   NORMALIZED FREE ENERGY PREDICTED BY IDOCK:   -5.12 KCAL/MOL
REMARK 922        TOTAL FREE ENERGY PREDICTED BY IDOCK:   -7.71 KCAL/MOL
REMARK 923 INTER-LIGAND FREE ENERGY PREDICTED BY IDOCK:   -6.68 KCAL/MOL
REMARK 924 INTRA-LIGAND FREE ENERGY PREDICTED BY IDOCK:   -1.03 KCAL/MOL
REMARK 927      BINDING AFFINITY PREDICTED BY RF-SCORE:    0.00 PKD
ROOT
HETATM    1  C   UNL     1     -11.650   5.994  71.801  1.00  0.00    -0.288 C  
HETATM    2  C   UNL     1     -11.500   7.405  71.302  1.00  0.00    -0.297 C  
HETATM    3  C   UNL     1     -12.049   8.431  71.988  1.00  0.00    -0.417 C  
ENDROOT
BRANCH   2   4
HETATM    4  C   UNL     1     -10.703   7.598  70.097  1.00  0.00    -0.245 C  
HETATM    5  C   UNL     1     -11.088   7.273  68.853  1.00  0.00     0.027 C  
BRANCH   5   6
HETATM    6  C   UNL     1     -10.318   7.552  67.630  1.00  0.00    -0.295 C  
HETATM    7  C   UNL     1     -10.609   5.375  66.333  1.00  0.00    -0.322 C  
HETATM    8  C   UNL     1     -10.207   8.821  67.187  1.00  0.00    -0.346 C  
HETATM    9  C   UNL     1      -9.376   9.221  65.999  1.00  0.00    -0.283 C  
HETATM   10  C   UNL     1     -10.890  10.018  67.815  1.00  0.00    -0.337 C  
HETATM   11  C   UNL     1      -8.775   5.583  68.027  1.00  0.00    -0.106 C  
HETATM   12  C   UNL     1      -9.593   6.361  66.962  1.00  0.00    -0.168 C  
HETATM   13  C   UNL     1      -8.580   6.747  65.842  1.00  0.00    -0.153 C  
HETATM   14  C   UNL     1      -8.609   8.147  65.256  1.00  0.00    -0.132 C  
ENDBRANCH   5   6
ENDBRANCH   2   4
BRANCH   3  15
HETATM   15  C   UNL     1     -12.012   9.818  71.577  1.00  0.00    -0.488 C  
HETATM   16  C   UNL     1     -12.951  10.735  71.858  1.00  0.00    -0.524 C  
BRANCH  16  17
HETATM   17  C   UNL     1     -12.871  12.100  71.346  1.00  0.00    -0.378 C  
HETATM   18  C   UNL     1     -11.963  13.688  69.632  1.00  0.00    -0.343 C  
HETATM   19  O   UNL     1     -12.441  14.727  70.050  1.00  0.00    -0.324 OA 
HETATM   20  C   UNL     1     -12.149  12.351  70.233  1.00  0.00    -0.377 C  
HETATM   21  C   UNL     1     -13.635  13.137  72.124  1.00  0.00    -0.637 C  
HETATM   22  O   UNL     1     -11.171  13.635  68.539  1.00  0.00    -0.251 OA 
ENDBRANCH  16  17
ENDBRANCH   3  15
TORSDOF 4
ENDMDL
MODEL       66
REMARK 921   NORMALIZED FREE ENERGY PREDICTED BY IDOCK:   -5.11 KCAL/MOL
REMARK 922        TOTAL FREE ENERGY PREDICTED BY IDOCK:   -7.70 KCAL/MOL
REMARK 923 INTER-LIGAND FREE ENERGY PREDICTED BY IDOCK:   -6.40 KCAL/MOL
REMARK 924 INTRA-LIGAND FREE ENERGY PREDICTED BY IDOCK:   -1.30 KCAL/MOL
REMARK 927      BINDING AFFINITY PREDICTED BY RF-SCORE:    0.00 PKD
ROOT
HETATM    1  C   UNL     1     -10.639  19.655  65.731  1.00  0.00    -0.537 C  
HETATM    2  C   UNL     1      -9.983  18.763  66.750  1.00  0.00    -0.394 C  
HETATM    3  C   UNL     1      -8.979  19.235  67.520  1.00  0.00    -0.344 C  
ENDROOT
BRANCH   2   4
HETATM    4  C   UNL     1     -10.518  17.415  66.889  1.00  0.00    -0.279 C  
HETATM    5  C   UNL     1     -10.175  16.362  66.129  1.00  0.00    -0.363 C  
BRANCH   5   6
HETATM    6  C   UNL     1     -10.650  14.984  66.331  1.00  0.00    -0.310 C  
HETATM    7  C   UNL     1     -10.337  14.697  68.846  1.00  0.00    -0.245 C  
HETATM    8  C   UNL     1     -11.589  14.475  65.508  1.00  0.00    -0.350 C  
HETATM    9  C   UNL     1     -12.079  13.056  65.577  1.00  0.00    -0.501 C  
HETATM   10  C   UNL     1     -12.277  15.247  64.400  1.00  0.00    -0.222 C  
HETATM   11  C   UNL     1      -8.425  14.246  67.291  1.00  0.00    -0.226 C  
HETATM   12  C   UNL     1      -9.968  14.155  67.443  1.00  0.00    -0.240 C  
HETATM   13  C   UNL     1     -10.309  12.634  67.439  1.00  0.00    -0.224 C  
HETATM   14  C   UNL     1     -11.486  12.133  66.622  1.00  0.00    -0.426 C  
ENDBRANCH   5   6
ENDBRANCH   2   4
BRANCH   3  15
HETATM   15  C   UNL     1      -8.244  18.457  68.494  1.00  0.00    -0.338 C  
HETATM   16  C   UNL     1      -6.911  18.301  68.516  1.00  0.00    -0.261 C  
BRANCH  16  17
HETATM   17  C   UNL     1      -6.253  17.441  69.494  1.00  0.00    -0.249 C  
HETATM   18  C   UNL     1      -5.884  15.134  70.404  1.00  0.00    -0.131 C  
HETATM   19  O   UNL     1      -5.140  15.401  71.330  1.00  0.00    -0.161 OA 
HETATM   20  C   UNL     1      -6.463  16.108  69.455  1.00  0.00    -0.199 C  
HETATM   21  C   UNL     1      -5.362  18.139  70.485  1.00  0.00    -0.264 C  
HETATM   22  O   UNL     1      -6.290  13.874  70.132  1.00  0.00    -0.139 OA 
ENDBRANCH  16  17
ENDBRANCH   3  15
TORSDOF 4
ENDMDL
MODEL       67
REMARK 921   NORMALIZED FREE ENERGY PREDICTED BY IDOCK:   -5.09 KCAL/MOL
REMARK 922        TOTAL FREE ENERGY PREDICTED BY IDOCK:   -7.67 KCAL/MOL
REMARK 923 INTER-LIGAND FREE ENERGY PREDICTED BY IDOCK:   -6.55 KCAL/MOL
REMARK 924 INTRA-LIGAND FREE ENERGY PREDICTED BY IDOCK:   -1.12 KCAL/MOL
REMARK 927      BINDING AFFINITY PREDICTED BY RF-SCORE:    0.00 PKD
ROOT
HETATM    1  C   UNL     1     -12.671  15.750  71.139  1.00  0.00    -0.488 C  
HETATM    2  C   UNL     1     -11.861  14.785  70.318  1.00  0.00    -0.357 C  
HETATM    3  C   UNL     1     -12.313  13.531  70.100  1.00  0.00    -0.345 C  
ENDROOT
BRANCH   2   4
HETATM    4  C   UNL     1     -10.620  15.287  69.743  1.00  0.00    -0.293 C  
HETATM    5  C   UNL     1     -10.455  15.666  68.466  1.00  0.00    -0.236 C  
BRANCH   5   6
HETATM    6  C   UNL     1      -9.226  16.257  67.912  1.00  0.00    -0.201 C  
HETATM    7  C   UNL     1      -9.449  18.689  68.647  1.00  0.00    -0.396 C  
HETATM    8  C   UNL     1      -8.126  15.490  67.763  1.00  0.00    -0.153 C  
HETATM    9  C   UNL     1      -6.850  15.974  67.132  1.00  0.00    -0.223 C  
HETATM   10  C   UNL     1      -8.016  14.043  68.200  1.00  0.00    -0.149 C  
HETATM   11  C   UNL     1     -10.529  17.923  66.519  1.00  0.00    -0.315 C  
HETATM   12  C   UNL     1      -9.295  17.728  67.442  1.00  0.00    -0.252 C  
HETATM   13  C   UNL     1      -8.065  18.220  66.621  1.00  0.00    -0.281 C  
HETATM   14  C   UNL     1      -6.787  17.399  66.623  1.00  0.00    -0.268 C  
ENDBRANCH   5   6
ENDBRANCH   2   4
BRANCH   3  15
HETATM   15  C   UNL     1     -11.598  12.506  69.372  1.00  0.00    -0.368 C  
HETATM   16  C   UNL     1     -11.672  12.300  68.047  1.00  0.00    -0.417 C  
BRANCH  16  17
HETATM   17  C   UNL     1     -10.970  11.197  67.399  1.00  0.00    -0.347 C  
HETATM   18  C   UNL     1     -10.032  10.203  65.297  1.00  0.00    -0.311 C  
HETATM   19  O   UNL     1      -9.622   9.146  65.742  1.00  0.00    -0.262 OA 
HETATM   20  C   UNL     1     -10.705  11.263  66.077  1.00  0.00    -0.301 C  
HETATM   21  C   UNL     1     -10.584  10.051  68.294  1.00  0.00    -0.264 C  
HETATM   22  O   UNL     1      -9.925  10.538  63.992  1.00  0.00    -0.320 OA 
ENDBRANCH  16  17
ENDBRANCH   3  15
TORSDOF 4
ENDMDL
MODEL       68
REMARK 921   NORMALIZED FREE ENERGY PREDICTED BY IDOCK:   -5.06 KCAL/MOL
REMARK 922        TOTAL FREE ENERGY PREDICTED BY IDOCK:   -7.64 KCAL/MOL
REMARK 923 INTER-LIGAND FREE ENERGY PREDICTED BY IDOCK:   -6.00 KCAL/MOL
REMARK 924 INTRA-LIGAND FREE ENERGY PREDICTED BY IDOCK:   -1.64 KCAL/MOL
REMARK 927      BINDING AFFINITY PREDICTED BY RF-SCORE:    0.00 PKD
ROOT
HETATM    1  C   UNL     1     -12.632   8.775  72.212  1.00  0.00    -0.460 C  
HETATM    2  C   UNL     1     -11.898   9.551  71.154  1.00  0.00    -0.436 C  
HETATM    3  C   UNL     1     -12.248  10.828  70.882  1.00  0.00    -0.487 C  
ENDROOT
BRANCH   2   4
HETATM    4  C   UNL     1     -10.784   8.881  70.496  1.00  0.00    -0.271 C  
HETATM    5  C   UNL     1     -10.882   8.098  69.411  1.00  0.00    -0.096 C  
BRANCH   5   6
HETATM    6  C   UNL     1      -9.744   7.497  68.697  1.00  0.00    -0.154 C  
HETATM    7  C   UNL     1      -8.234   9.521  68.343  1.00  0.00    -0.113 C  
HETATM    8  C   UNL     1      -9.428   6.203  68.915  1.00  0.00    -0.131 C  
HETATM    9  C   UNL     1      -8.340   5.474  68.177  1.00  0.00    -0.099 C  
HETATM   10  C   UNL     1     -10.119   5.302  69.918  1.00  0.00    -0.333 C  
HETATM   11  C   UNL     1     -10.056   9.021  66.699  1.00  0.00    -0.355 C  
HETATM   12  C   UNL     1      -9.016   8.376  67.655  1.00  0.00    -0.141 C  
HETATM   13  C   UNL     1      -8.006   7.619  66.740  1.00  0.00    -0.111 C  
HETATM   14  C   UNL     1      -7.552   6.221  67.121  1.00  0.00    -0.096 C  
ENDBRANCH   5   6
ENDBRANCH   2   4
BRANCH   3  15
HETATM   15  C   UNL     1     -11.649  11.651  69.855  1.00  0.00    -0.366 C  
HETATM   16  C   UNL     1     -11.931  11.585  68.544  1.00  0.00    -0.293 C  
BRANCH  16  17
HETATM   17  C   UNL     1     -11.228  12.407  67.563  1.00  0.00    -0.348 C  
HETATM   18  C   UNL     1     -11.084  13.276  65.216  1.00  0.00    -0.288 C  
HETATM   19  O   UNL     1     -10.059  13.926  65.306  1.00  0.00    -0.334 OA 
HETATM   20  C   UNL     1     -11.715  12.505  66.308  1.00  0.00    -0.462 C  
HETATM   21  C   UNL     1      -9.989  13.101  68.058  1.00  0.00    -0.233 C  
HETATM   22  O   UNL     1     -11.784  13.170  64.065  1.00  0.00    -0.390 OA 
ENDBRANCH  16  17
ENDBRANCH   3  15
TORSDOF 4
ENDMDL
MODEL       69
REMARK 921   NORMALIZED FREE ENERGY PREDICTED BY IDOCK:   -5.05 KCAL/MOL
REMARK 922        TOTAL FREE ENERGY PREDICTED BY IDOCK:   -7.63 KCAL/MOL
REMARK 923 INTER-LIGAND FREE ENERGY PREDICTED BY IDOCK:   -6.83 KCAL/MOL
REMARK 924 INTRA-LIGAND FREE ENERGY PREDICTED BY IDOCK:   -0.80 KCAL/MOL
REMARK 927      BINDING AFFINITY PREDICTED BY RF-SCORE:    0.00 PKD
ROOT
HETATM    1  C   UNL     1     -10.969  19.875  65.141  1.00  0.00     0.363 C  
HETATM    2  C   UNL     1     -10.284  19.378  66.384  1.00  0.00    -0.556 C  
HETATM    3  C   UNL     1      -9.304  20.110  66.958  1.00  0.00    -0.523 C  
ENDROOT
BRANCH   2   4
HETATM    4  C   UNL     1     -10.764  18.123  66.945  1.00  0.00    -0.246 C  
HETATM    5  C   UNL     1     -10.275  16.906  66.654  1.00  0.00    -0.312 C  
BRANCH   5   6
HETATM    6  C   UNL     1     -10.702  15.650  67.291  1.00  0.00    -0.305 C  
HETATM    7  C   UNL     1      -9.780  13.913  65.667  1.00  0.00    -0.157 C  
HETATM    8  C   UNL     1     -10.848  15.597  68.630  1.00  0.00    -0.273 C  
HETATM    9  C   UNL     1     -11.358  14.391  69.368  1.00  0.00    -0.319 C  
HETATM   10  C   UNL     1     -10.530  16.735  69.580  1.00  0.00    -0.263 C  
HETATM   11  C   UNL     1     -12.025  14.943  65.250  1.00  0.00    -0.168 C  
HETATM   12  C   UNL     1     -11.050  14.466  66.360  1.00  0.00    -0.326 C  
HETATM   13  C   UNL     1     -11.750  13.260  67.056  1.00  0.00    -0.439 C  
HETATM   14  C   UNL     1     -11.741  13.161  68.571  1.00  0.00    -0.387 C  
ENDBRANCH   5   6
ENDBRANCH   2   4
BRANCH   3  15
HETATM   15  C   UNL     1      -8.543  19.709  68.122  1.00  0.00    -0.360 C  
HETATM   16  C   UNL     1      -7.246  19.362  68.119  1.00  0.00    -0.322 C  
BRANCH  16  17
HETATM   17  C   UNL     1      -6.570  18.903  69.329  1.00  0.00    -0.311 C  
HETATM   18  C   UNL     1      -5.484  19.471  71.516  1.00  0.00    -0.346 C  
HETATM   19  O   UNL     1      -5.145  18.356  71.866  1.00  0.00    -0.689 OA 
HETATM   20  C   UNL     1      -6.201  19.801  70.266  1.00  0.00    -0.313 C  
HETATM   21  C   UNL     1      -6.346  17.418  69.429  1.00  0.00    -0.246 C  
HETATM   22  O   UNL     1      -5.226  20.577  72.247  1.00  0.00    -0.331 OA 
ENDBRANCH  16  17
ENDBRANCH   3  15
TORSDOF 4
ENDMDL
MODEL       70
REMARK 921   NORMALIZED FREE ENERGY PREDICTED BY IDOCK:   -5.05 KCAL/MOL
REMARK 922        TOTAL FREE ENERGY PREDICTED BY IDOCK:   -7.63 KCAL/MOL
REMARK 923 INTER-LIGAND FREE ENERGY PREDICTED BY IDOCK:   -6.42 KCAL/MOL
REMARK 924 INTRA-LIGAND FREE ENERGY PREDICTED BY IDOCK:   -1.20 KCAL/MOL
REMARK 927      BINDING AFFINITY PREDICTED BY RF-SCORE:    0.00 PKD
ROOT
HETATM    1  C   UNL     1     -10.292  13.935  65.710  1.00  0.00    -0.326 C  
HETATM    2  C   UNL     1     -10.580  12.632  66.403  1.00  0.00    -0.272 C  
HETATM    3  C   UNL     1     -10.038  11.483  65.943  1.00  0.00    -0.271 C  
ENDROOT
BRANCH   2   4
HETATM    4  C   UNL     1     -11.412  12.689  67.598  1.00  0.00    -0.390 C  
HETATM    5  C   UNL     1     -10.980  13.011  68.828  1.00  0.00    -0.295 C  
BRANCH   5   6
HETATM    6  C   UNL     1     -11.840  13.155  70.013  1.00  0.00    -0.360 C  
HETATM    7  C   UNL     1     -12.902  15.437  69.603  1.00  0.00     0.184 C  
HETATM    8  C   UNL     1     -12.344  12.055  70.609  1.00  0.00    -0.394 C  
HETATM    9  C   UNL     1     -13.162  12.088  71.870  1.00  0.00    -0.469 C  
HETATM   10  C   UNL     1     -12.160  10.638  70.105  1.00  0.00    -0.414 C  
HETATM   11  C   UNL     1     -10.671  15.283  70.733  1.00  0.00    -0.174 C  
HETATM   12  C   UNL     1     -12.046  14.582  70.571  1.00  0.00    -0.395 C  
HETATM   13  C   UNL     1     -12.731  14.654  71.969  1.00  0.00    -0.405 C  
HETATM   14  C   UNL     1     -13.434  13.428  72.523  1.00  0.00    -0.640 C  
ENDBRANCH   5   6
ENDBRANCH   2   4
BRANCH   3  15
HETATM   15  C   UNL     1     -10.284  10.169  66.497  1.00  0.00    -0.288 C  
HETATM   16  C   UNL     1      -9.462   9.511  67.329  1.00  0.00    -0.170 C  
BRANCH  16  17
HETATM   17  C   UNL     1      -9.754   8.156  67.788  1.00  0.00    -0.193 C  
HETATM   18  C   UNL     1     -10.519   5.833  67.237  1.00  0.00    -0.266 C  
HETATM   19  O   UNL     1     -10.481   5.342  68.350  1.00  0.00    -0.154 OA 
HETATM   20  C   UNL     1     -10.162   7.227  66.898  1.00  0.00    -0.340 C  
HETATM   21  C   UNL     1      -9.557   7.907  69.258  1.00  0.00    -0.157 C  
HETATM   22  O   UNL     1     -10.915   5.142  66.145  1.00  0.00    -0.237 OA 
ENDBRANCH  16  17
ENDBRANCH   3  15
TORSDOF 4
ENDMDL
MODEL       71
REMARK 921   NORMALIZED FREE ENERGY PREDICTED BY IDOCK:   -5.05 KCAL/MOL
REMARK 922        TOTAL FREE ENERGY PREDICTED BY IDOCK:   -7.62 KCAL/MOL
REMARK 923 INTER-LIGAND FREE ENERGY PREDICTED BY IDOCK:   -6.68 KCAL/MOL
REMARK 924 INTRA-LIGAND FREE ENERGY PREDICTED BY IDOCK:   -0.94 KCAL/MOL
REMARK 927      BINDING AFFINITY PREDICTED BY RF-SCORE:    0.00 PKD
ROOT
HETATM    1  C   UNL     1      -6.209  11.801  69.793  1.00  0.00    -0.138 C  
HETATM    2  C   UNL     1      -7.421  11.570  68.933  1.00  0.00    -0.106 C  
HETATM    3  C   UNL     1      -7.791  12.492  68.017  1.00  0.00    -0.147 C  
ENDROOT
BRANCH   2   4
HETATM    4  C   UNL     1      -8.120  10.303  69.104  1.00  0.00    -0.138 C  
HETATM    5  C   UNL     1      -9.386  10.168  69.532  1.00  0.00    -0.230 C  
BRANCH   5   6
HETATM    6  C   UNL     1     -10.117   8.894  69.618  1.00  0.00    -0.202 C  
HETATM    7  C   UNL     1     -11.535   9.256  71.706  1.00  0.00    -0.448 C  
HETATM    8  C   UNL     1     -10.388   8.203  68.491  1.00  0.00    -0.230 C  
HETATM    9  C   UNL     1     -11.053   6.855  68.478  1.00  0.00    -0.145 C  
HETATM   10  C   UNL     1     -10.060   8.675  67.089  1.00  0.00    -0.329 C  
HETATM   11  C   UNL     1      -9.192   8.396  71.923  1.00  0.00    -0.306 C  
HETATM   12  C   UNL     1     -10.462   8.368  71.030  1.00  0.00    -0.251 C  
HETATM   13  C   UNL     1     -10.987   6.901  71.080  1.00  0.00    -0.284 C  
HETATM   14  C   UNL     1     -11.439   6.223  69.799  1.00  0.00    -0.449 C  
ENDBRANCH   5   6
ENDBRANCH   2   4
BRANCH   3  15
HETATM   15  C   UNL     1      -8.962  12.400  67.174  1.00  0.00    -0.195 C  
HETATM   16  C   UNL     1      -9.000  11.834  65.957  1.00  0.00    -0.108 C  
BRANCH  16  17
HETATM   17  C   UNL     1     -10.210  11.845  65.140  1.00  0.00    -0.314 C  
HETATM   18  C   UNL     1     -12.491  12.794  64.714  1.00  0.00    -0.472 C  
HETATM   19  O   UNL     1     -12.811  12.119  63.753  1.00  0.00    -0.718 OA 
HETATM   20  C   UNL     1     -11.207  12.705  65.440  1.00  0.00    -0.334 C  
HETATM   21  C   UNL     1     -10.233  10.871  63.993  1.00  0.00    -0.422 C  
HETATM   22  O   UNL     1     -13.303  13.729  65.254  1.00  0.00    -0.710 OA 
ENDBRANCH  16  17
ENDBRANCH   3  15
TORSDOF 4
ENDMDL
MODEL       72
REMARK 921   NORMALIZED FREE ENERGY PREDICTED BY IDOCK:   -5.03 KCAL/MOL
REMARK 922        TOTAL FREE ENERGY PREDICTED BY IDOCK:   -7.60 KCAL/MOL
REMARK 923 INTER-LIGAND FREE ENERGY PREDICTED BY IDOCK:   -6.56 KCAL/MOL
REMARK 924 INTRA-LIGAND FREE ENERGY PREDICTED BY IDOCK:   -1.04 KCAL/MOL
REMARK 927      BINDING AFFINITY PREDICTED BY RF-SCORE:    0.00 PKD
ROOT
HETATM    1  C   UNL     1     -10.537  11.392  63.272  1.00  0.00    -0.374 C  
HETATM    2  C   UNL     1     -10.421  11.289  64.768  1.00  0.00    -0.384 C  
HETATM    3  C   UNL     1      -9.870  10.192  65.333  1.00  0.00    -0.375 C  
ENDROOT
BRANCH   2   4
HETATM    4  C   UNL     1     -10.874  12.434  65.546  1.00  0.00    -0.316 C  
HETATM    5  C   UNL     1     -10.102  13.176  66.357  1.00  0.00    -0.281 C  
BRANCH   5   6
HETATM    6  C   UNL     1     -10.543  14.385  67.070  1.00  0.00    -0.274 C  
HETATM    7  C   UNL     1     -10.962  15.996  65.139  1.00  0.00    -0.360 C  
HETATM    8  C   UNL     1     -11.173  14.266  68.257  1.00  0.00    -0.298 C  
HETATM    9  C   UNL     1     -11.588  15.438  69.103  1.00  0.00    -0.354 C  
HETATM   10  C   UNL     1     -11.547  12.950  68.909  1.00  0.00    -0.360 C  
HETATM   11  C   UNL     1      -8.659  15.772  66.100  1.00  0.00    -0.212 C  
HETATM   12  C   UNL     1     -10.172  15.750  66.448  1.00  0.00    -0.304 C  
HETATM   13  C   UNL     1     -10.417  16.985  67.367  1.00  0.00    -0.322 C  
HETATM   14  C   UNL     1     -11.278  16.836  68.609  1.00  0.00    -0.170 C  
ENDBRANCH   5   6
ENDBRANCH   2   4
BRANCH   3  15
HETATM   15  C   UNL     1      -9.752   9.963  66.757  1.00  0.00    -0.244 C  
HETATM   16  C   UNL     1     -10.642   9.300  67.512  1.00  0.00    -0.329 C  
BRANCH  16  17
HETATM   17  C   UNL     1     -10.482   9.172  68.958  1.00  0.00    -0.238 C  
HETATM   18  C   UNL     1     -11.399   9.589  71.254  1.00  0.00    -0.376 C  
HETATM   19  O   UNL     1     -10.486   9.134  71.918  1.00  0.00    -0.348 OA 
HETATM   20  C   UNL     1     -11.453   9.628  69.777  1.00  0.00    -0.095 C  
HETATM   21  C   UNL     1      -9.210   8.514  69.419  1.00  0.00    -0.153 C  
HETATM   22  O   UNL     1     -12.502  10.138  71.806  1.00  0.00    -0.394 OA 
ENDBRANCH  16  17
ENDBRANCH   3  15
TORSDOF 4
ENDMDL
MODEL       73
REMARK 921   NORMALIZED FREE ENERGY PREDICTED BY IDOCK:   -4.98 KCAL/MOL
REMARK 922        TOTAL FREE ENERGY PREDICTED BY IDOCK:   -7.54 KCAL/MOL
REMARK 923 INTER-LIGAND FREE ENERGY PREDICTED BY IDOCK:   -6.48 KCAL/MOL
REMARK 924 INTRA-LIGAND FREE ENERGY PREDICTED BY IDOCK:   -1.06 KCAL/MOL
REMARK 927      BINDING AFFINITY PREDICTED BY RF-SCORE:    0.00 PKD
ROOT
HETATM    1  C   UNL     1     -11.946  13.369  66.331  1.00  0.00    -0.457 C  
HETATM    2  C   UNL     1     -11.620  12.223  67.249  1.00  0.00    -0.427 C  
HETATM    3  C   UNL     1     -11.879  12.317  68.572  1.00  0.00    -0.359 C  
ENDROOT
BRANCH   2   4
HETATM    4  C   UNL     1     -11.075  11.020  66.635  1.00  0.00    -0.201 C  
HETATM    5  C   UNL     1      -9.779  10.669  66.635  1.00  0.00    -0.225 C  
BRANCH   5   6
HETATM    6  C   UNL     1      -9.245   9.409  66.093  1.00  0.00    -0.241 C  
HETATM    7  C   UNL     1      -7.056  10.190  65.042  1.00  0.00    -0.135 C  
HETATM    8  C   UNL     1      -9.554   8.241  66.692  1.00  0.00    -0.299 C  
HETATM    9  C   UNL     1      -9.130   6.897  66.170  1.00  0.00    -0.144 C  
HETATM   10  C   UNL     1     -10.371   8.111  67.962  1.00  0.00    -0.267 C  
HETATM   11  C   UNL     1      -9.188  10.327  63.733  1.00  0.00    -0.312 C  
HETATM   12  C   UNL     1      -8.416   9.493  64.791  1.00  0.00    -0.170 C  
HETATM   13  C   UNL     1      -8.107   8.123  64.114  1.00  0.00    -0.128 C  
HETATM   14  C   UNL     1      -8.315   6.838  64.894  1.00  0.00    -0.025 C  
ENDBRANCH   5   6
ENDBRANCH   2   4
BRANCH   3  15
HETATM   15  C   UNL     1     -11.563  11.303  69.553  1.00  0.00    -0.398 C  
HETATM   16  C   UNL     1     -12.455  10.673  70.333  1.00  0.00    -0.421 C  
BRANCH  16  17
HETATM   17  C   UNL     1     -12.044   9.708  71.350  1.00  0.00    -0.472 C  
HETATM   18  C   UNL     1     -10.211   8.348  72.386  1.00  0.00    -0.329 C  
HETATM   19  O   UNL     1     -10.856   7.755  73.231  1.00  0.00    -0.383 OA 
HETATM   20  C   UNL     1     -10.749   9.336  71.427  1.00  0.00    -0.432 C  
HETATM   21  C   UNL     1     -13.136   9.208  72.256  1.00  0.00    -0.509 C  
HETATM   22  O   UNL     1      -8.884   8.159  72.213  1.00  0.00    -0.148 OA 
ENDBRANCH  16  17
ENDBRANCH   3  15
TORSDOF 4
ENDMDL
MODEL       74
REMARK 921   NORMALIZED FREE ENERGY PREDICTED BY IDOCK:   -4.98 KCAL/MOL
REMARK 922        TOTAL FREE ENERGY PREDICTED BY IDOCK:   -7.54 KCAL/MOL
REMARK 923 INTER-LIGAND FREE ENERGY PREDICTED BY IDOCK:   -5.97 KCAL/MOL
REMARK 924 INTRA-LIGAND FREE ENERGY PREDICTED BY IDOCK:   -1.57 KCAL/MOL
REMARK 927      BINDING AFFINITY PREDICTED BY RF-SCORE:    0.00 PKD
ROOT
HETATM    1  C   UNL     1     -10.602  19.542  65.713  1.00  0.00    -0.522 C  
HETATM    2  C   UNL     1     -10.239  18.087  65.836  1.00  0.00    -0.231 C  
HETATM    3  C   UNL     1     -11.008  17.143  65.250  1.00  0.00     0.031 C  
ENDROOT
BRANCH   2   4
HETATM    4  C   UNL     1      -9.014  17.771  66.558  1.00  0.00    -0.280 C  
HETATM    5  C   UNL     1      -8.902  17.682  67.893  1.00  0.00    -0.246 C  
BRANCH   5   6
HETATM    6  C   UNL     1      -7.686  17.274  68.614  1.00  0.00    -0.265 C  
HETATM    7  C   UNL     1      -7.259  14.960  67.630  1.00  0.00    -0.207 C  
HETATM    8  C   UNL     1      -6.815  18.214  69.038  1.00  0.00    -0.257 C  
HETATM    9  C   UNL     1      -5.589  17.909  69.853  1.00  0.00    -0.239 C  
HETATM   10  C   UNL     1      -6.946  19.698  68.765  1.00  0.00    -0.374 C  
HETATM   11  C   UNL     1      -8.816  15.222  69.575  1.00  0.00    -0.181 C  
HETATM   12  C   UNL     1      -7.517  15.770  68.925  1.00  0.00    -0.173 C  
HETATM   13  C   UNL     1      -6.364  15.424  69.916  1.00  0.00    -0.158 C  
HETATM   14  C   UNL     1      -5.309  16.469  70.232  1.00  0.00    -0.198 C  
ENDBRANCH   5   6
ENDBRANCH   2   4
BRANCH   3  15
HETATM   15  C   UNL     1     -10.785  15.717  65.343  1.00  0.00    -0.424 C  
HETATM   16  C   UNL     1     -11.287  14.914  66.295  1.00  0.00    -0.306 C  
BRANCH  16  17
HETATM   17  C   UNL     1     -10.956  13.493  66.357  1.00  0.00    -0.297 C  
HETATM   18  C   UNL     1     -11.272  11.273  67.477  1.00  0.00    -0.291 C  
HETATM   19  O   UNL     1     -10.501  10.604  66.815  1.00  0.00    -0.235 OA 
HETATM   20  C   UNL     1     -11.543  12.714  67.290  1.00  0.00    -0.428 C  
HETATM   21  C   UNL     1      -9.965  13.007  65.334  1.00  0.00    -0.201 C  
HETATM   22  O   UNL     1     -11.989  10.763  68.503  1.00  0.00    -0.487 OA 
ENDBRANCH  16  17
ENDBRANCH   3  15
TORSDOF 4
ENDMDL
MODEL       75
REMARK 921   NORMALIZED FREE ENERGY PREDICTED BY IDOCK:   -4.97 KCAL/MOL
REMARK 922        TOTAL FREE ENERGY PREDICTED BY IDOCK:   -7.53 KCAL/MOL
REMARK 923 INTER-LIGAND FREE ENERGY PREDICTED BY IDOCK:   -6.34 KCAL/MOL
REMARK 924 INTRA-LIGAND FREE ENERGY PREDICTED BY IDOCK:   -1.19 KCAL/MOL
REMARK 927      BINDING AFFINITY PREDICTED BY RF-SCORE:    0.00 PKD
ROOT
HETATM    1  C   UNL     1      -7.262  11.054  68.722  1.00  0.00    -0.091 C  
HETATM    2  C   UNL     1      -7.572  12.451  68.260  1.00  0.00    -0.131 C  
HETATM    3  C   UNL     1      -7.107  13.515  68.950  1.00  0.00    -0.093 C  
ENDROOT
BRANCH   2   4
HETATM    4  C   UNL     1      -8.337  12.584  67.026  1.00  0.00    -0.144 C  
HETATM    5  C   UNL     1      -9.643  12.306  66.891  1.00  0.00    -0.214 C  
BRANCH   5   6
HETATM    6  C   UNL     1     -10.431  12.527  65.668  1.00  0.00    -0.299 C  
HETATM    7  C   UNL     1     -10.181  15.044  65.344  1.00  0.00    -0.411 C  
HETATM    8  C   UNL     1     -10.538  11.539  64.756  1.00  0.00    -0.362 C  
HETATM    9  C   UNL     1     -11.384  11.634  63.517  1.00  0.00    -0.447 C  
HETATM   10  C   UNL     1      -9.834  10.201  64.846  1.00  0.00    -0.390 C  
HETATM   11  C   UNL     1     -11.985  14.151  66.835  1.00  0.00    -0.479 C  
HETATM   12  C   UNL     1     -11.177  13.875  65.538  1.00  0.00    -0.307 C  
HETATM   13  C   UNL     1     -12.205  13.953  64.369  1.00  0.00    -0.449 C  
HETATM   14  C   UNL     1     -12.174  12.904  63.272  1.00  0.00    -0.481 C  
ENDBRANCH   5   6
ENDBRANCH   2   4
BRANCH   3  15
HETATM   15  C   UNL     1      -7.384  14.898  68.629  1.00  0.00    -0.120 C  
HETATM   16  C   UNL     1      -6.757  15.615  67.683  1.00  0.00    -0.204 C  
BRANCH  16  17
HETATM   17  C   UNL     1      -7.049  17.030  67.469  1.00  0.00    -0.173 C  
HETATM   18  C   UNL     1      -7.018  19.007  65.928  1.00  0.00    -0.268 C  
HETATM   19  O   UNL     1      -7.460  19.854  66.683  1.00  0.00    -0.241 OA 
HETATM   20  C   UNL     1      -6.798  17.585  66.264  1.00  0.00    -0.323 C  
HETATM   21  C   UNL     1      -7.631  17.763  68.646  1.00  0.00    -0.276 C  
HETATM   22  O   UNL     1      -6.654  19.279  64.656  1.00  0.00    -0.440 OA 
ENDBRANCH  16  17
ENDBRANCH   3  15
TORSDOF 4
ENDMDL
MODEL       76
REMARK 921   NORMALIZED FREE ENERGY PREDICTED BY IDOCK:   -4.93 KCAL/MOL
REMARK 922        TOTAL FREE ENERGY PREDICTED BY IDOCK:   -7.48 KCAL/MOL
REMARK 923 INTER-LIGAND FREE ENERGY PREDICTED BY IDOCK:   -5.96 KCAL/MOL
REMARK 924 INTRA-LIGAND FREE ENERGY PREDICTED BY IDOCK:   -1.51 KCAL/MOL
REMARK 927      BINDING AFFINITY PREDICTED BY RF-SCORE:    0.00 PKD
ROOT
HETATM    1  C   UNL     1      -8.753   9.268  64.760  1.00  0.00    -0.220 C  
HETATM    2  C   UNL     1      -9.626   9.223  65.984  1.00  0.00    -0.338 C  
HETATM    3  C   UNL     1     -10.253  10.341  66.413  1.00  0.00    -0.290 C  
ENDROOT
BRANCH   2   4
HETATM    4  C   UNL     1      -9.793   7.928  66.630  1.00  0.00    -0.311 C  
HETATM    5  C   UNL     1      -8.934   7.381  67.505  1.00  0.00    -0.126 C  
BRANCH   5   6
HETATM    6  C   UNL     1      -9.150   6.114  68.222  1.00  0.00    -0.112 C  
HETATM    7  C   UNL     1     -11.401   6.539  69.344  1.00  0.00    -0.395 C  
HETATM    8  C   UNL     1      -8.624   4.973  67.733  1.00  0.00    -0.103 C  
HETATM    9  C   UNL     1      -8.716   3.645  68.431  1.00  0.00    -0.135 C  
HETATM   10  C   UNL     1      -7.864   4.862  66.427  1.00  0.00    -0.099 C  
HETATM   11  C   UNL     1      -9.287   7.285  70.464  1.00  0.00    -0.158 C  
HETATM   12  C   UNL     1      -9.910   6.182  69.566  1.00  0.00    -0.193 C  
HETATM   13  C   UNL     1      -9.877   4.873  70.412  1.00  0.00    -0.302 C  
HETATM   14  C   UNL     1      -9.432   3.574  69.765  1.00  0.00    -0.241 C  
ENDBRANCH   5   6
ENDBRANCH   2   4
BRANCH   3  15
HETATM   15  C   UNL     1     -11.073  10.428  67.601  1.00  0.00    -0.361 C  
HETATM   16  C   UNL     1     -10.743  11.083  68.726  1.00  0.00    -0.240 C  
BRANCH  16  17
HETATM   17  C   UNL     1     -11.599  11.064  69.908  1.00  0.00    -0.416 C  
HETATM   18  C   UNL     1     -12.620   9.752  71.785  1.00  0.00    -0.416 C  
HETATM   19  O   UNL     1     -13.283  10.630  72.304  1.00  0.00    -0.400 OA 
HETATM   20  C   UNL     1     -11.758   9.912  70.594  1.00  0.00    -0.404 C  
HETATM   21  C   UNL     1     -12.241  12.375  70.272  1.00  0.00    -0.345 C  
HETATM   22  O   UNL     1     -12.599   8.482  72.245  1.00  0.00    -0.359 OA 
ENDBRANCH  16  17
ENDBRANCH   3  15
TORSDOF 4
ENDMDL
MODEL       77
REMARK 921   NORMALIZED FREE ENERGY PREDICTED BY IDOCK:   -4.89 KCAL/MOL
REMARK 922        TOTAL FREE ENERGY PREDICTED BY IDOCK:   -7.43 KCAL/MOL
REMARK 923 INTER-LIGAND FREE ENERGY PREDICTED BY IDOCK:   -5.86 KCAL/MOL
REMARK 924 INTRA-LIGAND FREE ENERGY PREDICTED BY IDOCK:   -1.57 KCAL/MOL
REMARK 927      BINDING AFFINITY PREDICTED BY RF-SCORE:    0.00 PKD
ROOT
HETATM    1  C   UNL     1     -11.699   9.328  71.707  1.00  0.00    -0.456 C  
HETATM    2  C   UNL     1     -11.209  10.101  70.513  1.00  0.00    -0.411 C  
HETATM    3  C   UNL     1     -11.617  11.374  70.314  1.00  0.00    -0.334 C  
ENDROOT
BRANCH   2   4
HETATM    4  C   UNL     1     -10.254   9.432  69.640  1.00  0.00    -0.225 C  
HETATM    5  C   UNL     1     -10.549   8.864  68.459  1.00  0.00    -0.183 C  
BRANCH   5   6
HETATM    6  C   UNL     1      -9.567   8.270  67.539  1.00  0.00    -0.194 C  
HETATM    7  C   UNL     1      -8.025  10.250  67.087  1.00  0.00    -0.114 C  
HETATM    8  C   UNL     1      -9.290   6.952  67.620  1.00  0.00    -0.124 C  
HETATM    9  C   UNL     1      -8.368   6.233  66.675  1.00  0.00    -0.112 C  
HETATM   10  C   UNL     1      -9.866   6.010  68.657  1.00  0.00    -0.166 C  
HETATM   11  C   UNL     1     -10.101   9.946  65.718  1.00  0.00    -0.317 C  
HETATM   12  C   UNL     1      -8.962   9.191  66.455  1.00  0.00    -0.178 C  
HETATM   13  C   UNL     1      -8.145   8.462  65.347  1.00  0.00    -0.133 C  
HETATM   14  C   UNL     1      -7.712   7.022  65.560  1.00  0.00    -0.105 C  
ENDBRANCH   5   6
ENDBRANCH   2   4
BRANCH   3  15
HETATM   15  C   UNL     1     -11.252  12.194  69.180  1.00  0.00    -0.303 C  
HETATM   16  C   UNL     1     -11.905  12.230  68.007  1.00  0.00    -0.368 C  
BRANCH  16  17
HETATM   17  C   UNL     1     -11.430  13.036  66.886  1.00  0.00    -0.387 C  
HETATM   18  C   UNL     1      -9.750  14.666  65.988  1.00  0.00    -0.312 C  
HETATM   19  O   UNL     1     -10.202  14.821  64.868  1.00  0.00    -0.388 OA 
HETATM   20  C   UNL     1     -10.316  13.785  67.031  1.00  0.00    -0.260 C  
HETATM   21  C   UNL     1     -12.245  12.947  65.625  1.00  0.00    -0.519 C  
HETATM   22  O   UNL     1      -8.646  15.310  66.427  1.00  0.00    -0.276 OA 
ENDBRANCH  16  17
ENDBRANCH   3  15
TORSDOF 4
ENDMDL
MODEL       78
REMARK 921   NORMALIZED FREE ENERGY PREDICTED BY IDOCK:   -4.89 KCAL/MOL
REMARK 922        TOTAL FREE ENERGY PREDICTED BY IDOCK:   -7.43 KCAL/MOL
REMARK 923 INTER-LIGAND FREE ENERGY PREDICTED BY IDOCK:   -6.27 KCAL/MOL
REMARK 924 INTRA-LIGAND FREE ENERGY PREDICTED BY IDOCK:   -1.16 KCAL/MOL
REMARK 927      BINDING AFFINITY PREDICTED BY RF-SCORE:    0.00 PKD
ROOT
HETATM    1  C   UNL     1      -6.184  13.533  69.704  1.00  0.00    -0.121 C  
HETATM    2  C   UNL     1      -7.195  13.465  68.593  1.00  0.00    -0.107 C  
HETATM    3  C   UNL     1      -7.538  14.583  67.916  1.00  0.00    -0.153 C  
ENDROOT
BRANCH   2   4
HETATM    4  C   UNL     1      -7.728  12.150  68.265  1.00  0.00    -0.135 C  
HETATM    5  C   UNL     1      -8.961  11.714  68.570  1.00  0.00    -0.138 C  
BRANCH   5   6
HETATM    6  C   UNL     1      -9.526  10.419  68.158  1.00  0.00    -0.152 C  
HETATM    7  C   UNL     1     -11.072   9.888  70.115  1.00  0.00    -0.353 C  
HETATM    8  C   UNL     1      -9.654  10.135  66.846  1.00  0.00    -0.219 C  
HETATM    9  C   UNL     1     -10.140   8.812  66.321  1.00  0.00    -0.254 C  
HETATM   10  C   UNL     1      -9.327  11.093  65.718  1.00  0.00    -0.238 C  
HETATM   11  C   UNL     1      -8.650   9.259  70.231  1.00  0.00    -0.234 C  
HETATM   12  C   UNL     1      -9.864   9.406  69.275  1.00  0.00    -0.176 C  
HETATM   13  C   UNL     1     -10.198   7.965  68.783  1.00  0.00    -0.218 C  
HETATM   14  C   UNL     1     -10.501   7.726  67.314  1.00  0.00    -0.392 C  
ENDBRANCH   5   6
ENDBRANCH   2   4
BRANCH   3  15
HETATM   15  C   UNL     1      -8.531  14.646  66.867  1.00  0.00    -0.203 C  
HETATM   16  C   UNL     1      -9.796  15.070  67.020  1.00  0.00    -0.241 C  
BRANCH  16  17
HETATM   17  C   UNL     1     -10.758  15.037  65.923  1.00  0.00    -0.337 C  
HETATM   18  C   UNL     1     -12.497  13.760  64.645  1.00  0.00    -0.315 C  
HETATM   19  O   UNL     1     -12.762  14.586  63.790  1.00  0.00    -0.780 OA 
HETATM   20  C   UNL     1     -11.513  13.933  65.734  1.00  0.00    -0.324 C  
HETATM   21  C   UNL     1     -10.830  16.280  65.078  1.00  0.00    -0.337 C  
HETATM   22  O   UNL     1     -13.083  12.544  64.694  1.00  0.00    -0.845 OA 
ENDBRANCH  16  17
ENDBRANCH   3  15
TORSDOF 4
ENDMDL
MODEL       79
REMARK 921   NORMALIZED FREE ENERGY PREDICTED BY IDOCK:   -4.89 KCAL/MOL
REMARK 922        TOTAL FREE ENERGY PREDICTED BY IDOCK:   -7.43 KCAL/MOL
REMARK 923 INTER-LIGAND FREE ENERGY PREDICTED BY IDOCK:   -6.08 KCAL/MOL
REMARK 924 INTRA-LIGAND FREE ENERGY PREDICTED BY IDOCK:   -1.35 KCAL/MOL
REMARK 927      BINDING AFFINITY PREDICTED BY RF-SCORE:    0.00 PKD
ROOT
HETATM    1  C   UNL     1     -10.694  16.014  66.469  1.00  0.00    -0.238 C  
HETATM    2  C   UNL     1     -10.680  14.523  66.659  1.00  0.00    -0.305 C  
HETATM    3  C   UNL     1      -9.894  13.745  65.882  1.00  0.00    -0.279 C  
ENDROOT
BRANCH   2   4
HETATM    4  C   UNL     1     -11.501  13.986  67.736  1.00  0.00    -0.351 C  
HETATM    5  C   UNL     1     -11.074  13.733  68.984  1.00  0.00    -0.296 C  
BRANCH   5   6
HETATM    6  C   UNL     1     -11.928  13.277  70.092  1.00  0.00    -0.388 C  
HETATM    7  C   UNL     1     -13.523  15.249  70.357  1.00  0.00     0.014 C  
HETATM    8  C   UNL     1     -12.139  11.957  70.271  1.00  0.00    -0.409 C  
HETATM    9  C   UNL     1     -12.924  11.385  71.419  1.00  0.00    -0.468 C  
HETATM   10  C   UNL     1     -11.619  10.867  69.357  1.00  0.00    -0.387 C  
HETATM   11  C   UNL     1     -11.308  15.269  71.529  1.00  0.00    -0.432 C  
HETATM   12  C   UNL     1     -12.472  14.354  71.059  1.00  0.00    -0.425 C  
HETATM   13  C   UNL     1     -13.135  13.805  72.358  1.00  0.00    -0.520 C  
HETATM   14  C   UNL     1     -13.509  12.335  72.444  1.00  0.00    -0.209 C  
ENDBRANCH   5   6
ENDBRANCH   2   4
BRANCH   3  15
HETATM   15  C   UNL     1      -9.837  12.301  65.941  1.00  0.00    -0.266 C  
HETATM   16  C   UNL     1      -9.041  11.588  66.752  1.00  0.00    -0.184 C  
BRANCH  16  17
HETATM   17  C   UNL     1      -8.994  10.130  66.700  1.00  0.00    -0.156 C  
HETATM   18  C   UNL     1      -8.043   7.989  67.593  1.00  0.00    -0.124 C  
HETATM   19  O   UNL     1      -8.606   7.199  66.857  1.00  0.00    -0.119 OA 
HETATM   20  C   UNL     1      -8.204   9.458  67.563  1.00  0.00    -0.117 C  
HETATM   21  C   UNL     1      -9.869   9.485  65.658  1.00  0.00    -0.343 C  
HETATM   22  O   UNL     1      -7.169   7.605  68.549  1.00  0.00    -0.081 OA 
ENDBRANCH  16  17
ENDBRANCH   3  15
TORSDOF 4
ENDMDL
MODEL       80
REMARK 921   NORMALIZED FREE ENERGY PREDICTED BY IDOCK:   -4.87 KCAL/MOL
REMARK 922        TOTAL FREE ENERGY PREDICTED BY IDOCK:   -7.40 KCAL/MOL
REMARK 923 INTER-LIGAND FREE ENERGY PREDICTED BY IDOCK:   -6.70 KCAL/MOL
REMARK 924 INTRA-LIGAND FREE ENERGY PREDICTED BY IDOCK:   -0.70 KCAL/MOL
REMARK 927      BINDING AFFINITY PREDICTED BY RF-SCORE:    0.00 PKD
ROOT
HETATM    1  C   UNL     1     -14.147   8.873  72.677  1.00  0.00    -0.343 C  
HETATM    2  C   UNL     1     -13.071   9.187  71.675  1.00  0.00    -0.431 C  
HETATM    3  C   UNL     1     -13.145  10.310  70.927  1.00  0.00    -0.423 C  
ENDROOT
BRANCH   2   4
HETATM    4  C   UNL     1     -11.948   8.261  71.600  1.00  0.00    -0.346 C  
HETATM    5  C   UNL     1     -12.044   6.923  71.622  1.00  0.00    -0.394 C  
BRANCH   5   6
HETATM    6  C   UNL     1     -10.917   5.992  71.455  1.00  0.00    -0.335 C  
HETATM    7  C   UNL     1     -11.277   4.395  73.411  1.00  0.00    -0.386 C  
HETATM    8  C   UNL     1     -10.420   5.760  70.223  1.00  0.00    -0.349 C  
HETATM    9  C   UNL     1      -9.221   4.894  69.955  1.00  0.00    -0.182 C  
HETATM   10  C   UNL     1     -10.986   6.336  68.941  1.00  0.00    -0.435 C  
HETATM   11  C   UNL     1     -10.001   6.523  73.756  1.00  0.00    -0.274 C  
HETATM   12  C   UNL     1     -10.299   5.389  72.738  1.00  0.00    -0.235 C  
HETATM   13  C   UNL     1      -8.951   4.634  72.532  1.00  0.00    -0.132 C  
HETATM   14  C   UNL     1      -8.517   4.246  71.130  1.00  0.00    -0.105 C  
ENDBRANCH   5   6
ENDBRANCH   2   4
BRANCH   3  15
HETATM   15  C   UNL     1     -12.198  10.687  69.901  1.00  0.00    -0.346 C  
HETATM   16  C   UNL     1     -11.854  11.946  69.587  1.00  0.00    -0.406 C  
BRANCH  16  17
HETATM   17  C   UNL     1     -10.940  12.244  68.488  1.00  0.00    -0.275 C  
HETATM   18  C   UNL     1     -10.510  13.460  66.338  1.00  0.00    -0.286 C  
HETATM   19  O   UNL     1      -9.391  13.045  66.095  1.00  0.00    -0.198 OA 
HETATM   20  C   UNL     1     -11.325  13.100  67.518  1.00  0.00    -0.336 C  
HETATM   21  C   UNL     1      -9.604  11.554  68.543  1.00  0.00    -0.180 C  
HETATM   22  O   UNL     1     -11.164  14.320  65.527  1.00  0.00    -0.305 OA 
ENDBRANCH  16  17
ENDBRANCH   3  15
TORSDOF 4
ENDMDL
MODEL       81
REMARK 921   NORMALIZED FREE ENERGY PREDICTED BY IDOCK:   -4.83 KCAL/MOL
REMARK 922        TOTAL FREE ENERGY PREDICTED BY IDOCK:   -7.36 KCAL/MOL
REMARK 923 INTER-LIGAND FREE ENERGY PREDICTED BY IDOCK:   -6.06 KCAL/MOL
REMARK 924 INTRA-LIGAND FREE ENERGY PREDICTED BY IDOCK:   -1.30 KCAL/MOL
REMARK 927      BINDING AFFINITY PREDICTED BY RF-SCORE:    0.00 PKD
ROOT
HETATM    1  C   UNL     1     -10.724   5.359  73.769  1.00  0.00    -0.324 C  
HETATM    2  C   UNL     1     -10.498   6.381  72.689  1.00  0.00    -0.234 C  
HETATM    3  C   UNL     1     -10.866   7.666  72.881  1.00  0.00    -0.446 C  
ENDROOT
BRANCH   2   4
HETATM    4  C   UNL     1      -9.828   5.924  71.478  1.00  0.00    -0.201 C  
HETATM    5  C   UNL     1     -10.403   5.213  70.495  1.00  0.00    -0.314 C  
BRANCH   5   6
HETATM    6  C   UNL     1      -9.747   4.832  69.234  1.00  0.00    -0.266 C  
HETATM    7  C   UNL     1      -8.795   7.066  68.456  1.00  0.00    -0.124 C  
HETATM    8  C   UNL     1      -9.265   3.581  69.084  1.00  0.00    -0.225 C  
HETATM    9  C   UNL     1      -8.655   3.068  67.810  1.00  0.00    -0.117 C  
HETATM   10  C   UNL     1      -9.272   2.518  70.164  1.00  0.00    -0.199 C  
HETATM   11  C   UNL     1     -11.157   6.451  67.890  1.00  0.00    -0.370 C  
HETATM   12  C   UNL     1      -9.728   5.882  68.100  1.00  0.00    -0.143 C  
HETATM   13  C   UNL     1      -9.272   5.346  66.709  1.00  0.00    -0.128 C  
HETATM   14  C   UNL     1      -8.579   3.998  66.616  1.00  0.00    -0.109 C  
ENDBRANCH   5   6
ENDBRANCH   2   4
BRANCH   3  15
HETATM   15  C   UNL     1     -10.745   8.720  71.898  1.00  0.00    -0.429 C  
HETATM   16  C   UNL     1     -11.765   9.430  71.390  1.00  0.00    -0.448 C  
BRANCH  16  17
HETATM   17  C   UNL     1     -11.563  10.431  70.348  1.00  0.00    -0.423 C  
HETATM   18  C   UNL     1     -11.933  12.775  69.537  1.00  0.00    -0.276 C  
HETATM   19  O   UNL     1     -11.392  12.697  68.449  1.00  0.00    -0.247 OA 
HETATM   20  C   UNL     1     -12.042  11.681  70.525  1.00  0.00    -0.458 C  
HETATM   21  C   UNL     1     -10.805   9.968  69.133  1.00  0.00    -0.253 C  
HETATM   22  O   UNL     1     -12.525  13.905  69.979  1.00  0.00    -0.329 OA 
ENDBRANCH  16  17
ENDBRANCH   3  15
TORSDOF 4
ENDMDL
MODEL       82
REMARK 921   NORMALIZED FREE ENERGY PREDICTED BY IDOCK:   -4.81 KCAL/MOL
REMARK 922        TOTAL FREE ENERGY PREDICTED BY IDOCK:   -7.33 KCAL/MOL
REMARK 923 INTER-LIGAND FREE ENERGY PREDICTED BY IDOCK:   -6.68 KCAL/MOL
REMARK 924 INTRA-LIGAND FREE ENERGY PREDICTED BY IDOCK:   -0.65 KCAL/MOL
REMARK 927      BINDING AFFINITY PREDICTED BY RF-SCORE:    0.00 PKD
ROOT
HETATM    1  C   UNL     1      -9.609  17.698  66.725  1.00  0.00    -0.297 C  
HETATM    2  C   UNL     1     -10.239  16.508  67.396  1.00  0.00    -0.287 C  
HETATM    3  C   UNL     1     -11.127  16.684  68.399  1.00  0.00    -0.305 C  
ENDROOT
BRANCH   2   4
HETATM    4  C   UNL     1      -9.885  15.193  66.878  1.00  0.00    -0.243 C  
HETATM    5  C   UNL     1     -10.630  14.084  67.004  1.00  0.00    -0.279 C  
BRANCH   5   6
HETATM    6  C   UNL     1     -10.312  12.780  66.402  1.00  0.00    -0.271 C  
HETATM    7  C   UNL     1     -10.560  13.288  63.915  1.00  0.00    -0.075 C  
HETATM    8  C   UNL     1      -9.471  11.939  67.038  1.00  0.00    -0.192 C  
HETATM    9  C   UNL     1      -9.147  10.554  66.551  1.00  0.00    -0.175 C  
HETATM   10  C   UNL     1      -8.741  12.259  68.327  1.00  0.00    -0.178 C  
HETATM   11  C   UNL     1     -12.569  12.636  65.262  1.00  0.00    -0.388 C  
HETATM   12  C   UNL     1     -11.043  12.406  65.092  1.00  0.00    -0.348 C  
HETATM   13  C   UNL     1     -10.883  10.921  64.645  1.00  0.00    -0.153 C  
HETATM   14  C   UNL     1      -9.804  10.061  65.278  1.00  0.00    -0.388 C  
ENDBRANCH   5   6
ENDBRANCH   2   4
BRANCH   3  15
HETATM   15  C   UNL     1     -11.755  15.618  69.149  1.00  0.00    -0.402 C  
HETATM   16  C   UNL     1     -11.673  15.451  70.478  1.00  0.00    -0.356 C  
BRANCH  16  17
HETATM   17  C   UNL     1     -12.281  14.306  71.149  1.00  0.00    -0.431 C  
HETATM   18  C   UNL     1     -12.841  11.863  71.119  1.00  0.00    -0.249 C  
HETATM   19  O   UNL     1     -13.440  11.782  72.176  1.00  0.00    -0.446 OA 
HETATM   20  C   UNL     1     -12.238  13.092  70.561  1.00  0.00    -0.392 C  
HETATM   21  C   UNL     1     -12.913  14.591  72.485  1.00  0.00    -0.500 C  
HETATM   22  O   UNL     1     -12.660  10.805  70.298  1.00  0.00    -0.325 OA 
ENDBRANCH  16  17
ENDBRANCH   3  15
TORSDOF 4
ENDMDL
MODEL       83
REMARK 921   NORMALIZED FREE ENERGY PREDICTED BY IDOCK:   -4.80 KCAL/MOL
REMARK 922        TOTAL FREE ENERGY PREDICTED BY IDOCK:   -7.32 KCAL/MOL
REMARK 923 INTER-LIGAND FREE ENERGY PREDICTED BY IDOCK:   -5.92 KCAL/MOL
REMARK 924 INTRA-LIGAND FREE ENERGY PREDICTED BY IDOCK:   -1.40 KCAL/MOL
REMARK 927      BINDING AFFINITY PREDICTED BY RF-SCORE:    0.00 PKD
ROOT
HETATM    1  C   UNL     1     -13.360   9.964  71.970  1.00  0.00    -0.532 C  
HETATM    2  C   UNL     1     -12.330   9.883  70.877  1.00  0.00    -0.403 C  
HETATM    3  C   UNL     1     -12.219  10.880  69.972  1.00  0.00    -0.422 C  
ENDROOT
BRANCH   2   4
HETATM    4  C   UNL     1     -11.448   8.723  70.885  1.00  0.00    -0.330 C  
HETATM    5  C   UNL     1     -11.762   7.507  70.410  1.00  0.00    -0.116 C  
BRANCH   5   6
HETATM    6  C   UNL     1     -10.838   6.365  70.339  1.00  0.00    -0.343 C  
HETATM    7  C   UNL     1      -8.967   7.308  68.886  1.00  0.00    -0.133 C  
HETATM    8  C   UNL     1     -10.787   5.483  71.358  1.00  0.00    -0.256 C  
HETATM    9  C   UNL     1      -9.941   4.240  71.346  1.00  0.00    -0.238 C  
HETATM   10  C   UNL     1     -11.570   5.609  72.649  1.00  0.00    -0.307 C  
HETATM   11  C   UNL     1     -10.979   6.274  67.811  1.00  0.00    -0.427 C  
HETATM   12  C   UNL     1     -10.026   6.189  69.034  1.00  0.00    -0.188 C  
HETATM   13  C   UNL     1      -9.276   4.830  68.899  1.00  0.00    -0.172 C  
HETATM   14  C   UNL     1      -9.099   3.947  70.121  1.00  0.00    -0.191 C  
ENDBRANCH   5   6
ENDBRANCH   2   4
BRANCH   3  15
HETATM   15  C   UNL     1     -11.303  10.887  68.853  1.00  0.00    -0.354 C  
HETATM   16  C   UNL     1     -11.654  11.025  67.565  1.00  0.00    -0.166 C  
BRANCH  16  17
HETATM   17  C   UNL     1     -10.671  10.951  66.487  1.00  0.00    -0.270 C  
HETATM   18  C   UNL     1      -8.834   9.674  65.355  1.00  0.00    -0.171 C  
HETATM   19  O   UNL     1      -8.548  10.470  64.480  1.00  0.00    -0.179 OA 
HETATM   20  C   UNL     1      -9.886   9.859  66.378  1.00  0.00    -0.288 C  
HETATM   21  C   UNL     1     -10.627  12.135  65.560  1.00  0.00    -0.314 C  
HETATM   22  O   UNL     1      -8.196   8.493  65.507  1.00  0.00    -0.121 OA 
ENDBRANCH  16  17
ENDBRANCH   3  15
TORSDOF 4
ENDMDL
MODEL       84
REMARK 921   NORMALIZED FREE ENERGY PREDICTED BY IDOCK:   -4.80 KCAL/MOL
REMARK 922        TOTAL FREE ENERGY PREDICTED BY IDOCK:   -7.32 KCAL/MOL
REMARK 923 INTER-LIGAND FREE ENERGY PREDICTED BY IDOCK:   -6.26 KCAL/MOL
REMARK 924 INTRA-LIGAND FREE ENERGY PREDICTED BY IDOCK:   -1.06 KCAL/MOL
REMARK 927      BINDING AFFINITY PREDICTED BY RF-SCORE:    0.00 PKD
ROOT
HETATM    1  C   UNL     1      -6.522  13.632  68.532  1.00  0.00    -0.090 C  
HETATM    2  C   UNL     1      -7.372  12.410  68.315  1.00  0.00    -0.113 C  
HETATM    3  C   UNL     1      -7.365  11.408  69.222  1.00  0.00    -0.042 C  
ENDROOT
BRANCH   2   4
HETATM    4  C   UNL     1      -8.221  12.397  67.131  1.00  0.00    -0.176 C  
HETATM    5  C   UNL     1      -9.556  12.540  67.133  1.00  0.00    -0.208 C  
BRANCH   5   6
HETATM    6  C   UNL     1     -10.398  12.616  65.929  1.00  0.00    -0.295 C  
HETATM    7  C   UNL     1     -10.242  15.095  65.349  1.00  0.00    -0.402 C  
HETATM    8  C   UNL     1     -10.510  11.540  65.124  1.00  0.00    -0.340 C  
HETATM    9  C   UNL     1     -11.408  11.487  63.919  1.00  0.00    -0.400 C  
HETATM   10  C   UNL     1      -9.760  10.237  65.315  1.00  0.00    -0.354 C  
HETATM   11  C   UNL     1     -11.955  14.304  66.996  1.00  0.00    -0.463 C  
HETATM   12  C   UNL     1     -11.192  13.923  65.699  1.00  0.00    -0.306 C  
HETATM   13  C   UNL     1     -12.268  13.856  64.574  1.00  0.00    -0.451 C  
HETATM   14  C   UNL     1     -12.246  12.704  63.585  1.00  0.00    -0.624 C  
ENDBRANCH   5   6
ENDBRANCH   2   4
BRANCH   3  15
HETATM   15  C   UNL     1      -8.100  10.169  69.095  1.00  0.00    -0.134 C  
HETATM   16  C   UNL     1      -9.180   9.830  69.817  1.00  0.00    -0.248 C  
BRANCH  16  17
HETATM   17  C   UNL     1      -9.823   8.527  69.674  1.00  0.00    -0.183 C  
HETATM   18  C   UNL     1     -10.847   6.804  68.168  1.00  0.00    -0.228 C  
HETATM   19  O   UNL     1     -11.177   5.981  69.002  1.00  0.00    -0.367 OA 
HETATM   20  C   UNL     1     -10.164   8.085  68.445  1.00  0.00    -0.239 C  
HETATM   21  C   UNL     1     -10.046   7.764  70.952  1.00  0.00    -0.195 C  
HETATM   22  O   UNL     1     -11.081   6.641  66.847  1.00  0.00    -0.400 OA 
ENDBRANCH  16  17
ENDBRANCH   3  15
TORSDOF 4
ENDMDL
MODEL       85
REMARK 921   NORMALIZED FREE ENERGY PREDICTED BY IDOCK:   -4.80 KCAL/MOL
REMARK 922        TOTAL FREE ENERGY PREDICTED BY IDOCK:   -7.32 KCAL/MOL
REMARK 923 INTER-LIGAND FREE ENERGY PREDICTED BY IDOCK:   -5.84 KCAL/MOL
REMARK 924 INTRA-LIGAND FREE ENERGY PREDICTED BY IDOCK:   -1.48 KCAL/MOL
REMARK 927      BINDING AFFINITY PREDICTED BY RF-SCORE:    0.00 PKD
ROOT
HETATM    1  C   UNL     1     -12.657  11.794  63.372  1.00  0.00    -0.458 C  
HETATM    2  C   UNL     1     -11.891  12.655  64.338  1.00  0.00    -0.452 C  
HETATM    3  C   UNL     1     -11.804  13.989  64.138  1.00  0.00    -0.393 C  
ENDROOT
BRANCH   2   4
HETATM    4  C   UNL     1     -11.311  11.992  65.498  1.00  0.00    -0.381 C  
HETATM    5  C   UNL     1     -10.012  11.683  65.646  1.00  0.00    -0.274 C  
BRANCH   5   6
HETATM    6  C   UNL     1      -9.417  11.094  66.855  1.00  0.00    -0.203 C  
HETATM    7  C   UNL     1     -10.456  12.530  68.689  1.00  0.00    -0.220 C  
HETATM    8  C   UNL     1      -9.071   9.790  66.862  1.00  0.00    -0.162 C  
HETATM    9  C   UNL     1      -8.382   9.115  68.015  1.00  0.00    -0.120 C  
HETATM   10  C   UNL     1      -9.318   8.825  65.721  1.00  0.00    -0.259 C  
HETATM   11  C   UNL     1      -8.367  13.296  67.537  1.00  0.00    -0.186 C  
HETATM   12  C   UNL     1      -9.135  12.045  68.042  1.00  0.00    -0.188 C  
HETATM   13  C   UNL     1      -8.264  11.439  69.183  1.00  0.00     0.098 C  
HETATM   14  C   UNL     1      -8.043   9.938  69.241  1.00  0.00    -0.128 C  
ENDBRANCH   5   6
ENDBRANCH   2   4
BRANCH   3  15
HETATM   15  C   UNL     1     -11.055  14.905  64.970  1.00  0.00    -0.422 C  
HETATM   16  C   UNL     1     -11.399  15.286  66.210  1.00  0.00    -0.155 C  
BRANCH  16  17
HETATM   17  C   UNL     1     -10.623  16.271  66.957  1.00  0.00    -0.284 C  
HETATM   18  C   UNL     1      -8.953  18.141  66.930  1.00  0.00    -0.271 C  
HETATM   19  O   UNL     1      -8.871  18.353  68.126  1.00  0.00    -0.286 OA 
HETATM   20  C   UNL     1      -9.813  17.122  66.292  1.00  0.00    -0.306 C  
HETATM   21  C   UNL     1     -10.809  16.255  68.450  1.00  0.00    -0.334 C  
HETATM   22  O   UNL     1      -8.236  18.829  66.014  1.00  0.00    -0.458 OA 
ENDBRANCH  16  17
ENDBRANCH   3  15
TORSDOF 4
ENDMDL
MODEL       86
REMARK 921   NORMALIZED FREE ENERGY PREDICTED BY IDOCK:   -4.80 KCAL/MOL
REMARK 922        TOTAL FREE ENERGY PREDICTED BY IDOCK:   -7.32 KCAL/MOL
REMARK 923 INTER-LIGAND FREE ENERGY PREDICTED BY IDOCK:   -6.29 KCAL/MOL
REMARK 924 INTRA-LIGAND FREE ENERGY PREDICTED BY IDOCK:   -1.03 KCAL/MOL
REMARK 927      BINDING AFFINITY PREDICTED BY RF-SCORE:    0.00 PKD
ROOT
HETATM    1  C   UNL     1     -12.244  12.185  63.764  1.00  0.00    -0.630 C  
HETATM    2  C   UNL     1     -11.319  12.990  64.635  1.00  0.00    -0.361 C  
HETATM    3  C   UNL     1     -11.367  14.340  64.611  1.00  0.00    -0.375 C  
ENDROOT
BRANCH   2   4
HETATM    4  C   UNL     1     -10.433  12.248  65.521  1.00  0.00    -0.296 C  
HETATM    5  C   UNL     1     -10.460  12.295  66.863  1.00  0.00    -0.240 C  
BRANCH   5   6
HETATM    6  C   UNL     1      -9.623  11.476  67.754  1.00  0.00    -0.177 C  
HETATM    7  C   UNL     1     -10.740   9.192  67.549  1.00  0.00    -0.255 C  
HETATM    8  C   UNL     1      -8.325  11.797  67.931  1.00  0.00    -0.149 C  
HETATM    9  C   UNL     1      -7.409  11.077  68.882  1.00  0.00    -0.111 C  
HETATM   10  C   UNL     1      -7.607  12.921  67.213  1.00  0.00    -0.104 C  
HETATM   11  C   UNL     1     -11.599  10.857  69.213  1.00  0.00    -0.388 C  
HETATM   12  C   UNL     1     -10.317  10.324  68.517  1.00  0.00    -0.200 C  
HETATM   13  C   UNL     1      -9.462   9.666  69.642  1.00  0.00    -0.226 C  
HETATM   14  C   UNL     1      -7.967   9.928  69.698  1.00  0.00    -0.166 C  
ENDBRANCH   5   6
ENDBRANCH   2   4
BRANCH   3  15
HETATM   15  C   UNL     1     -10.495  15.215  65.365  1.00  0.00    -0.416 C  
HETATM   16  C   UNL     1     -10.878  16.003  66.382  1.00  0.00    -0.159 C  
BRANCH  16  17
HETATM   17  C   UNL     1      -9.946  16.910  67.046  1.00  0.00    -0.279 C  
HETATM   18  C   UNL     1      -9.590  18.979  68.416  1.00  0.00    -0.373 C  
HETATM   19  O   UNL     1      -8.373  18.978  68.466  1.00  0.00    -0.329 OA 
HETATM   20  C   UNL     1     -10.425  17.972  67.729  1.00  0.00    -0.421 C  
HETATM   21  C   UNL     1      -8.488  16.563  66.912  1.00  0.00    -0.244 C  
HETATM   22  O   UNL     1     -10.344  19.939  68.994  1.00  0.00    -0.390 OA 
ENDBRANCH  16  17
ENDBRANCH   3  15
TORSDOF 4
ENDMDL
MODEL       87
REMARK 921   NORMALIZED FREE ENERGY PREDICTED BY IDOCK:   -4.80 KCAL/MOL
REMARK 922        TOTAL FREE ENERGY PREDICTED BY IDOCK:   -7.31 KCAL/MOL
REMARK 923 INTER-LIGAND FREE ENERGY PREDICTED BY IDOCK:   -6.70 KCAL/MOL
REMARK 924 INTRA-LIGAND FREE ENERGY PREDICTED BY IDOCK:   -0.61 KCAL/MOL
REMARK 927      BINDING AFFINITY PREDICTED BY RF-SCORE:    0.00 PKD
ROOT
HETATM    1  C   UNL     1      -9.970  15.184  65.340  1.00  0.00    -0.365 C  
HETATM    2  C   UNL     1     -10.439  14.620  66.652  1.00  0.00    -0.278 C  
HETATM    3  C   UNL     1     -11.288  15.326  67.431  1.00  0.00    -0.285 C  
ENDROOT
BRANCH   2   4
HETATM    4  C   UNL     1      -9.981  13.280  66.997  1.00  0.00    -0.238 C  
HETATM    5  C   UNL     1      -9.435  12.927  68.172  1.00  0.00    -0.218 C  
BRANCH   5   6
HETATM    6  C   UNL     1      -9.056  11.556  68.548  1.00  0.00    -0.157 C  
HETATM    7  C   UNL     1     -10.830  10.182  67.335  1.00  0.00    -0.323 C  
HETATM    8  C   UNL     1      -7.765  11.269  68.813  1.00  0.00    -0.138 C  
HETATM    9  C   UNL     1      -7.288   9.925  69.286  1.00  0.00    -0.084 C  
HETATM   10  C   UNL     1      -6.618  12.251  68.682  1.00  0.00    -0.078 C  
HETATM   11  C   UNL     1     -11.312  11.112  69.611  1.00  0.00    -0.366 C  
HETATM   12  C   UNL     1     -10.196  10.523  68.706  1.00  0.00    -0.205 C  
HETATM   13  C   UNL     1      -9.779   9.173  69.364  1.00  0.00    -0.170 C  
HETATM   14  C   UNL     1      -8.307   8.822  69.487  1.00  0.00    -0.119 C  
ENDBRANCH   5   6
ENDBRANCH   2   4
BRANCH   3  15
HETATM   15  C   UNL     1     -11.765  14.906  68.731  1.00  0.00    -0.353 C  
HETATM   16  C   UNL     1     -11.774  15.667  69.837  1.00  0.00    -0.372 C  
BRANCH  16  17
HETATM   17  C   UNL     1     -12.209  15.143  71.128  1.00  0.00    -0.392 C  
HETATM   18  C   UNL     1     -12.487  15.500  73.594  1.00  0.00    -0.588 C  
HETATM   19  O   UNL     1     -12.938  14.413  73.903  1.00  0.00    -0.314 OA 
HETATM   20  C   UNL     1     -12.113  15.921  72.227  1.00  0.00    -0.597 C  
HETATM   21  C   UNL     1     -12.753  13.740  71.115  1.00  0.00    -0.438 C  
HETATM   22  O   UNL     1     -12.259  16.481  74.495  1.00  0.00    -0.626 OA 
ENDBRANCH  16  17
ENDBRANCH   3  15
TORSDOF 4
ENDMDL
MODEL       88
REMARK 921   NORMALIZED FREE ENERGY PREDICTED BY IDOCK:   -4.79 KCAL/MOL
REMARK 922        TOTAL FREE ENERGY PREDICTED BY IDOCK:   -7.31 KCAL/MOL
REMARK 923 INTER-LIGAND FREE ENERGY PREDICTED BY IDOCK:   -5.88 KCAL/MOL
REMARK 924 INTRA-LIGAND FREE ENERGY PREDICTED BY IDOCK:   -1.43 KCAL/MOL
REMARK 927      BINDING AFFINITY PREDICTED BY RF-SCORE:    0.00 PKD
ROOT
HETATM    1  C   UNL     1      -6.342  13.672  69.017  1.00  0.00    -0.102 C  
HETATM    2  C   UNL     1      -7.364  12.600  68.754  1.00  0.00    -0.066 C  
HETATM    3  C   UNL     1      -7.149  11.336  69.181  1.00  0.00    -0.122 C  
ENDROOT
BRANCH   2   4
HETATM    4  C   UNL     1      -8.589  13.007  68.080  1.00  0.00    -0.186 C  
HETATM    5  C   UNL     1      -8.771  13.030  66.750  1.00  0.00    -0.105 C  
BRANCH   5   6
HETATM    6  C   UNL     1     -10.038  13.355  66.076  1.00  0.00    -0.308 C  
HETATM    7  C   UNL     1     -11.652  11.740  67.211  1.00  0.00    -0.344 C  
HETATM    8  C   UNL     1     -10.243  14.603  65.606  1.00  0.00    -0.382 C  
HETATM    9  C   UNL     1     -11.464  15.014  64.832  1.00  0.00    -0.399 C  
HETATM   10  C   UNL     1      -9.281  15.760  65.782  1.00  0.00    -0.255 C  
HETATM   11  C   UNL     1     -10.319  10.985  65.229  1.00  0.00    -0.338 C  
HETATM   12  C   UNL     1     -11.045  12.201  65.863  1.00  0.00    -0.360 C  
HETATM   13  C   UNL     1     -12.237  12.529  64.915  1.00  0.00    -0.534 C  
HETATM   14  C   UNL     1     -12.528  13.974  64.549  1.00  0.00    -0.342 C  
ENDBRANCH   5   6
ENDBRANCH   2   4
BRANCH   3  15
HETATM   15  C   UNL     1      -8.035  10.218  68.943  1.00  0.00    -0.113 C  
HETATM   16  C   UNL     1      -9.145   9.944  69.646  1.00  0.00    -0.245 C  
BRANCH  16  17
HETATM   17  C   UNL     1      -9.948   8.753  69.385  1.00  0.00    -0.196 C  
HETATM   18  C   UNL     1     -11.223   6.795  70.293  1.00  0.00    -0.334 C  
HETATM   19  O   UNL     1     -11.557   6.272  69.246  1.00  0.00    -0.363 OA 
HETATM   20  C   UNL     1     -10.427   8.034  70.422  1.00  0.00    -0.218 C  
HETATM   21  C   UNL     1     -10.185   8.430  67.934  1.00  0.00    -0.273 C  
HETATM   22  O   UNL     1     -11.542   6.282  71.502  1.00  0.00    -0.298 OA 
ENDBRANCH  16  17
ENDBRANCH   3  15
TORSDOF 4
ENDMDL
MODEL       89
REMARK 921   NORMALIZED FREE ENERGY PREDICTED BY IDOCK:   -4.79 KCAL/MOL
REMARK 922        TOTAL FREE ENERGY PREDICTED BY IDOCK:   -7.31 KCAL/MOL
REMARK 923 INTER-LIGAND FREE ENERGY PREDICTED BY IDOCK:   -6.38 KCAL/MOL
REMARK 924 INTRA-LIGAND FREE ENERGY PREDICTED BY IDOCK:   -0.93 KCAL/MOL
REMARK 927      BINDING AFFINITY PREDICTED BY RF-SCORE:    0.00 PKD
ROOT
HETATM    1  C   UNL     1      -9.283   6.257  66.189  1.00  0.00    -0.143 C  
HETATM    2  C   UNL     1      -9.698   7.418  67.051  1.00  0.00    -0.248 C  
HETATM    3  C   UNL     1     -10.079   8.583  66.484  1.00  0.00    -0.328 C  
ENDROOT
BRANCH   2   4
HETATM    4  C   UNL     1      -9.716   7.198  68.491  1.00  0.00    -0.143 C  
HETATM    5  C   UNL     1     -10.819   7.012  69.233  1.00  0.00    -0.241 C  
BRANCH   5   6
HETATM    6  C   UNL     1     -10.827   6.702  70.672  1.00  0.00    -0.301 C  
HETATM    7  C   UNL     1     -12.827   8.063  71.479  1.00  0.00    -0.331 C  
HETATM    8  C   UNL     1     -10.354   5.514  71.100  1.00  0.00    -0.300 C  
HETATM    9  C   UNL     1     -10.241   5.133  72.550  1.00  0.00    -0.242 C  
HETATM   10  C   UNL     1      -9.865   4.401  70.195  1.00  0.00    -0.288 C  
HETATM   11  C   UNL     1     -10.572   9.140  71.307  1.00  0.00    -0.399 C  
HETATM   12  C   UNL     1     -11.307   7.812  71.634  1.00  0.00    -0.291 C  
HETATM   13  C   UNL     1     -11.042   7.538  73.146  1.00  0.00    -0.378 C  
HETATM   14  C   UNL     1     -10.674   6.137  73.600  1.00  0.00    -0.234 C  
ENDBRANCH   5   6
ENDBRANCH   2   4
BRANCH   3  15
HETATM   15  C   UNL     1     -10.448   9.778  67.210  1.00  0.00    -0.324 C  
HETATM   16  C   UNL     1     -11.154  10.804  66.709  1.00  0.00    -0.153 C  
BRANCH  16  17
HETATM   17  C   UNL     1     -11.425  12.007  67.491  1.00  0.00    -0.403 C  
HETATM   18  C   UNL     1     -12.147  13.023  69.667  1.00  0.00    -0.241 C  
HETATM   19  O   UNL     1     -12.107  14.200  69.360  1.00  0.00    -0.316 OA 
HETATM   20  C   UNL     1     -11.812  11.889  68.779  1.00  0.00    -0.371 C  
HETATM   21  C   UNL     1     -11.233  13.313  66.770  1.00  0.00    -0.331 C  
HETATM   22  O   UNL     1     -12.524  12.598  70.893  1.00  0.00    -0.369 OA 
ENDBRANCH  16  17
ENDBRANCH   3  15
TORSDOF 4
ENDMDL
MODEL       90
REMARK 921   NORMALIZED FREE ENERGY PREDICTED BY IDOCK:   -4.79 KCAL/MOL
REMARK 922        TOTAL FREE ENERGY PREDICTED BY IDOCK:   -7.30 KCAL/MOL
REMARK 923 INTER-LIGAND FREE ENERGY PREDICTED BY IDOCK:   -6.21 KCAL/MOL
REMARK 924 INTRA-LIGAND FREE ENERGY PREDICTED BY IDOCK:   -1.10 KCAL/MOL
REMARK 927      BINDING AFFINITY PREDICTED BY RF-SCORE:    0.00 PKD
ROOT
HETATM    1  C   UNL     1     -10.845  19.421  65.786  1.00  0.00    -0.375 C  
HETATM    2  C   UNL     1     -10.134  18.633  66.851  1.00  0.00    -0.399 C  
HETATM    3  C   UNL     1      -9.106  19.185  67.533  1.00  0.00    -0.336 C  
ENDROOT
BRANCH   2   4
HETATM    4  C   UNL     1     -10.640  17.297  67.134  1.00  0.00    -0.256 C  
HETATM    5  C   UNL     1     -10.181  16.161  66.583  1.00  0.00    -0.291 C  
BRANCH   5   6
HETATM    6  C   UNL     1     -10.634  14.807  66.937  1.00  0.00    -0.294 C  
HETATM    7  C   UNL     1     -10.041  13.500  64.830  1.00  0.00    -0.267 C  
HETATM    8  C   UNL     1     -10.634  14.421  68.230  1.00  0.00    -0.243 C  
HETATM    9  C   UNL     1     -11.154  13.093  68.704  1.00  0.00    -0.304 C  
HETATM   10  C   UNL     1     -10.122  15.260  69.382  1.00  0.00    -0.266 C  
HETATM   11  C   UNL     1     -12.229  14.712  64.972  1.00  0.00    -0.323 C  
HETATM   12  C   UNL     1     -11.177  13.919  65.794  1.00  0.00    -0.303 C  
HETATM   13  C   UNL     1     -11.891  12.612  66.253  1.00  0.00    -0.471 C  
HETATM   14  C   UNL     1     -11.721  12.128  67.683  1.00  0.00    -0.386 C  
ENDBRANCH   5   6
ENDBRANCH   2   4
BRANCH   3  15
HETATM   15  C   UNL     1      -8.319  18.508  68.540  1.00  0.00    -0.359 C  
HETATM   16  C   UNL     1      -7.095  17.991  68.350  1.00  0.00    -0.247 C  
BRANCH  16  17
HETATM   17  C   UNL     1      -6.396  17.259  69.402  1.00  0.00    -0.244 C  
HETATM   18  C   UNL     1      -5.811  15.056  70.447  1.00  0.00    -0.143 C  
HETATM   19  O   UNL     1      -5.156  15.452  71.393  1.00  0.00    -0.167 OA 
HETATM   20  C   UNL     1      -6.447  15.911  69.421  1.00  0.00    -0.167 C  
HETATM   21  C   UNL     1      -5.648  18.103  70.399  1.00  0.00    -0.220 C  
HETATM   22  O   UNL     1      -6.052  13.746  70.220  1.00  0.00    -0.148 OA 
ENDBRANCH  16  17
ENDBRANCH   3  15
TORSDOF 4
ENDMDL
MODEL       91
REMARK 921   NORMALIZED FREE ENERGY PREDICTED BY IDOCK:   -4.78 KCAL/MOL
REMARK 922        TOTAL FREE ENERGY PREDICTED BY IDOCK:   -7.29 KCAL/MOL
REMARK 923 INTER-LIGAND FREE ENERGY PREDICTED BY IDOCK:   -5.82 KCAL/MOL
REMARK 924 INTRA-LIGAND FREE ENERGY PREDICTED BY IDOCK:   -1.47 KCAL/MOL
REMARK 927      BINDING AFFINITY PREDICTED BY RF-SCORE:    0.00 PKD
ROOT
HETATM    1  C   UNL     1      -6.148  13.074  69.764  1.00  0.00    -0.123 C  
HETATM    2  C   UNL     1      -7.079  13.081  68.583  1.00  0.00    -0.103 C  
HETATM    3  C   UNL     1      -7.573  14.248  68.113  1.00  0.00    -0.134 C  
ENDROOT
BRANCH   2   4
HETATM    4  C   UNL     1      -7.365  11.796  67.959  1.00  0.00    -0.091 C  
HETATM    5  C   UNL     1      -8.165  10.847  68.471  1.00  0.00    -0.140 C  
BRANCH   5   6
HETATM    6  C   UNL     1      -8.522   9.589  67.796  1.00  0.00    -0.119 C  
HETATM    7  C   UNL     1      -9.616  10.446  65.658  1.00  0.00    -0.281 C  
HETATM    8  C   UNL     1      -7.779   8.483  68.010  1.00  0.00    -0.103 C  
HETATM    9  C   UNL     1      -8.107   7.133  67.437  1.00  0.00    -0.112 C  
HETATM   10  C   UNL     1      -6.523   8.437  68.856  1.00  0.00    -0.049 C  
HETATM   11  C   UNL     1     -10.981  10.191  67.743  1.00  0.00    -0.338 C  
HETATM   12  C   UNL     1      -9.804   9.586  66.932  1.00  0.00    -0.262 C  
HETATM   13  C   UNL     1     -10.285   8.179  66.465  1.00  0.00    -0.248 C  
HETATM   14  C   UNL     1      -9.344   6.992  66.574  1.00  0.00    -0.201 C  
ENDBRANCH   5   6
ENDBRANCH   2   4
BRANCH   3  15
HETATM   15  C   UNL     1      -8.511  14.372  67.020  1.00  0.00    -0.206 C  
HETATM   16  C   UNL     1      -9.835  14.549  67.150  1.00  0.00    -0.245 C  
BRANCH  16  17
HETATM   17  C   UNL     1     -10.724  14.595  65.992  1.00  0.00    -0.313 C  
HETATM   18  C   UNL     1     -12.525  13.497  64.637  1.00  0.00    -0.323 C  
HETATM   19  O   UNL     1     -12.631  14.318  63.744  1.00  0.00    -0.821 OA 
HETATM   20  C   UNL     1     -11.597  13.587  65.784  1.00  0.00    -0.351 C  
HETATM   21  C   UNL     1     -10.588  15.807  65.110  1.00  0.00    -0.436 C  
HETATM   22  O   UNL     1     -13.261  12.365  64.681  1.00  0.00    -0.822 OA 
ENDBRANCH  16  17
ENDBRANCH   3  15
TORSDOF 4
ENDMDL
MODEL       92
REMARK 921   NORMALIZED FREE ENERGY PREDICTED BY IDOCK:   -4.76 KCAL/MOL
REMARK 922        TOTAL FREE ENERGY PREDICTED BY IDOCK:   -7.27 KCAL/MOL
REMARK 923 INTER-LIGAND FREE ENERGY PREDICTED BY IDOCK:   -6.28 KCAL/MOL
REMARK 924 INTRA-LIGAND FREE ENERGY PREDICTED BY IDOCK:   -0.99 KCAL/MOL
REMARK 927      BINDING AFFINITY PREDICTED BY RF-SCORE:    0.00 PKD
ROOT
HETATM    1  C   UNL     1     -12.019   7.004  71.589  1.00  0.00    -0.365 C  
HETATM    2  C   UNL     1     -11.875   8.461  71.243  1.00  0.00    -0.327 C  
HETATM    3  C   UNL     1     -12.864   9.331  71.544  1.00  0.00    -0.427 C  
ENDROOT
BRANCH   2   4
HETATM    4  C   UNL     1     -10.619   8.874  70.632  1.00  0.00    -0.277 C  
HETATM    5  C   UNL     1     -10.123   8.394  69.481  1.00  0.00    -0.200 C  
BRANCH   5   6
HETATM    6  C   UNL     1      -8.899   8.878  68.822  1.00  0.00    -0.137 C  
HETATM    7  C   UNL     1      -9.629  11.185  68.015  1.00  0.00    -0.181 C  
HETATM    8  C   UNL     1      -7.695   8.448  69.252  1.00  0.00    -0.098 C  
HETATM    9  C   UNL     1      -6.394   8.816  68.595  1.00  0.00    -0.053 C  
HETATM   10  C   UNL     1      -7.478   7.535  70.442  1.00  0.00    -0.081 C  
HETATM   11  C   UNL     1     -10.083   9.167  66.601  1.00  0.00    -0.343 C  
HETATM   12  C   UNL     1      -9.073   9.802  67.595  1.00  0.00    -0.140 C  
HETATM   13  C   UNL     1      -7.774  10.064  66.774  1.00  0.00    -0.103 C  
HETATM   14  C   UNL     1      -6.424   9.714  67.376  1.00  0.00    -0.069 C  
ENDBRANCH   5   6
ENDBRANCH   2   4
BRANCH   3  15
HETATM   15  C   UNL     1     -12.857  10.740  71.215  1.00  0.00    -0.540 C  
HETATM   16  C   UNL     1     -13.218  11.732  72.044  1.00  0.00    -0.460 C  
BRANCH  16  17
HETATM   17  C   UNL     1     -13.249  13.126  71.610  1.00  0.00    -0.435 C  
HETATM   18  C   UNL     1     -12.226  14.959  70.240  1.00  0.00    -0.335 C  
HETATM   19  O   UNL     1     -12.966  15.875  70.549  1.00  0.00    -0.438 OA 
HETATM   20  C   UNL     1     -12.324  13.569  70.733  1.00  0.00    -0.440 C  
HETATM   21  C   UNL     1     -14.352  13.968  72.192  1.00  0.00    -0.577 C  
HETATM   22  O   UNL     1     -11.187  15.113  69.390  1.00  0.00    -0.251 OA 
ENDBRANCH  16  17
ENDBRANCH   3  15
TORSDOF 4
ENDMDL
MODEL       93
REMARK 921   NORMALIZED FREE ENERGY PREDICTED BY IDOCK:   -4.75 KCAL/MOL
REMARK 922        TOTAL FREE ENERGY PREDICTED BY IDOCK:   -7.25 KCAL/MOL
REMARK 923 INTER-LIGAND FREE ENERGY PREDICTED BY IDOCK:   -6.37 KCAL/MOL
REMARK 924 INTRA-LIGAND FREE ENERGY PREDICTED BY IDOCK:   -0.88 KCAL/MOL
REMARK 927      BINDING AFFINITY PREDICTED BY RF-SCORE:    0.00 PKD
ROOT
HETATM    1  C   UNL     1      -9.983   9.933  65.940  1.00  0.00    -0.347 C  
HETATM    2  C   UNL     1     -10.342  10.464  67.301  1.00  0.00    -0.278 C  
HETATM    3  C   UNL     1     -11.096  11.580  67.418  1.00  0.00    -0.339 C  
ENDROOT
BRANCH   2   4
HETATM    4  C   UNL     1      -9.888   9.694  68.452  1.00  0.00    -0.170 C  
HETATM    5  C   UNL     1     -10.268   8.440  68.744  1.00  0.00    -0.223 C  
BRANCH   5   6
HETATM    6  C   UNL     1      -9.739   7.636  69.857  1.00  0.00    -0.175 C  
HETATM    7  C   UNL     1     -11.886   6.812  70.960  1.00  0.00    -0.427 C  
HETATM    8  C   UNL     1      -8.539   7.033  69.732  1.00  0.00    -0.141 C  
HETATM    9  C   UNL     1      -7.874   6.260  70.837  1.00  0.00    -0.107 C  
HETATM   10  C   UNL     1      -7.689   7.051  68.478  1.00  0.00    -0.120 C  
HETATM   11  C   UNL     1     -10.938   9.045  71.586  1.00  0.00    -0.435 C  
HETATM   12  C   UNL     1     -10.567   7.598  71.162  1.00  0.00    -0.235 C  
HETATM   13  C   UNL     1      -9.843   6.966  72.388  1.00  0.00    -0.172 C  
HETATM   14  C   UNL     1      -8.579   6.151  72.173  1.00  0.00    -0.127 C  
ENDBRANCH   5   6
ENDBRANCH   2   4
BRANCH   3  15
HETATM   15  C   UNL     1     -11.460  12.208  68.669  1.00  0.00    -0.347 C  
HETATM   16  C   UNL     1     -12.249  11.665  69.609  1.00  0.00    -0.271 C  
BRANCH  16  17
HETATM   17  C   UNL     1     -12.624  12.396  70.815  1.00  0.00    -0.298 C  
HETATM   18  C   UNL     1     -12.631  14.556  72.089  1.00  0.00    -0.314 C  
HETATM   19  O   UNL     1     -13.180  14.184  73.110  1.00  0.00    -0.613 OA 
HETATM   20  C   UNL     1     -12.335  13.711  70.913  1.00  0.00    -0.450 C  
HETATM   21  C   UNL     1     -13.333  11.594  71.873  1.00  0.00    -0.403 C  
HETATM   22  O   UNL     1     -12.205  15.825  71.908  1.00  0.00    -0.377 OA 
ENDBRANCH  16  17
ENDBRANCH   3  15
TORSDOF 4
ENDMDL
MODEL       94
REMARK 921   NORMALIZED FREE ENERGY PREDICTED BY IDOCK:   -4.74 KCAL/MOL
REMARK 922        TOTAL FREE ENERGY PREDICTED BY IDOCK:   -7.24 KCAL/MOL
REMARK 923 INTER-LIGAND FREE ENERGY PREDICTED BY IDOCK:   -6.19 KCAL/MOL
REMARK 924 INTRA-LIGAND FREE ENERGY PREDICTED BY IDOCK:   -1.06 KCAL/MOL
REMARK 927      BINDING AFFINITY PREDICTED BY RF-SCORE:    0.00 PKD
ROOT
HETATM    1  C   UNL     1      -7.178   7.568  64.556  1.00  0.00    -0.077 C  
HETATM    2  C   UNL     1      -8.214   8.538  65.056  1.00  0.00    -0.160 C  
HETATM    3  C   UNL     1      -8.800   9.406  64.202  1.00  0.00    -0.216 C  
ENDROOT
BRANCH   2   4
HETATM    4  C   UNL     1      -8.576   8.450  66.464  1.00  0.00    -0.128 C  
HETATM    5  C   UNL     1      -9.717   7.925  66.940  1.00  0.00    -0.285 C  
BRANCH   5   6
HETATM    6  C   UNL     1     -10.039   7.757  68.365  1.00  0.00    -0.215 C  
HETATM    7  C   UNL     1      -8.267   6.075  69.097  1.00  0.00    -0.111 C  
HETATM    8  C   UNL     1     -10.606   8.775  69.045  1.00  0.00    -0.191 C  
HETATM    9  C   UNL     1     -11.049   8.677  70.479  1.00  0.00    -0.268 C  
HETATM   10  C   UNL     1     -10.883  10.150  68.471  1.00  0.00    -0.278 C  
HETATM   11  C   UNL     1     -10.417   5.268  68.095  1.00  0.00    -0.140 C  
HETATM   12  C   UNL     1      -9.784   6.367  68.991  1.00  0.00    -0.145 C  
HETATM   13  C   UNL     1     -10.389   6.159  70.413  1.00  0.00    -0.269 C  
HETATM   14  C   UNL     1     -10.861   7.363  71.209  1.00  0.00    -0.258 C  
ENDBRANCH   5   6
ENDBRANCH   2   4
BRANCH   3  15
HETATM   15  C   UNL     1      -9.768  10.413  64.577  1.00  0.00    -0.393 C  
HETATM   16  C   UNL     1     -10.548  11.095  63.724  1.00  0.00    -0.422 C  
BRANCH  16  17
HETATM   17  C   UNL     1     -11.452  12.147  64.180  1.00  0.00    -0.460 C  
HETATM   18  C   UNL     1     -12.308  13.557  66.068  1.00  0.00    -0.433 C  
HETATM   19  O   UNL     1     -13.157  14.195  65.472  1.00  0.00    -0.691 OA 
HETATM   20  C   UNL     1     -11.427  12.530  65.475  1.00  0.00    -0.389 C  
HETATM   21  C   UNL     1     -12.354  12.736  63.130  1.00  0.00    -0.278 C  
HETATM   22  O   UNL     1     -12.071  13.712  67.389  1.00  0.00    -0.380 OA 
ENDBRANCH  16  17
ENDBRANCH   3  15
TORSDOF 4
ENDMDL
MODEL       95
REMARK 921   NORMALIZED FREE ENERGY PREDICTED BY IDOCK:   -4.73 KCAL/MOL
REMARK 922        TOTAL FREE ENERGY PREDICTED BY IDOCK:   -7.23 KCAL/MOL
REMARK 923 INTER-LIGAND FREE ENERGY PREDICTED BY IDOCK:   -6.28 KCAL/MOL
REMARK 924 INTRA-LIGAND FREE ENERGY PREDICTED BY IDOCK:   -0.95 KCAL/MOL
REMARK 927      BINDING AFFINITY PREDICTED BY RF-SCORE:    0.00 PKD
ROOT
HETATM    1  C   UNL     1     -10.322  12.133  63.807  1.00  0.00    -0.465 C  
HETATM    2  C   UNL     1     -10.707  11.989  65.254  1.00  0.00    -0.331 C  
HETATM    3  C   UNL     1     -11.692  12.754  65.775  1.00  0.00    -0.449 C  
ENDROOT
BRANCH   2   4
HETATM    4  C   UNL     1     -10.011  10.967  66.024  1.00  0.00    -0.285 C  
HETATM    5  C   UNL     1      -9.947   9.665  65.704  1.00  0.00    -0.321 C  
BRANCH   5   6
HETATM    6  C   UNL     1      -9.168   8.653  66.436  1.00  0.00    -0.245 C  
HETATM    7  C   UNL     1     -10.964   6.930  66.993  1.00  0.00    -0.404 C  
HETATM    8  C   UNL     1      -7.860   8.485  66.154  1.00  0.00    -0.098 C  
HETATM    9  C   UNL     1      -6.959   7.540  66.899  1.00  0.00    -0.079 C  
HETATM   10  C   UNL     1      -7.110   9.221  65.062  1.00  0.00    -0.097 C  
HETATM   11  C   UNL     1     -10.605   8.893  68.508  1.00  0.00    -0.183 C  
HETATM   12  C   UNL     1      -9.889   7.885  67.568  1.00  0.00    -0.221 C  
HETATM   13  C   UNL     1      -8.962   7.031  68.483  1.00  0.00    -0.122 C  
HETATM   14  C   UNL     1      -7.542   6.729  68.039  1.00  0.00    -0.107 C  
ENDBRANCH   5   6
ENDBRANCH   2   4
BRANCH   3  15
HETATM   15  C   UNL     1     -12.111  12.738  67.159  1.00  0.00    -0.236 C  
HETATM   16  C   UNL     1     -11.668  13.570  68.114  1.00  0.00    -0.396 C  
BRANCH  16  17
HETATM   17  C   UNL     1     -12.092  13.442  69.505  1.00  0.00    -0.334 C  
HETATM   18  C   UNL     1     -12.958  14.542  71.584  1.00  0.00    -0.337 C  
HETATM   19  O   UNL     1     -12.978  13.577  72.327  1.00  0.00    -0.335 OA 
HETATM   20  C   UNL     1     -12.532  14.531  70.169  1.00  0.00    -0.375 C  
HETATM   21  C   UNL     1     -12.004  12.058  70.090  1.00  0.00    -0.401 C  
HETATM   22  O   UNL     1     -13.326  15.779  71.983  1.00  0.00    -0.459 OA 
ENDBRANCH  16  17
ENDBRANCH   3  15
TORSDOF 4
ENDMDL
MODEL       96
REMARK 921   NORMALIZED FREE ENERGY PREDICTED BY IDOCK:   -4.72 KCAL/MOL
REMARK 922        TOTAL FREE ENERGY PREDICTED BY IDOCK:   -7.22 KCAL/MOL
REMARK 923 INTER-LIGAND FREE ENERGY PREDICTED BY IDOCK:   -6.36 KCAL/MOL
REMARK 924 INTRA-LIGAND FREE ENERGY PREDICTED BY IDOCK:   -0.86 KCAL/MOL
REMARK 927      BINDING AFFINITY PREDICTED BY RF-SCORE:    0.00 PKD
ROOT
HETATM    1  C   UNL     1     -10.060  13.032  64.695  1.00  0.00    -0.253 C  
HETATM    2  C   UNL     1     -10.585  13.292  66.080  1.00  0.00    -0.293 C  
HETATM    3  C   UNL     1     -11.385  12.386  66.685  1.00  0.00    -0.394 C  
ENDROOT
BRANCH   2   4
HETATM    4  C   UNL     1     -10.147  14.518  66.734  1.00  0.00    -0.264 C  
HETATM    5  C   UNL     1     -10.772  15.704  66.655  1.00  0.00    -0.296 C  
BRANCH   5   6
HETATM    6  C   UNL     1     -10.377  16.917  67.389  1.00  0.00    -0.309 C  
HETATM    7  C   UNL     1     -10.595  18.702  65.581  1.00  0.00    -0.171 C  
HETATM    8  C   UNL     1     -10.594  16.993  68.718  1.00  0.00    -0.346 C  
HETATM    9  C   UNL     1     -10.153  18.150  69.571  1.00  0.00     0.215 C  
HETATM   10  C   UNL     1     -11.300  15.934  69.540  1.00  0.00    -0.335 C  
HETATM   11  C   UNL     1      -8.471  17.390  65.789  1.00  0.00     0.219 C  
HETATM   12  C   UNL     1      -9.641  18.019  66.592  1.00  0.00    -0.315 C  
HETATM   13  C   UNL     1      -9.008  19.150  67.457  1.00  0.00    -0.332 C  
HETATM   14  C   UNL     1      -9.415  19.297  68.913  1.00  0.00    -0.437 C  
ENDBRANCH   5   6
ENDBRANCH   2   4
BRANCH   3  15
HETATM   15  C   UNL     1     -11.987  12.551  67.990  1.00  0.00    -0.281 C  
HETATM   16  C   UNL     1     -11.582  11.940  69.114  1.00  0.00    -0.373 C  
BRANCH  16  17
HETATM   17  C   UNL     1     -12.290  12.108  70.380  1.00  0.00    -0.315 C  
HETATM   18  C   UNL     1     -13.232  13.657  72.111  1.00  0.00    -0.449 C  
HETATM   19  O   UNL     1     -13.648  12.837  72.908  1.00  0.00    -0.356 OA 
HETATM   20  C   UNL     1     -12.553  13.352  70.834  1.00  0.00    -0.406 C  
HETATM   21  C   UNL     1     -12.683  10.837  71.083  1.00  0.00    -0.532 C  
HETATM   22  O   UNL     1     -13.335  14.990  72.312  1.00  0.00    -0.338 OA 
ENDBRANCH  16  17
ENDBRANCH   3  15
TORSDOF 4
ENDMDL
MODEL       97
REMARK 921   NORMALIZED FREE ENERGY PREDICTED BY IDOCK:   -4.72 KCAL/MOL
REMARK 922        TOTAL FREE ENERGY PREDICTED BY IDOCK:   -7.22 KCAL/MOL
REMARK 923 INTER-LIGAND FREE ENERGY PREDICTED BY IDOCK:   -6.41 KCAL/MOL
REMARK 924 INTRA-LIGAND FREE ENERGY PREDICTED BY IDOCK:   -0.81 KCAL/MOL
REMARK 927      BINDING AFFINITY PREDICTED BY RF-SCORE:    0.00 PKD
ROOT
HETATM    1  C   UNL     1     -13.135  11.748  71.766  1.00  0.00    -0.480 C  
HETATM    2  C   UNL     1     -12.228  11.292  70.657  1.00  0.00    -0.489 C  
HETATM    3  C   UNL     1     -11.890  12.142  69.662  1.00  0.00    -0.391 C  
ENDROOT
BRANCH   2   4
HETATM    4  C   UNL     1     -11.706   9.935  70.745  1.00  0.00    -0.424 C  
HETATM    5  C   UNL     1     -11.365   9.308  71.883  1.00  0.00    -0.359 C  
BRANCH   5   6
HETATM    6  C   UNL     1     -10.923   7.907  71.976  1.00  0.00    -0.329 C  
HETATM    7  C   UNL     1      -8.899   8.109  73.514  1.00  0.00    -0.310 C  
HETATM    8  C   UNL     1     -11.827   6.914  71.853  1.00  0.00    -0.351 C  
HETATM    9  C   UNL     1     -11.468   5.454  71.849  1.00  0.00     0.025 C  
HETATM   10  C   UNL     1     -13.320   7.119  71.695  1.00  0.00    -0.397 C  
HETATM   11  C   UNL     1      -8.632   8.457  71.048  1.00  0.00    -0.181 C  
HETATM   12  C   UNL     1      -9.406   7.650  72.125  1.00  0.00    -0.188 C  
HETATM   13  C   UNL     1      -8.965   6.166  71.946  1.00  0.00    -0.140 C  
HETATM   14  C   UNL     1     -10.010   5.065  71.983  1.00  0.00    -0.239 C  
ENDBRANCH   5   6
ENDBRANCH   2   4
BRANCH   3  15
HETATM   15  C   UNL     1     -11.069  11.800  68.521  1.00  0.00    -0.288 C  
HETATM   16  C   UNL     1     -11.531  11.425  67.318  1.00  0.00    -0.301 C  
BRANCH  16  17
HETATM   17  C   UNL     1     -10.631  11.029  66.238  1.00  0.00    -0.295 C  
HETATM   18  C   UNL     1      -9.759  11.445  63.925  1.00  0.00    -0.270 C  
HETATM   19  O   UNL     1      -8.987  10.508  63.831  1.00  0.00    -0.190 OA 
HETATM   20  C   UNL     1     -10.598  11.756  65.101  1.00  0.00    -0.332 C  
HETATM   21  C   UNL     1      -9.788   9.811  66.502  1.00  0.00    -0.286 C  
HETATM   22  O   UNL     1      -9.953  12.335  62.927  1.00  0.00    -0.195 OA 
ENDBRANCH  16  17
ENDBRANCH   3  15
TORSDOF 4
ENDMDL
MODEL       98
REMARK 921   NORMALIZED FREE ENERGY PREDICTED BY IDOCK:   -4.69 KCAL/MOL
REMARK 922        TOTAL FREE ENERGY PREDICTED BY IDOCK:   -7.18 KCAL/MOL
REMARK 923 INTER-LIGAND FREE ENERGY PREDICTED BY IDOCK:   -6.07 KCAL/MOL
REMARK 924 INTRA-LIGAND FREE ENERGY PREDICTED BY IDOCK:   -1.11 KCAL/MOL
REMARK 927      BINDING AFFINITY PREDICTED BY RF-SCORE:    0.00 PKD
ROOT
HETATM    1  C   UNL     1      -6.614   9.750  67.386  1.00  0.00    -0.070 C  
HETATM    2  C   UNL     1      -7.791  10.013  68.284  1.00  0.00    -0.089 C  
HETATM    3  C   UNL     1      -8.263   9.036  69.090  1.00  0.00    -0.121 C  
ENDROOT
BRANCH   2   4
HETATM    4  C   UNL     1      -8.341  11.362  68.275  1.00  0.00    -0.152 C  
HETATM    5  C   UNL     1      -8.872  11.976  67.206  1.00  0.00    -0.183 C  
BRANCH   5   6
HETATM    6  C   UNL     1      -9.507  13.303  67.222  1.00  0.00    -0.233 C  
HETATM    7  C   UNL     1     -11.761  12.780  68.295  1.00  0.00    -0.388 C  
HETATM    8  C   UNL     1      -8.739  14.409  67.306  1.00  0.00    -0.228 C  
HETATM    9  C   UNL     1      -9.282  15.809  67.246  1.00  0.00    -0.217 C  
HETATM   10  C   UNL     1      -7.232  14.404  67.465  1.00  0.00    -0.202 C  
HETATM   11  C   UNL     1     -11.461  12.502  65.824  1.00  0.00    -0.407 C  
HETATM   12  C   UNL     1     -11.042  13.357  67.050  1.00  0.00    -0.310 C  
HETATM   13  C   UNL     1     -11.632  14.778  66.802  1.00  0.00    -0.333 C  
HETATM   14  C   UNL     1     -10.775  16.002  67.073  1.00  0.00    -0.277 C  
ENDBRANCH   5   6
ENDBRANCH   2   4
BRANCH   3  15
HETATM   15  C   UNL     1      -9.415   9.159  69.956  1.00  0.00    -0.218 C  
HETATM   16  C   UNL     1     -10.554   8.458  69.837  1.00  0.00    -0.228 C  
BRANCH  16  17
HETATM   17  C   UNL     1     -11.698   8.693  70.713  1.00  0.00    -0.239 C  
HETATM   18  C   UNL     1     -13.146  10.329  71.943  1.00  0.00    -0.463 C  
HETATM   19  O   UNL     1     -13.905   9.551  72.491  1.00  0.00    -0.409 OA 
HETATM   20  C   UNL     1     -12.033   9.958  71.043  1.00  0.00    -0.456 C  
HETATM   21  C   UNL     1     -12.430   7.463  71.176  1.00  0.00    -0.343 C  
HETATM   22  O   UNL     1     -13.226  11.667  72.107  1.00  0.00    -0.504 OA 
ENDBRANCH  16  17
ENDBRANCH   3  15
TORSDOF 4
ENDMDL
MODEL       99
REMARK 921   NORMALIZED FREE ENERGY PREDICTED BY IDOCK:   -4.68 KCAL/MOL
REMARK 922        TOTAL FREE ENERGY PREDICTED BY IDOCK:   -7.17 KCAL/MOL
REMARK 923 INTER-LIGAND FREE ENERGY PREDICTED BY IDOCK:   -6.14 KCAL/MOL
REMARK 924 INTRA-LIGAND FREE ENERGY PREDICTED BY IDOCK:   -1.03 KCAL/MOL
REMARK 927      BINDING AFFINITY PREDICTED BY RF-SCORE:    0.00 PKD
ROOT
HETATM    1  C   UNL     1      -6.538  12.696  69.098  1.00  0.00    -0.099 C  
HETATM    2  C   UNL     1      -7.198  13.828  68.360  1.00  0.00    -0.108 C  
HETATM    3  C   UNL     1      -6.821  15.104  68.595  1.00  0.00    -0.105 C  
ENDROOT
BRANCH   2   4
HETATM    4  C   UNL     1      -8.202  13.472  67.366  1.00  0.00    -0.187 C  
HETATM    5  C   UNL     1      -9.413  12.958  67.637  1.00  0.00    -0.197 C  
BRANCH   5   6
HETATM    6  C   UNL     1     -10.457  12.685  66.637  1.00  0.00    -0.261 C  
HETATM    7  C   UNL     1     -10.429  10.136  66.550  1.00  0.00    -0.236 C  
HETATM    8  C   UNL     1     -11.482  13.549  66.489  1.00  0.00    -0.365 C  
HETATM    9  C   UNL     1     -12.552  13.405  65.443  1.00  0.00    -0.528 C  
HETATM   10  C   UNL     1     -11.702  14.782  67.342  1.00  0.00    -0.371 C  
HETATM   11  C   UNL     1      -8.839  11.451  65.130  1.00  0.00     0.104 C  
HETATM   12  C   UNL     1     -10.268  11.443  65.735  1.00  0.00    -0.295 C  
HETATM   13  C   UNL     1     -11.245  11.349  64.525  1.00  0.00    -0.251 C  
HETATM   14  C   UNL     1     -12.481  12.231  64.489  1.00  0.00    -0.464 C  
ENDBRANCH   5   6
ENDBRANCH   2   4
BRANCH   3  15
HETATM   15  C   UNL     1      -7.417  16.271  67.984  1.00  0.00    -0.144 C  
HETATM   16  C   UNL     1      -8.435  16.981  68.496  1.00  0.00    -0.257 C  
BRANCH  16  17
HETATM   17  C   UNL     1      -9.026  18.108  67.779  1.00  0.00    -0.266 C  
HETATM   18  C   UNL     1     -10.436  18.925  65.875  1.00  0.00    -0.391 C  
HETATM   19  O   UNL     1     -10.343  20.125  66.059  1.00  0.00    -0.444 OA 
HETATM   20  C   UNL     1      -9.807  17.875  66.703  1.00  0.00    -0.342 C  
HETATM   21  C   UNL     1      -8.707  19.471  68.330  1.00  0.00    -0.380 C  
HETATM   22  O   UNL     1     -11.141  18.395  64.852  1.00  0.00    -0.560 OA 
ENDBRANCH  16  17
ENDBRANCH   3  15
TORSDOF 4
ENDMDL
MODEL      100
REMARK 921   NORMALIZED FREE ENERGY PREDICTED BY IDOCK:   -4.66 KCAL/MOL
REMARK 922        TOTAL FREE ENERGY PREDICTED BY IDOCK:   -7.15 KCAL/MOL
REMARK 923 INTER-LIGAND FREE ENERGY PREDICTED BY IDOCK:   -6.02 KCAL/MOL
REMARK 924 INTRA-LIGAND FREE ENERGY PREDICTED BY IDOCK:   -1.13 KCAL/MOL
REMARK 927      BINDING AFFINITY PREDICTED BY RF-SCORE:    0.00 PKD
ROOT
HETATM    1  C   UNL     1      -6.944   6.966  66.035  1.00  0.00    -0.065 C  
HETATM    2  C   UNL     1      -7.998   7.489  66.971  1.00  0.00    -0.116 C  
HETATM    3  C   UNL     1      -7.971   7.154  68.280  1.00  0.00    -0.123 C  
ENDROOT
BRANCH   2   4
HETATM    4  C   UNL     1      -8.988   8.398  66.409  1.00  0.00    -0.207 C  
HETATM    5  C   UNL     1      -8.838   9.726  66.283  1.00  0.00    -0.165 C  
BRANCH   5   6
HETATM    6  C   UNL     1      -9.803  10.627  65.633  1.00  0.00    -0.307 C  
HETATM    7  C   UNL     1      -9.857  12.585  67.267  1.00  0.00    -0.204 C  
HETATM    8  C   UNL     1      -9.933  10.611  64.291  1.00  0.00    -0.413 C  
HETATM    9  C   UNL     1     -10.945  11.429  63.539  1.00  0.00    -0.406 C  
HETATM   10  C   UNL     1      -9.090   9.770  63.352  1.00  0.00    -0.262 C  
HETATM   11  C   UNL     1     -11.341  10.602  67.646  1.00  0.00    -0.284 C  
HETATM   12  C   UNL     1     -10.693  11.495  66.553  1.00  0.00    -0.318 C  
HETATM   13  C   UNL     1     -11.873  12.221  65.839  1.00  0.00    -0.420 C  
HETATM   14  C   UNL     1     -11.885  12.320  64.324  1.00  0.00    -0.482 C  
ENDBRANCH   5   6
ENDBRANCH   2   4
BRANCH   3  15
HETATM   15  C   UNL     1      -8.957   7.555  69.259  1.00  0.00    -0.136 C  
HETATM   16  C   UNL     1      -9.937   6.774  69.740  1.00  0.00    -0.189 C  
BRANCH  16  17
HETATM   17  C   UNL     1     -10.935   7.279  70.677  1.00  0.00    -0.278 C  
HETATM   18  C   UNL     1     -12.090   9.250  71.711  1.00  0.00    -0.387 C  
HETATM   19  O   UNL     1     -12.822   8.666  72.490  1.00  0.00    -0.379 OA 
HETATM   20  C   UNL     1     -11.136   8.610  70.781  1.00  0.00    -0.295 C  
HETATM   21  C   UNL     1     -11.683   6.236  71.463  1.00  0.00    -0.329 C  
HETATM   22  O   UNL     1     -12.056  10.597  71.608  1.00  0.00    -0.255 OA 
ENDBRANCH  16  17
ENDBRANCH   3  15
TORSDOF 4
ENDMDL
MODEL      101
REMARK 921   NORMALIZED FREE ENERGY PREDICTED BY IDOCK:   -4.65 KCAL/MOL
REMARK 922        TOTAL FREE ENERGY PREDICTED BY IDOCK:   -7.13 KCAL/MOL
REMARK 923 INTER-LIGAND FREE ENERGY PREDICTED BY IDOCK:   -6.81 KCAL/MOL
REMARK 924 INTRA-LIGAND FREE ENERGY PREDICTED BY IDOCK:   -0.32 KCAL/MOL
REMARK 927      BINDING AFFINITY PREDICTED BY RF-SCORE:    0.00 PKD
ROOT
HETATM    1  C   UNL     1     -12.900  10.488  72.121  1.00  0.00    -0.283 C  
HETATM    2  C   UNL     1     -12.252  10.392  70.767  1.00  0.00    -0.457 C  
HETATM    3  C   UNL     1     -12.316  11.433  69.908  1.00  0.00    -0.280 C  
ENDROOT
BRANCH   2   4
HETATM    4  C   UNL     1     -11.526   9.165  70.467  1.00  0.00    -0.271 C  
HETATM    5  C   UNL     1     -10.416   8.747  71.098  1.00  0.00    -0.315 C  
BRANCH   5   6
HETATM    6  C   UNL     1      -9.738   7.465  70.853  1.00  0.00    -0.169 C  
HETATM    7  C   UNL     1     -11.367   6.320  69.259  1.00  0.00    -0.411 C  
HETATM    8  C   UNL     1      -8.393   7.399  70.917  1.00  0.00    -0.115 C  
HETATM    9  C   UNL     1      -7.611   6.124  70.766  1.00  0.00    -0.096 C  
HETATM   10  C   UNL     1      -7.480   8.585  71.154  1.00  0.00    -0.097 C  
HETATM   11  C   UNL     1     -11.706   6.136  71.734  1.00  0.00    -0.312 C  
HETATM   12  C   UNL     1     -10.630   6.224  70.618  1.00  0.00    -0.301 C  
HETATM   13  C   UNL     1      -9.882   4.857  70.636  1.00  0.00    -0.289 C  
HETATM   14  C   UNL     1      -8.367   4.831  70.536  1.00  0.00    -0.098 C  
ENDBRANCH   5   6
ENDBRANCH   2   4
BRANCH   3  15
HETATM   15  C   UNL     1     -11.775  11.436  68.566  1.00  0.00    -0.386 C  
HETATM   16  C   UNL     1     -12.012  12.374  67.636  1.00  0.00    -0.249 C  
BRANCH  16  17
HETATM   17  C   UNL     1     -11.482  12.265  66.280  1.00  0.00    -0.435 C  
HETATM   18  C   UNL     1     -11.806  12.646  63.823  1.00  0.00    -0.498 C  
HETATM   19  O   UNL     1     -10.764  12.171  63.409  1.00  0.00    -0.430 OA 
HETATM   20  C   UNL     1     -12.213  12.724  65.242  1.00  0.00    -0.535 C  
HETATM   21  C   UNL     1     -10.119  11.639  66.158  1.00  0.00    -0.259 C  
HETATM   22  O   UNL     1     -12.750  13.164  63.006  1.00  0.00    -0.523 OA 
ENDBRANCH  16  17
ENDBRANCH   3  15
TORSDOF 4
ENDMDL
MODEL      102
REMARK 921   NORMALIZED FREE ENERGY PREDICTED BY IDOCK:   -4.64 KCAL/MOL
REMARK 922        TOTAL FREE ENERGY PREDICTED BY IDOCK:   -7.12 KCAL/MOL
REMARK 923 INTER-LIGAND FREE ENERGY PREDICTED BY IDOCK:   -6.24 KCAL/MOL
REMARK 924 INTRA-LIGAND FREE ENERGY PREDICTED BY IDOCK:   -0.88 KCAL/MOL
REMARK 927      BINDING AFFINITY PREDICTED BY RF-SCORE:    0.00 PKD
ROOT
HETATM    1  C   UNL     1     -10.283  17.758  68.954  1.00  0.00    -0.345 C  
HETATM    2  C   UNL     1      -9.695  16.376  68.879  1.00  0.00    -0.257 C  
HETATM    3  C   UNL     1      -8.596  16.145  68.127  1.00  0.00    -0.177 C  
ENDROOT
BRANCH   2   4
HETATM    4  C   UNL     1     -10.330  15.342  69.685  1.00  0.00    -0.271 C  
HETATM    5  C   UNL     1     -11.647  15.084  69.718  1.00  0.00    -0.336 C  
BRANCH   5   6
HETATM    6  C   UNL     1     -12.274  13.982  70.464  1.00  0.00    -0.435 C  
HETATM    7  C   UNL     1     -14.305  15.140  71.480  1.00  0.00    -0.660 C  
HETATM    8  C   UNL     1     -12.121  12.713  70.033  1.00  0.00    -0.339 C  
HETATM    9  C   UNL     1     -12.649  11.512  70.767  1.00  0.00    -0.390 C  
HETATM   10  C   UNL     1     -11.398  12.313  68.762  1.00  0.00    -0.337 C  
HETATM   11  C   UNL     1     -12.098  15.229  72.661  1.00  0.00    -0.522 C  
HETATM   12  C   UNL     1     -13.012  14.341  71.774  1.00  0.00    -0.430 C  
HETATM   13  C   UNL     1     -13.418  13.125  72.660  1.00  0.00    -0.419 C  
HETATM   14  C   UNL     1     -13.389  11.726  72.071  1.00  0.00    -0.417 C  
ENDBRANCH   5   6
ENDBRANCH   2   4
BRANCH   3  15
HETATM   15  C   UNL     1      -7.974  14.853  67.940  1.00  0.00    -0.145 C  
HETATM   16  C   UNL     1      -8.576  13.770  67.422  1.00  0.00    -0.208 C  
BRANCH  16  17
HETATM   17  C   UNL     1      -7.896  12.481  67.332  1.00  0.00    -0.175 C  
HETATM   18  C   UNL     1      -7.464  10.380  66.033  1.00  0.00    -0.134 C  
HETATM   19  O   UNL     1      -6.732   9.808  66.819  1.00  0.00    -0.076 OA 
HETATM   20  C   UNL     1      -8.068  11.714  66.234  1.00  0.00     0.047 C  
HETATM   21  C   UNL     1      -7.029  12.115  68.506  1.00  0.00    -0.091 C  
HETATM   22  O   UNL     1      -7.833   9.841  64.850  1.00  0.00    -0.121 OA 
ENDBRANCH  16  17
ENDBRANCH   3  15
TORSDOF 4
ENDMDL
MODEL      103
REMARK 921   NORMALIZED FREE ENERGY PREDICTED BY IDOCK:   -4.62 KCAL/MOL
REMARK 922        TOTAL FREE ENERGY PREDICTED BY IDOCK:   -7.10 KCAL/MOL
REMARK 923 INTER-LIGAND FREE ENERGY PREDICTED BY IDOCK:   -6.21 KCAL/MOL
REMARK 924 INTRA-LIGAND FREE ENERGY PREDICTED BY IDOCK:   -0.89 KCAL/MOL
REMARK 927      BINDING AFFINITY PREDICTED BY RF-SCORE:    0.00 PKD
ROOT
HETATM    1  C   UNL     1     -10.615   7.448  73.390  1.00  0.00    -0.427 C  
HETATM    2  C   UNL     1     -10.457   7.947  71.980  1.00  0.00    -0.289 C  
HETATM    3  C   UNL     1     -10.759   9.228  71.674  1.00  0.00    -0.393 C  
ENDROOT
BRANCH   2   4
HETATM    4  C   UNL     1      -9.920   7.008  71.004  1.00  0.00    -0.196 C  
HETATM    5  C   UNL     1     -10.417   5.787  70.748  1.00  0.00    -0.324 C  
BRANCH   5   6
HETATM    6  C   UNL     1      -9.928   4.879  69.699  1.00  0.00    -0.302 C  
HETATM    7  C   UNL     1      -9.901   2.644  70.928  1.00  0.00    -0.014 C  
HETATM    8  C   UNL     1     -10.183   5.157  68.404  1.00  0.00    -0.175 C  
HETATM    9  C   UNL     1      -9.659   4.340  67.256  1.00  0.00    -0.224 C  
HETATM   10  C   UNL     1     -11.021   6.322  67.920  1.00  0.00    -0.421 C  
HETATM   11  C   UNL     1      -7.929   4.181  71.088  1.00  0.00    -0.071 C  
HETATM   12  C   UNL     1      -9.058   3.682  70.147  1.00  0.00    -0.199 C  
HETATM   13  C   UNL     1      -8.344   2.914  68.993  1.00  0.00    -0.085 C  
HETATM   14  C   UNL     1      -8.786   3.140  67.558  1.00  0.00    -0.140 C  
ENDBRANCH   5   6
ENDBRANCH   2   4
BRANCH   3  15
HETATM   15  C   UNL     1     -10.694   9.802  70.348  1.00  0.00    -0.368 C  
HETATM   16  C   UNL     1     -11.619  10.610  69.806  1.00  0.00    -0.385 C  
BRANCH  16  17
HETATM   17  C   UNL     1     -11.510  11.091  68.432  1.00  0.00    -0.378 C  
HETATM   18  C   UNL     1     -11.855  12.951  66.787  1.00  0.00    -0.385 C  
HETATM   19  O   UNL     1     -11.481  12.392  65.772  1.00  0.00    -0.335 OA 
HETATM   20  C   UNL     1     -11.885  12.354  68.138  1.00  0.00    -0.372 C  
HETATM   21  C   UNL     1     -10.962  10.106  67.435  1.00  0.00    -0.295 C  
HETATM   22  O   UNL     1     -12.312  14.223  66.795  1.00  0.00    -0.429 OA 
ENDBRANCH  16  17
ENDBRANCH   3  15
TORSDOF 4
ENDMDL
MODEL      104
REMARK 921   NORMALIZED FREE ENERGY PREDICTED BY IDOCK:   -4.62 KCAL/MOL
REMARK 922        TOTAL FREE ENERGY PREDICTED BY IDOCK:   -7.09 KCAL/MOL
REMARK 923 INTER-LIGAND FREE ENERGY PREDICTED BY IDOCK:   -6.08 KCAL/MOL
REMARK 924 INTRA-LIGAND FREE ENERGY PREDICTED BY IDOCK:   -1.02 KCAL/MOL
REMARK 927      BINDING AFFINITY PREDICTED BY RF-SCORE:    0.00 PKD
ROOT
HETATM    1  C   UNL     1     -10.347  17.364  67.796  1.00  0.00    -0.358 C  
HETATM    2  C   UNL     1      -9.675  16.059  68.119  1.00  0.00    -0.217 C  
HETATM    3  C   UNL     1      -8.505  15.732  67.526  1.00  0.00    -0.183 C  
ENDROOT
BRANCH   2   4
HETATM    4  C   UNL     1     -10.314  15.216  69.121  1.00  0.00    -0.249 C  
HETATM    5  C   UNL     1     -11.602  14.838  69.108  1.00  0.00    -0.330 C  
BRANCH   5   6
HETATM    6  C   UNL     1     -12.221  13.915  70.072  1.00  0.00    -0.408 C  
HETATM    7  C   UNL     1     -14.151  15.323  70.965  1.00  0.00    -0.320 C  
HETATM    8  C   UNL     1     -12.136  12.584  69.870  1.00  0.00    -0.322 C  
HETATM    9  C   UNL     1     -12.660  11.557  70.835  1.00  0.00    -0.438 C  
HETATM   10  C   UNL     1     -11.502  11.933  68.658  1.00  0.00    -0.350 C  
HETATM   11  C   UNL     1     -11.877  15.525  71.996  1.00  0.00    -0.538 C  
HETATM   12  C   UNL     1     -12.869  14.534  71.331  1.00  0.00    -0.406 C  
HETATM   13  C   UNL     1     -13.264  13.515  72.443  1.00  0.00    -0.577 C  
HETATM   14  C   UNL     1     -13.316  12.033  72.116  1.00  0.00    -0.396 C  
ENDBRANCH   5   6
ENDBRANCH   2   4
BRANCH   3  15
HETATM   15  C   UNL     1      -7.795  14.487  67.721  1.00  0.00    -0.171 C  
HETATM   16  C   UNL     1      -8.157  13.299  67.210  1.00  0.00    -0.150 C  
BRANCH  16  17
HETATM   17  C   UNL     1      -7.423  12.074  67.513  1.00  0.00    -0.140 C  
HETATM   18  C   UNL     1      -7.435   9.758  68.472  1.00  0.00    -0.079 C  
HETATM   19  O   UNL     1      -6.263   9.470  68.314  1.00  0.00    -0.051 OA 
HETATM   20  C   UNL     1      -8.068  11.037  68.087  1.00  0.00    -0.122 C  
HETATM   21  C   UNL     1      -5.966  12.076  67.138  1.00  0.00    -0.153 C  
HETATM   22  O   UNL     1      -8.323   8.917  69.046  1.00  0.00    -0.120 OA 
ENDBRANCH  16  17
ENDBRANCH   3  15
TORSDOF 4
ENDMDL
MODEL      105
REMARK 921   NORMALIZED FREE ENERGY PREDICTED BY IDOCK:   -4.61 KCAL/MOL
REMARK 922        TOTAL FREE ENERGY PREDICTED BY IDOCK:   -7.09 KCAL/MOL
REMARK 923 INTER-LIGAND FREE ENERGY PREDICTED BY IDOCK:   -6.41 KCAL/MOL
REMARK 924 INTRA-LIGAND FREE ENERGY PREDICTED BY IDOCK:   -0.68 KCAL/MOL
REMARK 927      BINDING AFFINITY PREDICTED BY RF-SCORE:    0.00 PKD
ROOT
HETATM    1  C   UNL     1     -13.423  10.188  72.197  1.00  0.00    -0.371 C  
HETATM    2  C   UNL     1     -12.401  10.020  71.107  1.00  0.00    -0.477 C  
HETATM    3  C   UNL     1     -12.276  10.958  70.142  1.00  0.00    -0.423 C  
ENDROOT
BRANCH   2   4
HETATM    4  C   UNL     1     -11.541   8.847  71.183  1.00  0.00    -0.360 C  
HETATM    5  C   UNL     1     -11.920   7.589  70.909  1.00  0.00    -0.278 C  
BRANCH   5   6
HETATM    6  C   UNL     1     -11.026   6.420  70.899  1.00  0.00    -0.335 C  
HETATM    7  C   UNL     1     -11.649   5.281  73.095  1.00  0.00    -0.251 C  
HETATM    8  C   UNL     1     -10.636   5.887  69.723  1.00  0.00    -0.374 C  
HETATM    9  C   UNL     1      -9.662   4.749  69.603  1.00  0.00    -0.272 C  
HETATM   10  C   UNL     1     -11.112   6.356  68.363  1.00  0.00    -0.374 C  
HETATM   11  C   UNL     1      -9.933   7.106  73.079  1.00  0.00    -0.247 C  
HETATM   12  C   UNL     1     -10.505   5.915  72.264  1.00  0.00    -0.246 C  
HETATM   13  C   UNL     1      -9.360   4.860  72.187  1.00  0.00    -0.167 C  
HETATM   14  C   UNL     1      -9.071   4.164  70.870  1.00  0.00    -0.180 C  
ENDBRANCH   5   6
ENDBRANCH   2   4
BRANCH   3  15
HETATM   15  C   UNL     1     -11.366  10.878  69.020  1.00  0.00    -0.348 C  
HETATM   16  C   UNL     1     -11.519  11.517  67.850  1.00  0.00    -0.372 C  
BRANCH  16  17
HETATM   17  C   UNL     1     -10.588  11.327  66.741  1.00  0.00    -0.305 C  
HETATM   18  C   UNL     1      -9.307   9.749  65.274  1.00  0.00    -0.255 C  
HETATM   19  O   UNL     1      -8.709  10.556  64.586  1.00  0.00    -0.183 OA 
HETATM   20  C   UNL     1     -10.259  10.076  66.357  1.00  0.00    -0.290 C  
HETATM   21  C   UNL     1     -10.069  12.586  66.100  1.00  0.00    -0.265 C  
HETATM   22  O   UNL     1      -9.158   8.413  65.131  1.00  0.00    -0.040 OA 
ENDBRANCH  16  17
ENDBRANCH   3  15
TORSDOF 4
ENDMDL
MODEL      106
REMARK 921   NORMALIZED FREE ENERGY PREDICTED BY IDOCK:   -4.61 KCAL/MOL
REMARK 922        TOTAL FREE ENERGY PREDICTED BY IDOCK:   -7.08 KCAL/MOL
REMARK 923 INTER-LIGAND FREE ENERGY PREDICTED BY IDOCK:   -6.15 KCAL/MOL
REMARK 924 INTRA-LIGAND FREE ENERGY PREDICTED BY IDOCK:   -0.93 KCAL/MOL
REMARK 927      BINDING AFFINITY PREDICTED BY RF-SCORE:    0.00 PKD
ROOT
HETATM    1  C   UNL     1     -12.174  12.868  70.658  1.00  0.00    -0.386 C  
HETATM    2  C   UNL     1     -11.741  12.046  69.476  1.00  0.00    -0.408 C  
HETATM    3  C   UNL     1     -11.841  12.548  68.225  1.00  0.00    -0.361 C  
ENDROOT
BRANCH   2   4
HETATM    4  C   UNL     1     -11.174  10.733  69.755  1.00  0.00    -0.365 C  
HETATM    5  C   UNL     1     -11.872   9.590  69.843  1.00  0.00     0.133 C  
BRANCH   5   6
HETATM    6  C   UNL     1     -11.284   8.254  70.037  1.00  0.00    -0.081 C  
HETATM    7  C   UNL     1     -13.108   7.082  71.380  1.00  0.00    -0.375 C  
HETATM    8  C   UNL     1     -10.428   7.763  69.117  1.00  0.00    -0.219 C  
HETATM    9  C   UNL     1      -9.712   6.449  69.262  1.00  0.00    -0.150 C  
HETATM   10  C   UNL     1     -10.062   8.456  67.821  1.00  0.00    -0.263 C  
HETATM   11  C   UNL     1     -11.381   8.461  72.559  1.00  0.00    -0.416 C  
HETATM   12  C   UNL     1     -11.621   7.515  71.352  1.00  0.00    -0.302 C  
HETATM   13  C   UNL     1     -10.769   6.240  71.632  1.00  0.00    -0.284 C  
HETATM   14  C   UNL     1      -9.950   5.626  70.511  1.00  0.00    -0.265 C  
ENDBRANCH   5   6
ENDBRANCH   2   4
BRANCH   3  15
HETATM   15  C   UNL     1     -11.503  11.833  67.014  1.00  0.00    -0.368 C  
HETATM   16  C   UNL     1     -10.809  12.338  65.982  1.00  0.00    -0.310 C  
BRANCH  16  17
HETATM   17  C   UNL     1     -10.571  11.569  64.764  1.00  0.00    -0.362 C  
HETATM   18  C   UNL     1      -9.110   9.974  63.497  1.00  0.00    -0.272 C  
HETATM   19  O   UNL     1      -9.737   9.914  62.455  1.00  0.00    -0.150 OA 
HETATM   20  C   UNL     1      -9.482  10.776  64.681  1.00  0.00    -0.297 C  
HETATM   21  C   UNL     1     -11.600  11.728  63.679  1.00  0.00    -0.521 C  
HETATM   22  O   UNL     1      -7.957   9.298  63.696  1.00  0.00    -0.126 OA 
ENDBRANCH  16  17
ENDBRANCH   3  15
TORSDOF 4
ENDMDL
MODEL      107
REMARK 921   NORMALIZED FREE ENERGY PREDICTED BY IDOCK:   -4.61 KCAL/MOL
REMARK 922        TOTAL FREE ENERGY PREDICTED BY IDOCK:   -7.08 KCAL/MOL
REMARK 923 INTER-LIGAND FREE ENERGY PREDICTED BY IDOCK:   -5.89 KCAL/MOL
REMARK 924 INTRA-LIGAND FREE ENERGY PREDICTED BY IDOCK:   -1.19 KCAL/MOL
REMARK 927      BINDING AFFINITY PREDICTED BY RF-SCORE:    0.00 PKD
ROOT
HETATM    1  C   UNL     1     -14.078   8.769  72.393  1.00  0.00    -0.485 C  
HETATM    2  C   UNL     1     -12.969   9.480  71.670  1.00  0.00    -0.483 C  
HETATM    3  C   UNL     1     -13.097  10.785  71.343  1.00  0.00    -0.469 C  
ENDROOT
BRANCH   2   4
HETATM    4  C   UNL     1     -11.759   8.715  71.399  1.00  0.00    -0.355 C  
HETATM    5  C   UNL     1     -10.726   8.572  72.245  1.00  0.00    -0.411 C  
BRANCH   5   6
HETATM    6  C   UNL     1      -9.547   7.726  72.004  1.00  0.00    -0.217 C  
HETATM    7  C   UNL     1     -10.541   5.387  72.225  1.00  0.00    -0.280 C  
HETATM    8  C   UNL     1      -8.553   8.177  71.212  1.00  0.00    -0.162 C  
HETATM    9  C   UNL     1      -7.273   7.427  70.970  1.00  0.00    -0.068 C  
HETATM   10  C   UNL     1      -8.575   9.494  70.463  1.00  0.00    -0.231 C  
HETATM   11  C   UNL     1      -9.755   6.608  74.267  1.00  0.00    -0.328 C  
HETATM   12  C   UNL     1      -9.476   6.377  72.757  1.00  0.00    -0.147 C  
HETATM   13  C   UNL     1      -8.100   5.650  72.683  1.00  0.00    -0.102 C  
HETATM   14  C   UNL     1      -7.073   6.091  71.655  1.00  0.00    -0.078 C  
ENDBRANCH   5   6
ENDBRANCH   2   4
BRANCH   3  15
HETATM   15  C   UNL     1     -12.121  11.556  70.606  1.00  0.00    -0.450 C  
HETATM   16  C   UNL     1     -12.160  11.801  69.287  1.00  0.00    -0.292 C  
BRANCH  16  17
HETATM   17  C   UNL     1     -11.095  12.532  68.607  1.00  0.00    -0.305 C  
HETATM   18  C   UNL     1      -8.805  12.512  67.586  1.00  0.00    -0.179 C  
HETATM   19  O   UNL     1      -8.717  13.684  67.269  1.00  0.00    -0.199 OA 
HETATM   20  C   UNL     1      -9.967  11.883  68.249  1.00  0.00    -0.202 C  
HETATM   21  C   UNL     1     -11.363  13.990  68.350  1.00  0.00    -0.321 C  
HETATM   22  O   UNL     1      -7.813  11.620  67.371  1.00  0.00    -0.131 OA 
ENDBRANCH  16  17
ENDBRANCH   3  15
TORSDOF 4
ENDMDL
MODEL      108
REMARK 921   NORMALIZED FREE ENERGY PREDICTED BY IDOCK:   -4.61 KCAL/MOL
REMARK 922        TOTAL FREE ENERGY PREDICTED BY IDOCK:   -7.08 KCAL/MOL
REMARK 923 INTER-LIGAND FREE ENERGY PREDICTED BY IDOCK:   -6.16 KCAL/MOL
REMARK 924 INTRA-LIGAND FREE ENERGY PREDICTED BY IDOCK:   -0.92 KCAL/MOL
REMARK 927      BINDING AFFINITY PREDICTED BY RF-SCORE:    0.00 PKD
ROOT
HETATM    1  C   UNL     1     -12.029  13.030  69.734  1.00  0.00    -0.377 C  
HETATM    2  C   UNL     1     -11.642  12.032  68.678  1.00  0.00    -0.372 C  
HETATM    3  C   UNL     1     -11.339  12.447  67.428  1.00  0.00    -0.381 C  
ENDROOT
BRANCH   2   4
HETATM    4  C   UNL     1     -11.564  10.635  69.086  1.00  0.00    -0.342 C  
HETATM    5  C   UNL     1     -11.060  10.195  70.250  1.00  0.00    -0.384 C  
BRANCH   5   6
HETATM    6  C   UNL     1     -11.065   8.793  70.696  1.00  0.00    -0.285 C  
HETATM    7  C   UNL     1      -8.610   8.433  71.284  1.00  0.00    -0.198 C  
HETATM    8  C   UNL     1     -12.178   8.274  71.253  1.00  0.00    -0.295 C  
HETATM    9  C   UNL     1     -12.314   6.834  71.664  1.00  0.00    -0.409 C  
HETATM   10  C   UNL     1     -13.445   9.054  71.540  1.00  0.00    -0.397 C  
HETATM   11  C   UNL     1      -9.388   8.113  68.924  1.00  0.00    -0.147 C  
HETATM   12  C   UNL     1      -9.798   7.954  70.413  1.00  0.00    -0.183 C  
HETATM   13  C   UNL     1      -9.950   6.422  70.653  1.00  0.00    -0.213 C  
HETATM   14  C   UNL     1     -11.142   5.901  71.437  1.00  0.00    -0.313 C  
ENDBRANCH   5   6
ENDBRANCH   2   4
BRANCH   3  15
HETATM   15  C   UNL     1     -11.003  11.576  66.323  1.00  0.00    -0.328 C  
HETATM   16  C   UNL     1      -9.773  11.408  65.813  1.00  0.00    -0.263 C  
BRANCH  16  17
HETATM   17  C   UNL     1      -9.531  10.561  64.649  1.00  0.00    -0.316 C  
HETATM   18  C   UNL     1      -8.509   8.479  63.698  1.00  0.00    -0.021 C  
HETATM   19  O   UNL     1      -8.809   8.626  62.528  1.00  0.00    -0.144 OA 
HETATM   20  C   UNL     1      -8.847   9.407  64.798  1.00  0.00    -0.243 C  
HETATM   21  C   UNL     1     -10.092  11.063  63.347  1.00  0.00    -0.424 C  
HETATM   22  O   UNL     1      -7.799   7.419  64.144  1.00  0.00    -0.122 OA 
ENDBRANCH  16  17
ENDBRANCH   3  15
TORSDOF 4
ENDMDL
MODEL      109
REMARK 921   NORMALIZED FREE ENERGY PREDICTED BY IDOCK:   -4.61 KCAL/MOL
REMARK 922        TOTAL FREE ENERGY PREDICTED BY IDOCK:   -7.08 KCAL/MOL
REMARK 923 INTER-LIGAND FREE ENERGY PREDICTED BY IDOCK:   -5.84 KCAL/MOL
REMARK 924 INTRA-LIGAND FREE ENERGY PREDICTED BY IDOCK:   -1.24 KCAL/MOL
REMARK 927      BINDING AFFINITY PREDICTED BY RF-SCORE:    0.00 PKD
ROOT
HETATM    1  C   UNL     1     -12.444  11.986  63.361  1.00  0.00    -0.625 C  
HETATM    2  C   UNL     1     -11.702  12.848  64.345  1.00  0.00    -0.427 C  
HETATM    3  C   UNL     1     -12.170  14.076  64.661  1.00  0.00    -0.460 C  
ENDROOT
BRANCH   2   4
HETATM    4  C   UNL     1     -10.513  12.275  64.961  1.00  0.00    -0.322 C  
HETATM    5  C   UNL     1     -10.486  11.614  66.130  1.00  0.00    -0.289 C  
BRANCH   5   6
HETATM    6  C   UNL     1      -9.300  10.960  66.703  1.00  0.00    -0.191 C  
HETATM    7  C   UNL     1      -8.943   9.029  65.076  1.00  0.00    -0.198 C  
HETATM    8  C   UNL     1      -8.403  11.692  67.395  1.00  0.00    -0.152 C  
HETATM    9  C   UNL     1      -7.205  11.107  68.089  1.00  0.00    -0.080 C  
HETATM   10  C   UNL     1      -8.471  13.195  67.577  1.00  0.00    -0.198 C  
HETATM   11  C   UNL     1     -10.526   8.763  67.000  1.00  0.00    -0.338 C  
HETATM   12  C   UNL     1      -9.195   9.425  66.552  1.00  0.00    -0.202 C  
HETATM   13  C   UNL     1      -8.075   8.751  67.402  1.00  0.00    -0.105 C  
HETATM   14  C   UNL     1      -6.987   9.609  68.023  1.00  0.00    -0.078 C  
ENDBRANCH   5   6
ENDBRANCH   2   4
BRANCH   3  15
HETATM   15  C   UNL     1     -11.516  15.009  65.552  1.00  0.00    -0.265 C  
HETATM   16  C   UNL     1     -10.434  15.743  65.249  1.00  0.00    -0.427 C  
BRANCH  16  17
HETATM   17  C   UNL     1      -9.793  16.612  66.232  1.00  0.00    -0.329 C  
HETATM   18  C   UNL     1      -7.676  17.521  67.220  1.00  0.00    -0.202 C  
HETATM   19  O   UNL     1      -8.149  18.218  68.099  1.00  0.00    -0.268 OA 
HETATM   20  C   UNL     1      -8.446  16.705  66.258  1.00  0.00    -0.355 C  
HETATM   21  C   UNL     1     -10.722  17.357  67.151  1.00  0.00    -0.188 C  
HETATM   22  O   UNL     1      -6.345  17.399  67.021  1.00  0.00    -0.139 OA 
ENDBRANCH  16  17
ENDBRANCH   3  15
TORSDOF 4
ENDMDL
MODEL      110
REMARK 921   NORMALIZED FREE ENERGY PREDICTED BY IDOCK:   -4.60 KCAL/MOL
REMARK 922        TOTAL FREE ENERGY PREDICTED BY IDOCK:   -7.07 KCAL/MOL
REMARK 923 INTER-LIGAND FREE ENERGY PREDICTED BY IDOCK:   -5.82 KCAL/MOL
REMARK 924 INTRA-LIGAND FREE ENERGY PREDICTED BY IDOCK:   -1.26 KCAL/MOL
REMARK 927      BINDING AFFINITY PREDICTED BY RF-SCORE:    0.00 PKD
ROOT
HETATM    1  C   UNL     1      -6.156  12.446  69.994  1.00  0.00    -0.123 C  
HETATM    2  C   UNL     1      -7.142  12.378  68.861  1.00  0.00    -0.078 C  
HETATM    3  C   UNL     1      -7.583  13.513  68.274  1.00  0.00    -0.135 C  
ENDROOT
BRANCH   2   4
HETATM    4  C   UNL     1      -7.540  11.051  68.410  1.00  0.00    -0.108 C  
HETATM    5  C   UNL     1      -8.451  10.269  69.011  1.00  0.00    -0.150 C  
BRANCH   5   6
HETATM    6  C   UNL     1      -8.915   8.969  68.502  1.00  0.00    -0.133 C  
HETATM    7  C   UNL     1      -9.652   9.576  66.138  1.00  0.00    -0.302 C  
HETATM    8  C   UNL     1      -8.366   7.832  68.977  1.00  0.00    -0.131 C  
HETATM    9  C   UNL     1      -8.825   6.455  68.586  1.00  0.00    -0.120 C  
HETATM   10  C   UNL     1      -7.221   7.775  69.969  1.00  0.00    -0.067 C  
HETATM   11  C   UNL     1     -11.244   9.857  68.052  1.00  0.00    -0.129 C  
HETATM   12  C   UNL     1     -10.090   8.978  67.498  1.00  0.00    -0.285 C  
HETATM   13  C   UNL     1     -10.719   7.583  67.201  1.00  0.00    -0.379 C  
HETATM   14  C   UNL     1      -9.976   6.324  67.610  1.00  0.00    -0.151 C  
ENDBRANCH   5   6
ENDBRANCH   2   4
BRANCH   3  15
HETATM   15  C   UNL     1      -8.565  13.571  67.214  1.00  0.00    -0.218 C  
HETATM   16  C   UNL     1      -9.875  13.814  67.382  1.00  0.00    -0.238 C  
BRANCH  16  17
HETATM   17  C   UNL     1     -10.812  13.787  66.263  1.00  0.00    -0.283 C  
HETATM   18  C   UNL     1     -11.876  14.990  64.338  1.00  0.00    -0.339 C  
HETATM   19  O   UNL     1     -12.634  14.119  63.953  1.00  0.00    -0.752 OA 
HETATM   20  C   UNL     1     -10.942  14.877  65.478  1.00  0.00    -0.355 C  
HETATM   21  C   UNL     1     -11.568  12.499  66.074  1.00  0.00    -0.456 C  
HETATM   22  O   UNL     1     -11.802  16.206  63.754  1.00  0.00    -0.885 OA 
ENDBRANCH  16  17
ENDBRANCH   3  15
TORSDOF 4
ENDMDL
MODEL      111
REMARK 921   NORMALIZED FREE ENERGY PREDICTED BY IDOCK:   -4.60 KCAL/MOL
REMARK 922        TOTAL FREE ENERGY PREDICTED BY IDOCK:   -7.07 KCAL/MOL
REMARK 923 INTER-LIGAND FREE ENERGY PREDICTED BY IDOCK:   -5.53 KCAL/MOL
REMARK 924 INTRA-LIGAND FREE ENERGY PREDICTED BY IDOCK:   -1.54 KCAL/MOL
REMARK 927      BINDING AFFINITY PREDICTED BY RF-SCORE:    0.00 PKD
ROOT
HETATM    1  C   UNL     1      -9.681  13.346  66.308  1.00  0.00    -0.280 C  
HETATM    2  C   UNL     1     -10.322  12.190  67.025  1.00  0.00    -0.232 C  
HETATM    3  C   UNL     1     -11.099  12.410  68.109  1.00  0.00    -0.288 C  
ENDROOT
BRANCH   2   4
HETATM    4  C   UNL     1     -10.107  10.863  66.465  1.00  0.00    -0.269 C  
HETATM    5  C   UNL     1      -8.956  10.173  66.527  1.00  0.00    -0.161 C  
BRANCH   5   6
HETATM    6  C   UNL     1      -8.769   8.798  66.039  1.00  0.00    -0.193 C  
HETATM    7  C   UNL     1     -10.705   7.584  67.172  1.00  0.00    -0.379 C  
HETATM    8  C   UNL     1      -8.196   8.589  64.836  1.00  0.00    -0.166 C  
HETATM    9  C   UNL     1      -7.884   7.225  64.285  1.00  0.00    -0.125 C  
HETATM   10  C   UNL     1      -7.780   9.684  63.875  1.00  0.00    -0.131 C  
HETATM   11  C   UNL     1      -8.536   7.884  68.390  1.00  0.00    -0.128 C  
HETATM   12  C   UNL     1      -9.168   7.647  66.992  1.00  0.00    -0.168 C  
HETATM   13  C   UNL     1      -8.703   6.228  66.547  1.00  0.00    -0.131 C  
HETATM   14  C   UNL     1      -8.221   6.009  65.123  1.00  0.00    -0.142 C  
ENDBRANCH   5   6
ENDBRANCH   2   4
BRANCH   3  15
HETATM   15  C   UNL     1     -11.724  11.376  68.906  1.00  0.00    -0.409 C  
HETATM   16  C   UNL     1     -11.145  10.729  69.929  1.00  0.00    -0.339 C  
BRANCH  16  17
HETATM   17  C   UNL     1     -11.822   9.647  70.638  1.00  0.00    -0.331 C  
HETATM   18  C   UNL     1     -11.837   7.246  71.359  1.00  0.00    -0.305 C  
HETATM   19  O   UNL     1     -12.910   7.217  71.933  1.00  0.00    -0.313 OA 
HETATM   20  C   UNL     1     -11.243   8.429  70.701  1.00  0.00    -0.275 C  
HETATM   21  C   UNL     1     -13.144  10.002  71.263  1.00  0.00    -0.493 C  
HETATM   22  O   UNL     1     -11.041   6.161  71.241  1.00  0.00    -0.273 OA 
ENDBRANCH  16  17
ENDBRANCH   3  15
TORSDOF 4
ENDMDL
MODEL      112
REMARK 921   NORMALIZED FREE ENERGY PREDICTED BY IDOCK:   -4.59 KCAL/MOL
REMARK 922        TOTAL FREE ENERGY PREDICTED BY IDOCK:   -7.06 KCAL/MOL
REMARK 923 INTER-LIGAND FREE ENERGY PREDICTED BY IDOCK:   -6.32 KCAL/MOL
REMARK 924 INTRA-LIGAND FREE ENERGY PREDICTED BY IDOCK:   -0.74 KCAL/MOL
REMARK 927      BINDING AFFINITY PREDICTED BY RF-SCORE:    0.00 PKD
ROOT
HETATM    1  C   UNL     1     -10.293  16.324  65.845  1.00  0.00    -0.381 C  
HETATM    2  C   UNL     1     -10.656  15.129  66.683  1.00  0.00    -0.304 C  
HETATM    3  C   UNL     1     -11.607  15.233  67.638  1.00  0.00    -0.249 C  
ENDROOT
BRANCH   2   4
HETATM    4  C   UNL     1      -9.981  13.875  66.375  1.00  0.00    -0.303 C  
HETATM    5  C   UNL     1      -9.632  12.941  67.274  1.00  0.00    -0.220 C  
BRANCH   5   6
HETATM    6  C   UNL     1      -9.032  11.638  66.949  1.00  0.00    -0.191 C  
HETATM    7  C   UNL     1     -10.484  10.878  64.995  1.00  0.00    -0.331 C  
HETATM    8  C   UNL     1      -7.722  11.428  67.193  1.00  0.00    -0.152 C  
HETATM    9  C   UNL     1      -7.033  10.109  66.975  1.00  0.00    -0.088 C  
HETATM   10  C   UNL     1      -6.762  12.474  67.722  1.00  0.00    -0.123 C  
HETATM   11  C   UNL     1     -11.213  10.415  67.347  1.00  0.00    -0.205 C  
HETATM   12  C   UNL     1      -9.975  10.535  66.417  1.00  0.00    -0.271 C  
HETATM   13  C   UNL     1      -9.353   9.108  66.347  1.00  0.00    -0.261 C  
HETATM   14  C   UNL     1      -7.848   8.941  66.460  1.00  0.00    -0.100 C  
ENDBRANCH   5   6
ENDBRANCH   2   4
BRANCH   3  15
HETATM   15  C   UNL     1     -12.002  14.168  68.535  1.00  0.00    -0.367 C  
HETATM   16  C   UNL     1     -12.264  14.313  69.843  1.00  0.00    -0.407 C  
BRANCH  16  17
HETATM   17  C   UNL     1     -12.590  13.172  70.694  1.00  0.00    -0.286 C  
HETATM   18  C   UNL     1     -12.380  10.715  71.144  1.00  0.00    -0.400 C  
HETATM   19  O   UNL     1     -13.072  10.635  72.143  1.00  0.00    -0.460 OA 
HETATM   20  C   UNL     1     -12.101  11.952  70.386  1.00  0.00    -0.421 C  
HETATM   21  C   UNL     1     -13.463  13.471  71.883  1.00  0.00    -0.528 C  
HETATM   22  O   UNL     1     -11.774   9.643  70.587  1.00  0.00    -0.269 OA 
ENDBRANCH  16  17
ENDBRANCH   3  15
TORSDOF 4
ENDMDL
MODEL      113
REMARK 921   NORMALIZED FREE ENERGY PREDICTED BY IDOCK:   -4.58 KCAL/MOL
REMARK 922        TOTAL FREE ENERGY PREDICTED BY IDOCK:   -7.05 KCAL/MOL
REMARK 923 INTER-LIGAND FREE ENERGY PREDICTED BY IDOCK:   -5.82 KCAL/MOL
REMARK 924 INTRA-LIGAND FREE ENERGY PREDICTED BY IDOCK:   -1.23 KCAL/MOL
REMARK 927      BINDING AFFINITY PREDICTED BY RF-SCORE:    0.00 PKD
ROOT
HETATM    1  C   UNL     1     -13.449   9.177  72.300  1.00  0.00    -0.546 C  
HETATM    2  C   UNL     1     -12.610   9.993  71.355  1.00  0.00    -0.518 C  
HETATM    3  C   UNL     1     -12.795  11.328  71.262  1.00  0.00    -0.491 C  
ENDROOT
BRANCH   2   4
HETATM    4  C   UNL     1     -11.580   9.286  70.606  1.00  0.00    -0.305 C  
HETATM    5  C   UNL     1     -10.302   9.143  70.993  1.00  0.00    -0.363 C  
BRANCH   5   6
HETATM    6  C   UNL     1      -9.287   8.352  70.278  1.00  0.00    -0.167 C  
HETATM    7  C   UNL     1     -10.140   5.976  70.642  1.00  0.00    -0.246 C  
HETATM    8  C   UNL     1      -8.640   8.892  69.226  1.00  0.00    -0.133 C  
HETATM    9  C   UNL     1      -7.531   8.200  68.483  1.00  0.00    -0.099 C  
HETATM   10  C   UNL     1      -8.926  10.262  68.646  1.00  0.00    -0.144 C  
HETATM   11  C   UNL     1      -8.677   7.054  72.366  1.00  0.00    -0.136 C  
HETATM   12  C   UNL     1      -8.954   6.951  70.842  1.00  0.00    -0.149 C  
HETATM   13  C   UNL     1      -7.695   6.271  70.223  1.00  0.00    -0.098 C  
HETATM   14  C   UNL     1      -7.102   6.821  68.938  1.00  0.00    -0.089 C  
ENDBRANCH   5   6
ENDBRANCH   2   4
BRANCH   3  15
HETATM   15  C   UNL     1     -12.085  12.204  70.355  1.00  0.00    -0.395 C  
HETATM   16  C   UNL     1     -12.232  12.223  69.021  1.00  0.00    -0.047 C  
BRANCH  16  17
HETATM   17  C   UNL     1     -11.424  13.092  68.170  1.00  0.00    -0.356 C  
HETATM   18  C   UNL     1     -10.835  13.871  65.862  1.00  0.00    -0.287 C  
HETATM   19  O   UNL     1      -9.950  14.660  66.138  1.00  0.00    -0.275 OA 
HETATM   20  C   UNL     1     -11.606  13.068  66.833  1.00  0.00    -0.419 C  
HETATM   21  C   UNL     1     -10.435  13.971  68.885  1.00  0.00    -0.210 C  
HETATM   22  O   UNL     1     -11.221  13.621  64.592  1.00  0.00    -0.343 OA 
ENDBRANCH  16  17
ENDBRANCH   3  15
TORSDOF 4
ENDMDL
MODEL      114
REMARK 921   NORMALIZED FREE ENERGY PREDICTED BY IDOCK:   -4.58 KCAL/MOL
REMARK 922        TOTAL FREE ENERGY PREDICTED BY IDOCK:   -7.04 KCAL/MOL
REMARK 923 INTER-LIGAND FREE ENERGY PREDICTED BY IDOCK:   -6.27 KCAL/MOL
REMARK 924 INTRA-LIGAND FREE ENERGY PREDICTED BY IDOCK:   -0.77 KCAL/MOL
REMARK 927      BINDING AFFINITY PREDICTED BY RF-SCORE:    0.00 PKD
ROOT
HETATM    1  C   UNL     1      -6.293  11.897  69.651  1.00  0.00    -0.124 C  
HETATM    2  C   UNL     1      -7.473  11.704  68.738  1.00  0.00    -0.114 C  
HETATM    3  C   UNL     1      -7.899  12.720  67.955  1.00  0.00    -0.150 C  
ENDROOT
BRANCH   2   4
HETATM    4  C   UNL     1      -8.077  10.379  68.710  1.00  0.00    -0.125 C  
HETATM    5  C   UNL     1      -9.081   9.968  69.502  1.00  0.00    -0.236 C  
BRANCH   5   6
HETATM    6  C   UNL     1      -9.748   8.659  69.409  1.00  0.00    -0.176 C  
HETATM    7  C   UNL     1      -8.632   7.660  67.345  1.00  0.00    -0.125 C  
HETATM    8  C   UNL     1     -10.200   8.060  70.529  1.00  0.00    -0.201 C  
HETATM    9  C   UNL     1     -10.967   6.767  70.534  1.00  0.00    -0.327 C  
HETATM   10  C   UNL     1     -10.010   8.598  71.933  1.00  0.00    -0.392 C  
HETATM   11  C   UNL     1     -10.626   9.154  67.085  1.00  0.00    -0.286 C  
HETATM   12  C   UNL     1      -9.974   8.078  67.995  1.00  0.00    -0.216 C  
HETATM   13  C   UNL     1     -10.916   6.837  67.932  1.00  0.00    -0.309 C  
HETATM   14  C   UNL     1     -11.261   6.093  69.209  1.00  0.00    -0.438 C  
ENDBRANCH   5   6
ENDBRANCH   2   4
BRANCH   3  15
HETATM   15  C   UNL     1      -9.049  12.666  67.079  1.00  0.00    -0.215 C  
HETATM   16  C   UNL     1      -9.055  12.157  65.837  1.00  0.00    -0.001 C  
BRANCH  16  17
HETATM   17  C   UNL     1     -10.244  12.204  64.991  1.00  0.00    -0.312 C  
HETATM   18  C   UNL     1     -12.529  13.145  64.570  1.00  0.00    -0.342 C  
HETATM   19  O   UNL     1     -12.814  12.531  63.558  1.00  0.00    -0.731 OA 
HETATM   20  C   UNL     1     -11.262  13.027  65.322  1.00  0.00    -0.316 C  
HETATM   21  C   UNL     1     -10.223  11.309  63.782  1.00  0.00    -0.431 C  
HETATM   22  O   UNL     1     -13.370  14.030  65.150  1.00  0.00    -0.703 OA 
ENDBRANCH  16  17
ENDBRANCH   3  15
TORSDOF 4
ENDMDL
MODEL      115
REMARK 921   NORMALIZED FREE ENERGY PREDICTED BY IDOCK:   -4.57 KCAL/MOL
REMARK 922        TOTAL FREE ENERGY PREDICTED BY IDOCK:   -7.04 KCAL/MOL
REMARK 923 INTER-LIGAND FREE ENERGY PREDICTED BY IDOCK:   -5.80 KCAL/MOL
REMARK 924 INTRA-LIGAND FREE ENERGY PREDICTED BY IDOCK:   -1.24 KCAL/MOL
REMARK 927      BINDING AFFINITY PREDICTED BY RF-SCORE:    0.00 PKD
ROOT
HETATM    1  C   UNL     1     -11.445  14.597  65.692  1.00  0.00    -0.340 C  
HETATM    2  C   UNL     1     -11.089  13.136  65.665  1.00  0.00    -0.296 C  
HETATM    3  C   UNL     1     -10.403  12.622  64.620  1.00  0.00    -0.354 C  
ENDROOT
BRANCH   2   4
HETATM    4  C   UNL     1     -11.469  12.342  66.827  1.00  0.00    -0.423 C  
HETATM    5  C   UNL     1     -10.746  12.219  67.951  1.00  0.00    -0.243 C  
BRANCH   5   6
HETATM    6  C   UNL     1     -11.175  11.490  69.155  1.00  0.00    -0.337 C  
HETATM    7  C   UNL     1      -9.231   9.876  69.497  1.00  0.00    -0.238 C  
HETATM    8  C   UNL     1     -11.967  12.102  70.059  1.00  0.00    -0.391 C  
HETATM    9  C   UNL     1     -12.527  11.421  71.277  1.00  0.00    -0.423 C  
HETATM   10  C   UNL     1     -12.409  13.550  69.980  1.00  0.00    -0.315 C  
HETATM   11  C   UNL     1     -11.108   9.259  67.957  1.00  0.00     0.055 C  
HETATM   12  C   UNL     1     -10.757  10.006  69.272  1.00  0.00    -0.249 C  
HETATM   13  C   UNL     1     -11.456   9.209  70.415  1.00  0.00    -0.228 C  
HETATM   14  C   UNL     1     -12.197   9.961  71.508  1.00  0.00    -0.505 C  
ENDBRANCH   5   6
ENDBRANCH   2   4
BRANCH   3  15
HETATM   15  C   UNL     1     -10.051  11.228  64.464  1.00  0.00    -0.348 C  
HETATM   16  C   UNL     1      -8.946  10.646  64.956  1.00  0.00    -0.218 C  
BRANCH  16  17
HETATM   17  C   UNL     1      -8.630   9.245  64.693  1.00  0.00    -0.209 C  
HETATM   18  C   UNL     1      -8.319   6.923  65.583  1.00  0.00    -0.146 C  
HETATM   19  O   UNL     1      -8.001   6.356  64.554  1.00  0.00    -0.117 OA 
HETATM   20  C   UNL     1      -8.649   8.358  65.709  1.00  0.00    -0.181 C  
HETATM   21  C   UNL     1      -8.311   8.904  63.262  1.00  0.00    -0.180 C  
HETATM   22  O   UNL     1      -8.401   6.288  66.773  1.00  0.00    -0.109 OA 
ENDBRANCH  16  17
ENDBRANCH   3  15
TORSDOF 4
ENDMDL
MODEL      116
REMARK 921   NORMALIZED FREE ENERGY PREDICTED BY IDOCK:   -4.56 KCAL/MOL
REMARK 922        TOTAL FREE ENERGY PREDICTED BY IDOCK:   -7.02 KCAL/MOL
REMARK 923 INTER-LIGAND FREE ENERGY PREDICTED BY IDOCK:   -5.80 KCAL/MOL
REMARK 924 INTRA-LIGAND FREE ENERGY PREDICTED BY IDOCK:   -1.22 KCAL/MOL
REMARK 927      BINDING AFFINITY PREDICTED BY RF-SCORE:    0.00 PKD
ROOT
HETATM    1  C   UNL     1     -10.648   6.083  73.078  1.00  0.00    -0.265 C  
HETATM    2  C   UNL     1     -10.898   6.826  71.795  1.00  0.00    -0.257 C  
HETATM    3  C   UNL     1     -11.154   8.153  71.816  1.00  0.00    -0.329 C  
ENDROOT
BRANCH   2   4
HETATM    4  C   UNL     1     -10.795   6.063  70.559  1.00  0.00    -0.382 C  
HETATM    5  C   UNL     1      -9.713   6.014  69.765  1.00  0.00    -0.194 C  
BRANCH   5   6
HETATM    6  C   UNL     1      -9.582   5.171  68.566  1.00  0.00    -0.190 C  
HETATM    7  C   UNL     1      -8.502   6.789  66.918  1.00  0.00    -0.115 C  
HETATM    8  C   UNL     1      -9.432   3.838  68.701  1.00  0.00    -0.215 C  
HETATM    9  C   UNL     1      -9.374   2.882  67.542  1.00  0.00    -0.218 C  
HETATM   10  C   UNL     1      -9.308   3.112  70.025  1.00  0.00    -0.226 C  
HETATM   11  C   UNL     1     -10.993   6.749  67.175  1.00  0.00    -0.458 C  
HETATM   12  C   UNL     1      -9.715   5.867  67.192  1.00  0.00    -0.145 C  
HETATM   13  C   UNL     1      -9.842   4.906  65.972  1.00  0.00    -0.219 C  
HETATM   14  C   UNL     1      -9.498   3.436  66.137  1.00  0.00    -0.124 C  
ENDBRANCH   5   6
ENDBRANCH   2   4
BRANCH   3  15
HETATM   15  C   UNL     1     -11.458   8.958  70.654  1.00  0.00    -0.280 C  
HETATM   16  C   UNL     1     -10.639   9.870  70.106  1.00  0.00    -0.350 C  
BRANCH  16  17
HETATM   17  C   UNL     1     -11.050  10.692  68.972  1.00  0.00    -0.307 C  
HETATM   18  C   UNL     1     -10.917  11.158  66.512  1.00  0.00    -0.209 C  
HETATM   19  O   UNL     1     -11.624  12.148  66.458  1.00  0.00    -0.394 OA 
HETATM   20  C   UNL     1     -10.602  10.390  67.735  1.00  0.00    -0.294 C  
HETATM   21  C   UNL     1     -11.976  11.834  69.293  1.00  0.00    -0.354 C  
HETATM   22  O   UNL     1     -10.308  10.634  65.426  1.00  0.00    -0.272 OA 
ENDBRANCH  16  17
ENDBRANCH   3  15
TORSDOF 4
ENDMDL
MODEL      117
REMARK 921   NORMALIZED FREE ENERGY PREDICTED BY IDOCK:   -4.55 KCAL/MOL
REMARK 922        TOTAL FREE ENERGY PREDICTED BY IDOCK:   -7.01 KCAL/MOL
REMARK 923 INTER-LIGAND FREE ENERGY PREDICTED BY IDOCK:   -5.76 KCAL/MOL
REMARK 924 INTRA-LIGAND FREE ENERGY PREDICTED BY IDOCK:   -1.25 KCAL/MOL
REMARK 927      BINDING AFFINITY PREDICTED BY RF-SCORE:    0.00 PKD
ROOT
HETATM    1  C   UNL     1     -12.171  14.157  63.728  1.00  0.00    -0.183 C  
HETATM    2  C   UNL     1     -11.468  13.629  64.948  1.00  0.00    -0.352 C  
HETATM    3  C   UNL     1     -11.767  12.401  65.427  1.00  0.00    -0.452 C  
ENDROOT
BRANCH   2   4
HETATM    4  C   UNL     1     -10.435  14.474  65.532  1.00  0.00    -0.373 C  
HETATM    5  C   UNL     1     -10.640  15.409  66.474  1.00  0.00    -0.306 C  
BRANCH   5   6
HETATM    6  C   UNL     1      -9.582  16.197  67.126  1.00  0.00    -0.235 C  
HETATM    7  C   UNL     1      -7.708  14.478  67.320  1.00  0.00    -0.177 C  
HETATM    8  C   UNL     1      -9.523  17.529  66.925  1.00  0.00    -0.278 C  
HETATM    9  C   UNL     1      -8.536  18.434  67.608  1.00  0.00    -0.264 C  
HETATM   10  C   UNL     1     -10.436  18.304  65.997  1.00  0.00    -0.380 C  
HETATM   11  C   UNL     1      -9.468  14.610  69.097  1.00  0.00    -0.070 C  
HETATM   12  C   UNL     1      -8.634  15.450  68.092  1.00  0.00    -0.152 C  
HETATM   13  C   UNL     1      -7.715  16.364  68.957  1.00  0.00    -0.235 C  
HETATM   14  C   UNL     1      -7.551  17.827  68.586  1.00  0.00    -0.276 C  
ENDBRANCH   5   6
ENDBRANCH   2   4
BRANCH   3  15
HETATM   15  C   UNL     1     -11.193  11.813  66.617  1.00  0.00    -0.383 C  
HETATM   16  C   UNL     1     -11.866  11.526  67.743  1.00  0.00    -0.228 C  
BRANCH  16  17
HETATM   17  C   UNL     1     -11.196  10.996  68.927  1.00  0.00    -0.326 C  
HETATM   18  C   UNL     1      -9.469   9.457  69.894  1.00  0.00    -0.213 C  
HETATM   19  O   UNL     1      -9.652   9.671  71.079  1.00  0.00    -0.173 OA 
HETATM   20  C   UNL     1     -10.203  10.092  68.780  1.00  0.00    -0.200 C  
HETATM   21  C   UNL     1     -11.681  11.529  70.247  1.00  0.00    -0.379 C  
HETATM   22  O   UNL     1      -8.548   8.577  69.444  1.00  0.00    -0.125 OA 
ENDBRANCH  16  17
ENDBRANCH   3  15
TORSDOF 4
ENDMDL
MODEL      118
REMARK 921   NORMALIZED FREE ENERGY PREDICTED BY IDOCK:   -4.53 KCAL/MOL
REMARK 922        TOTAL FREE ENERGY PREDICTED BY IDOCK:   -6.99 KCAL/MOL
REMARK 923 INTER-LIGAND FREE ENERGY PREDICTED BY IDOCK:   -5.85 KCAL/MOL
REMARK 924 INTRA-LIGAND FREE ENERGY PREDICTED BY IDOCK:   -1.14 KCAL/MOL
REMARK 927      BINDING AFFINITY PREDICTED BY RF-SCORE:    0.00 PKD
ROOT
HETATM    1  C   UNL     1     -11.520  13.179  67.487  1.00  0.00    -0.371 C  
HETATM    2  C   UNL     1     -11.078  11.768  67.214  1.00  0.00    -0.342 C  
HETATM    3  C   UNL     1     -10.425  11.469  66.069  1.00  0.00    -0.298 C  
ENDROOT
BRANCH   2   4
HETATM    4  C   UNL     1     -11.338  10.781  68.253  1.00  0.00    -0.376 C  
HETATM    5  C   UNL     1     -10.652  10.664  69.401  1.00  0.00    -0.270 C  
BRANCH   5   6
HETATM    6  C   UNL     1     -10.975   9.725  70.487  1.00  0.00    -0.384 C  
HETATM    7  C   UNL     1      -8.659   8.888  71.148  1.00  0.00    -0.263 C  
HETATM    8  C   UNL     1     -12.074   9.931  71.242  1.00  0.00    -0.485 C  
HETATM    9  C   UNL     1     -12.537   8.989  72.318  1.00  0.00    -0.445 C  
HETATM   10  C   UNL     1     -12.997  11.126  71.115  1.00  0.00    -0.393 C  
HETATM   11  C   UNL     1      -9.896   7.783  69.271  1.00  0.00    -0.173 C  
HETATM   12  C   UNL     1     -10.067   8.484  70.646  1.00  0.00    -0.225 C  
HETATM   13  C   UNL     1     -10.602   7.392  71.620  1.00  0.00    -0.229 C  
HETATM   14  C   UNL     1     -11.736   7.728  72.572  1.00  0.00    -0.393 C  
ENDBRANCH   5   6
ENDBRANCH   2   4
BRANCH   3  15
HETATM   15  C   UNL     1      -9.998  10.144  65.678  1.00  0.00    -0.348 C  
HETATM   16  C   UNL     1      -8.782   9.623  65.902  1.00  0.00    -0.163 C  
BRANCH  16  17
HETATM   17  C   UNL     1      -8.409   8.299  65.413  1.00  0.00    -0.170 C  
HETATM   18  C   UNL     1      -8.740   5.816  65.505  1.00  0.00    -0.138 C  
HETATM   19  O   UNL     1      -7.894   5.471  64.701  1.00  0.00    -0.094 OA 
HETATM   20  C   UNL     1      -9.044   7.209  65.893  1.00  0.00    -0.054 C  
HETATM   21  C   UNL     1      -7.320   8.268  64.375  1.00  0.00    -0.092 C  
HETATM   22  O   UNL     1      -9.522   4.934  66.168  1.00  0.00    -0.142 OA 
ENDBRANCH  16  17
ENDBRANCH   3  15
TORSDOF 4
ENDMDL
MODEL      119
REMARK 921   NORMALIZED FREE ENERGY PREDICTED BY IDOCK:   -4.51 KCAL/MOL
REMARK 922        TOTAL FREE ENERGY PREDICTED BY IDOCK:   -6.96 KCAL/MOL
REMARK 923 INTER-LIGAND FREE ENERGY PREDICTED BY IDOCK:   -5.99 KCAL/MOL
REMARK 924 INTRA-LIGAND FREE ENERGY PREDICTED BY IDOCK:   -0.96 KCAL/MOL
REMARK 927      BINDING AFFINITY PREDICTED BY RF-SCORE:    0.00 PKD
ROOT
HETATM    1  C   UNL     1     -12.843  15.832  70.841  1.00  0.00    -0.387 C  
HETATM    2  C   UNL     1     -11.877  15.220  69.864  1.00  0.00    -0.363 C  
HETATM    3  C   UNL     1     -12.154  14.029  69.288  1.00  0.00    -0.380 C  
ENDROOT
BRANCH   2   4
HETATM    4  C   UNL     1     -10.684  15.992  69.543  1.00  0.00    -0.298 C  
HETATM    5  C   UNL     1     -10.451  16.609  68.373  1.00  0.00    -0.323 C  
BRANCH   5   6
HETATM    6  C   UNL     1      -9.287  17.462  68.085  1.00  0.00    -0.277 C  
HETATM    7  C   UNL     1      -9.992  19.669  69.150  1.00  0.00    -0.416 C  
HETATM    8  C   UNL     1      -8.065  16.905  67.966  1.00  0.00    -0.194 C  
HETATM    9  C   UNL     1      -6.829  17.674  67.592  1.00  0.00    -0.185 C  
HETATM   10  C   UNL     1      -7.760  15.436  68.184  1.00  0.00    -0.126 C  
HETATM   11  C   UNL     1     -10.696  19.134  66.806  1.00  0.00    -0.488 C  
HETATM   12  C   UNL     1      -9.553  18.966  67.843  1.00  0.00    -0.361 C  
HETATM   13  C   UNL     1      -8.342  19.769  67.278  1.00  0.00    -0.351 C  
HETATM   14  C   UNL     1      -6.952  19.159  67.322  1.00  0.00    -0.213 C  
ENDBRANCH   5   6
ENDBRANCH   2   4
BRANCH   3  15
HETATM   15  C   UNL     1     -11.280  13.325  68.376  1.00  0.00    -0.314 C  
HETATM   16  C   UNL     1     -10.658  12.165  68.638  1.00  0.00    -0.248 C  
BRANCH  16  17
HETATM   17  C   UNL     1      -9.735  11.553  67.686  1.00  0.00    -0.182 C  
HETATM   18  C   UNL     1      -7.425  11.447  66.718  1.00  0.00    -0.137 C  
HETATM   19  O   UNL     1      -7.602  10.590  65.872  1.00  0.00    -0.141 OA 
HETATM   20  C   UNL     1      -8.448  11.961  67.652  1.00  0.00    -0.156 C  
HETATM   21  C   UNL     1     -10.318  10.482  66.806  1.00  0.00    -0.301 C  
HETATM   22  O   UNL     1      -6.234  12.058  66.901  1.00  0.00    -0.153 OA 
ENDBRANCH  16  17
ENDBRANCH   3  15
TORSDOF 4
ENDMDL
MODEL      120
REMARK 921   NORMALIZED FREE ENERGY PREDICTED BY IDOCK:   -4.50 KCAL/MOL
REMARK 922        TOTAL FREE ENERGY PREDICTED BY IDOCK:   -6.95 KCAL/MOL
REMARK 923 INTER-LIGAND FREE ENERGY PREDICTED BY IDOCK:   -5.40 KCAL/MOL
REMARK 924 INTRA-LIGAND FREE ENERGY PREDICTED BY IDOCK:   -1.54 KCAL/MOL
REMARK 927      BINDING AFFINITY PREDICTED BY RF-SCORE:    0.00 PKD
ROOT
HETATM    1  C   UNL     1     -10.978   7.123  71.149  1.00  0.00    -0.272 C  
HETATM    2  C   UNL     1     -10.790   8.523  70.632  1.00  0.00    -0.255 C  
HETATM    3  C   UNL     1     -11.644   9.504  71.001  1.00  0.00    -0.419 C  
ENDROOT
BRANCH   2   4
HETATM    4  C   UNL     1      -9.635   8.763  69.777  1.00  0.00    -0.173 C  
HETATM    5  C   UNL     1      -9.538   8.404  68.487  1.00  0.00    -0.155 C  
BRANCH   5   6
HETATM    6  C   UNL     1      -8.406   8.728  67.603  1.00  0.00    -0.114 C  
HETATM    7  C   UNL     1      -8.452  11.278  67.624  1.00  0.00    -0.124 C  
HETATM    8  C   UNL     1      -7.363   7.877  67.517  1.00  0.00    -0.092 C  
HETATM    9  C   UNL     1      -6.200   8.073  66.585  1.00  0.00    -0.054 C  
HETATM   10  C   UNL     1      -7.213   6.609  68.333  1.00  0.00    -0.085 C  
HETATM   11  C   UNL     1      -9.887  10.017  66.003  1.00  0.00    -0.321 C  
HETATM   12  C   UNL     1      -8.522  10.006  66.742  1.00  0.00    -0.125 C  
HETATM   13  C   UNL     1      -7.435  10.160  65.635  1.00  0.00    -0.144 C  
HETATM   14  C   UNL     1      -6.193   9.288  65.679  1.00  0.00    -0.063 C  
ENDBRANCH   5   6
ENDBRANCH   2   4
BRANCH   3  15
HETATM   15  C   UNL     1     -11.591  10.870  70.529  1.00  0.00    -0.397 C  
HETATM   16  C   UNL     1     -11.998  11.290  69.320  1.00  0.00    -0.411 C  
BRANCH  16  17
HETATM   17  C   UNL     1     -11.846  12.678  68.896  1.00  0.00    -0.345 C  
HETATM   18  C   UNL     1     -11.743  15.104  69.522  1.00  0.00    -0.327 C  
HETATM   19  O   UNL     1     -11.617  15.591  68.413  1.00  0.00    -0.355 OA 
HETATM   20  C   UNL     1     -11.855  13.661  69.822  1.00  0.00    -0.392 C  
HETATM   21  C   UNL     1     -11.677  12.896  67.417  1.00  0.00    -0.428 C  
HETATM   22  O   UNL     1     -11.807  15.851  70.646  1.00  0.00    -0.353 OA 
ENDBRANCH  16  17
ENDBRANCH   3  15
TORSDOF 4
ENDMDL
MODEL      121
REMARK 921   NORMALIZED FREE ENERGY PREDICTED BY IDOCK:   -4.47 KCAL/MOL
REMARK 922        TOTAL FREE ENERGY PREDICTED BY IDOCK:   -6.91 KCAL/MOL
REMARK 923 INTER-LIGAND FREE ENERGY PREDICTED BY IDOCK:   -5.91 KCAL/MOL
REMARK 924 INTRA-LIGAND FREE ENERGY PREDICTED BY IDOCK:   -1.00 KCAL/MOL
REMARK 927      BINDING AFFINITY PREDICTED BY RF-SCORE:    0.00 PKD
ROOT
HETATM    1  C   UNL     1     -10.701  18.642  66.809  1.00  0.00    -0.337 C  
HETATM    2  C   UNL     1      -9.988  17.391  67.244  1.00  0.00    -0.302 C  
HETATM    3  C   UNL     1      -9.253  17.387  68.377  1.00  0.00    -0.277 C  
ENDROOT
BRANCH   2   4
HETATM    4  C   UNL     1     -10.177  16.203  66.422  1.00  0.00    -0.315 C  
HETATM    5  C   UNL     1     -11.059  15.222  66.669  1.00  0.00    -0.276 C  
BRANCH   5   6
HETATM    6  C   UNL     1     -11.310  14.069  65.789  1.00  0.00    -0.312 C  
HETATM    7  C   UNL     1     -11.553  12.176  67.480  1.00  0.00    -0.413 C  
HETATM    8  C   UNL     1     -11.919  14.258  64.601  1.00  0.00    -0.468 C  
HETATM    9  C   UNL     1     -12.146  13.163  63.595  1.00  0.00    -0.583 C  
HETATM   10  C   UNL     1     -12.454  15.586  64.105  1.00  0.00     0.173 C  
HETATM   11  C   UNL     1      -9.279  12.830  66.658  1.00  0.00    -0.212 C  
HETATM   12  C   UNL     1     -10.770  12.695  66.249  1.00  0.00    -0.280 C  
HETATM   13  C   UNL     1     -10.818  11.571  65.171  1.00  0.00    -0.326 C  
HETATM   14  C   UNL     1     -11.658  11.766  63.921  1.00  0.00    -0.469 C  
ENDBRANCH   5   6
ENDBRANCH   2   4
BRANCH   3  15
HETATM   15  C   UNL     1      -8.486  16.261  68.865  1.00  0.00    -0.253 C  
HETATM   16  C   UNL     1      -7.231  15.960  68.498  1.00  0.00    -0.128 C  
BRANCH  16  17
HETATM   17  C   UNL     1      -6.552  14.763  68.986  1.00  0.00    -0.100 C  
HETATM   18  C   UNL     1      -5.635  13.470  70.929  1.00  0.00    -0.197 C  
HETATM   19  O   UNL     1      -5.174  12.515  70.332  1.00  0.00    -0.094 OA 
HETATM   20  C   UNL     1      -6.336  14.615  70.311  1.00  0.00    -0.171 C  
HETATM   21  C   UNL     1      -6.148  13.765  67.935  1.00  0.00    -0.154 C  
HETATM   22  O   UNL     1      -5.548  13.607  72.270  1.00  0.00    -0.410 OA 
ENDBRANCH  16  17
ENDBRANCH   3  15
TORSDOF 4
ENDMDL
MODEL      122
REMARK 921   NORMALIZED FREE ENERGY PREDICTED BY IDOCK:   -4.45 KCAL/MOL
REMARK 922        TOTAL FREE ENERGY PREDICTED BY IDOCK:   -6.89 KCAL/MOL
REMARK 923 INTER-LIGAND FREE ENERGY PREDICTED BY IDOCK:   -5.73 KCAL/MOL
REMARK 924 INTRA-LIGAND FREE ENERGY PREDICTED BY IDOCK:   -1.16 KCAL/MOL
REMARK 927      BINDING AFFINITY PREDICTED BY RF-SCORE:    0.00 PKD
ROOT
HETATM    1  C   UNL     1     -11.018  15.783  66.162  1.00  0.00    -0.169 C  
HETATM    2  C   UNL     1     -10.935  14.284  66.251  1.00  0.00    -0.317 C  
HETATM    3  C   UNL     1     -10.229  13.587  65.333  1.00  0.00    -0.316 C  
ENDROOT
BRANCH   2   4
HETATM    4  C   UNL     1     -11.597  13.651  67.384  1.00  0.00    -0.389 C  
HETATM    5  C   UNL     1     -11.018  13.371  68.562  1.00  0.00    -0.292 C  
BRANCH   5   6
HETATM    6  C   UNL     1     -11.713  12.815  69.734  1.00  0.00    -0.352 C  
HETATM    7  C   UNL     1     -10.357  10.701  70.179  1.00  0.00     0.129 C  
HETATM    8  C   UNL     1     -12.339  13.644  70.594  1.00  0.00    -0.440 C  
HETATM    9  C   UNL     1     -13.146  13.172  71.772  1.00  0.00    -0.478 C  
HETATM   10  C   UNL     1     -12.328  15.156  70.499  1.00  0.00    -0.408 C  
HETATM   11  C   UNL     1     -12.239  10.652  68.526  1.00  0.00     0.453 C  
HETATM   12  C   UNL     1     -11.761  11.275  69.865  1.00  0.00    -0.430 C  
HETATM   13  C   UNL     1     -12.730  10.733  70.959  1.00  0.00    -0.513 C  
HETATM   14  C   UNL     1     -13.277  11.682  72.011  1.00  0.00    -0.443 C  
ENDBRANCH   5   6
ENDBRANCH   2   4
BRANCH   3  15
HETATM   15  C   UNL     1     -10.121  12.145  65.289  1.00  0.00    -0.291 C  
HETATM   16  C   UNL     1      -9.316  11.403  66.065  1.00  0.00    -0.235 C  
BRANCH  16  17
HETATM   17  C   UNL     1      -9.216   9.955  65.909  1.00  0.00    -0.223 C  
HETATM   18  C   UNL     1      -9.885   7.670  66.695  1.00  0.00    -0.213 C  
HETATM   19  O   UNL     1      -9.228   6.994  65.925  1.00  0.00    -0.084 OA 
HETATM   20  C   UNL     1      -9.922   9.147  66.728  1.00  0.00    -0.322 C  
HETATM   21  C   UNL     1      -8.311   9.477  64.805  1.00  0.00    -0.155 C  
HETATM   22  O   UNL     1     -10.676   7.132  67.649  1.00  0.00    -0.240 OA 
ENDBRANCH  16  17
ENDBRANCH   3  15
TORSDOF 4
ENDMDL
MODEL      123
REMARK 921   NORMALIZED FREE ENERGY PREDICTED BY IDOCK:   -4.44 KCAL/MOL
REMARK 922        TOTAL FREE ENERGY PREDICTED BY IDOCK:   -6.88 KCAL/MOL
REMARK 923 INTER-LIGAND FREE ENERGY PREDICTED BY IDOCK:   -6.47 KCAL/MOL
REMARK 924 INTRA-LIGAND FREE ENERGY PREDICTED BY IDOCK:   -0.40 KCAL/MOL
REMARK 927      BINDING AFFINITY PREDICTED BY RF-SCORE:    0.00 PKD
ROOT
HETATM    1  C   UNL     1     -12.948  10.267  72.282  1.00  0.00    -0.276 C  
HETATM    2  C   UNL     1     -12.120  10.283  71.027  1.00  0.00    -0.487 C  
HETATM    3  C   UNL     1     -12.159  11.350  70.199  1.00  0.00    -0.439 C  
ENDROOT
BRANCH   2   4
HETATM    4  C   UNL     1     -11.256   9.133  70.791  1.00  0.00    -0.336 C  
HETATM    5  C   UNL     1     -11.413   7.919  71.342  1.00  0.00    -0.293 C  
BRANCH   5   6
HETATM    6  C   UNL     1     -10.593   6.738  71.032  1.00  0.00    -0.252 C  
HETATM    7  C   UNL     1      -9.220   7.573  69.052  1.00  0.00    -0.146 C  
HETATM    8  C   UNL     1     -10.264   5.877  72.017  1.00  0.00    -0.237 C  
HETATM    9  C   UNL     1      -9.503   4.601  71.791  1.00  0.00    -0.205 C  
HETATM   10  C   UNL     1     -10.615   6.063  73.480  1.00  0.00    -0.284 C  
HETATM   11  C   UNL     1     -11.496   6.599  68.670  1.00  0.00    -0.011 C  
HETATM   12  C   UNL     1     -10.221   6.502  69.550  1.00  0.00    -0.219 C  
HETATM   13  C   UNL     1      -9.592   5.110  69.239  1.00  0.00    -0.223 C  
HETATM   14  C   UNL     1      -9.082   4.247  70.379  1.00  0.00    -0.171 C  
ENDBRANCH   5   6
ENDBRANCH   2   4
BRANCH   3  15
HETATM   15  C   UNL     1     -11.448  11.454  68.944  1.00  0.00    -0.363 C  
HETATM   16  C   UNL     1     -11.855  12.160  67.878  1.00  0.00    -0.338 C  
BRANCH  16  17
HETATM   17  C   UNL     1     -11.110  12.156  66.622  1.00  0.00    -0.353 C  
HETATM   18  C   UNL     1     -11.136  12.349  64.122  1.00  0.00    -0.372 C  
HETATM   19  O   UNL     1      -9.954  12.168  63.896  1.00  0.00    -0.335 OA 
HETATM   20  C   UNL     1     -11.766  12.360  65.460  1.00  0.00    -0.459 C  
HETATM   21  C   UNL     1      -9.628  11.927  66.741  1.00  0.00    -0.214 C  
HETATM   22  O   UNL     1     -12.045  12.559  63.144  1.00  0.00    -0.462 OA 
ENDBRANCH  16  17
ENDBRANCH   3  15
TORSDOF 4
ENDMDL
MODEL      124
REMARK 921   NORMALIZED FREE ENERGY PREDICTED BY IDOCK:   -4.43 KCAL/MOL
REMARK 922        TOTAL FREE ENERGY PREDICTED BY IDOCK:   -6.86 KCAL/MOL
REMARK 923 INTER-LIGAND FREE ENERGY PREDICTED BY IDOCK:   -5.80 KCAL/MOL
REMARK 924 INTRA-LIGAND FREE ENERGY PREDICTED BY IDOCK:   -1.06 KCAL/MOL
REMARK 927      BINDING AFFINITY PREDICTED BY RF-SCORE:    0.00 PKD
ROOT
HETATM    1  C   UNL     1      -9.913  15.995  66.818  1.00  0.00    -0.265 C  
HETATM    2  C   UNL     1     -10.476  14.800  67.537  1.00  0.00    -0.245 C  
HETATM    3  C   UNL     1     -11.539  14.940  68.359  1.00  0.00    -0.348 C  
ENDROOT
BRANCH   2   4
HETATM    4  C   UNL     1      -9.858  13.511  67.259  1.00  0.00    -0.237 C  
HETATM    5  C   UNL     1      -9.331  12.689  68.181  1.00  0.00    -0.210 C  
BRANCH   5   6
HETATM    6  C   UNL     1      -8.789  11.348  67.907  1.00  0.00    -0.149 C  
HETATM    7  C   UNL     1      -6.723  11.315  69.401  1.00  0.00    -0.123 C  
HETATM    8  C   UNL     1      -9.626  10.350  67.557  1.00  0.00    -0.178 C  
HETATM    9  C   UNL     1      -9.166   8.970  67.176  1.00  0.00    -0.164 C  
HETATM   10  C   UNL     1     -11.135  10.470  67.489  1.00  0.00    -0.358 C  
HETATM   11  C   UNL     1      -6.582  12.290  67.098  1.00  0.00    -0.109 C  
HETATM   12  C   UNL     1      -7.253  11.181  67.952  1.00  0.00    -0.090 C  
HETATM   13  C   UNL     1      -6.717   9.828  67.394  1.00  0.00    -0.074 C  
HETATM   14  C   UNL     1      -7.680   8.675  67.174  1.00  0.00    -0.096 C  
ENDBRANCH   5   6
ENDBRANCH   2   4
BRANCH   3  15
HETATM   15  C   UNL     1     -12.131  13.875  69.138  1.00  0.00    -0.377 C  
HETATM   16  C   UNL     1     -12.108  13.789  70.478  1.00  0.00    -0.416 C  
BRANCH  16  17
HETATM   17  C   UNL     1     -12.671  12.642  71.185  1.00  0.00    -0.347 C  
HETATM   18  C   UNL     1     -12.839  10.152  71.423  1.00  0.00    -0.428 C  
HETATM   19  O   UNL     1     -13.637  10.093  72.341  1.00  0.00    -0.308 OA 
HETATM   20  C   UNL     1     -12.319  11.393  70.812  1.00  0.00    -0.483 C  
HETATM   21  C   UNL     1     -13.617  12.967  72.309  1.00  0.00    -0.611 C  
HETATM   22  O   UNL     1     -12.326   9.053  70.828  1.00  0.00    -0.180 OA 
ENDBRANCH  16  17
ENDBRANCH   3  15
TORSDOF 4
ENDMDL
MODEL      125
REMARK 921   NORMALIZED FREE ENERGY PREDICTED BY IDOCK:   -4.42 KCAL/MOL
REMARK 922        TOTAL FREE ENERGY PREDICTED BY IDOCK:   -6.85 KCAL/MOL
REMARK 923 INTER-LIGAND FREE ENERGY PREDICTED BY IDOCK:   -5.73 KCAL/MOL
REMARK 924 INTRA-LIGAND FREE ENERGY PREDICTED BY IDOCK:   -1.11 KCAL/MOL
REMARK 927      BINDING AFFINITY PREDICTED BY RF-SCORE:    0.00 PKD
ROOT
HETATM    1  C   UNL     1      -8.842  11.610  66.986  1.00  0.00    -0.177 C  
HETATM    2  C   UNL     1      -9.093  10.173  67.351  1.00  0.00    -0.149 C  
HETATM    3  C   UNL     1      -8.313   9.196  66.840  1.00  0.00    -0.119 C  
ENDROOT
BRANCH   2   4
HETATM    4  C   UNL     1     -10.164   9.911  68.304  1.00  0.00    -0.204 C  
HETATM    5  C   UNL     1     -10.033   9.928  69.640  1.00  0.00    -0.255 C  
BRANCH   5   6
HETATM    6  C   UNL     1     -11.135   9.752  70.599  1.00  0.00    -0.398 C  
HETATM    7  C   UNL     1     -10.099   8.139  72.280  1.00  0.00    -0.338 C  
HETATM    8  C   UNL     1     -12.024  10.749  70.784  1.00  0.00    -0.464 C  
HETATM    9  C   UNL     1     -13.230  10.638  71.675  1.00  0.00    -0.495 C  
HETATM   10  C   UNL     1     -11.944  12.111  70.124  1.00  0.00    -0.394 C  
HETATM   11  C   UNL     1     -11.207   7.249  70.217  1.00  0.00    -0.287 C  
HETATM   12  C   UNL     1     -11.263   8.373  71.286  1.00  0.00    -0.309 C  
HETATM   13  C   UNL     1     -12.588   8.147  72.075  1.00  0.00    -0.366 C  
HETATM   14  C   UNL     1     -13.475   9.334  72.406  1.00  0.00    -0.526 C  
ENDBRANCH   5   6
ENDBRANCH   2   4
BRANCH   3  15
HETATM   15  C   UNL     1      -8.492   7.780  67.079  1.00  0.00    -0.124 C  
HETATM   16  C   UNL     1      -9.519   7.041  66.632  1.00  0.00    -0.210 C  
BRANCH  16  17
HETATM   17  C   UNL     1      -9.661   5.630  66.978  1.00  0.00    -0.143 C  
HETATM   18  C   UNL     1      -8.989   3.714  68.449  1.00  0.00    -0.128 C  
HETATM   19  O   UNL     1      -9.651   2.829  67.938  1.00  0.00    -0.194 OA 
HETATM   20  C   UNL     1      -8.960   5.127  68.017  1.00  0.00    -0.117 C  
HETATM   21  C   UNL     1     -10.614   4.839  66.124  1.00  0.00    -0.282 C  
HETATM   22  O   UNL     1      -8.168   3.499  69.500  1.00  0.00    -0.053 OA 
ENDBRANCH  16  17
ENDBRANCH   3  15
TORSDOF 4
ENDMDL
MODEL      126
REMARK 921   NORMALIZED FREE ENERGY PREDICTED BY IDOCK:   -4.41 KCAL/MOL
REMARK 922        TOTAL FREE ENERGY PREDICTED BY IDOCK:   -6.83 KCAL/MOL
REMARK 923 INTER-LIGAND FREE ENERGY PREDICTED BY IDOCK:   -5.97 KCAL/MOL
REMARK 924 INTRA-LIGAND FREE ENERGY PREDICTED BY IDOCK:   -0.86 KCAL/MOL
REMARK 927      BINDING AFFINITY PREDICTED BY RF-SCORE:    0.00 PKD
ROOT
HETATM    1  C   UNL     1     -11.476   7.841  72.952  1.00  0.00    -0.359 C  
HETATM    2  C   UNL     1     -11.025   8.045  71.532  1.00  0.00    -0.279 C  
HETATM    3  C   UNL     1     -10.792   6.980  70.733  1.00  0.00    -0.272 C  
ENDROOT
BRANCH   2   4
HETATM    4  C   UNL     1     -10.910   9.421  71.066  1.00  0.00    -0.406 C  
HETATM    5  C   UNL     1     -11.785  10.041  70.260  1.00  0.00    -0.327 C  
BRANCH   5   6
HETATM    6  C   UNL     1     -11.713  11.457  69.865  1.00  0.00    -0.424 C  
HETATM    7  C   UNL     1     -11.516  11.272  67.329  1.00  0.00    -0.265 C  
HETATM    8  C   UNL     1     -12.317  12.393  70.625  1.00  0.00    -0.367 C  
HETATM    9  C   UNL     1     -12.233  13.870  70.355  1.00  0.00    -0.438 C  
HETATM   10  C   UNL     1     -13.156  12.100  71.852  1.00  0.00    -0.475 C  
HETATM   11  C   UNL     1      -9.460  11.140  68.753  1.00  0.00    -0.173 C  
HETATM   12  C   UNL     1     -10.857  11.804  68.625  1.00  0.00    -0.259 C  
HETATM   13  C   UNL     1     -10.590  13.325  68.410  1.00  0.00    -0.263 C  
HETATM   14  C   UNL     1     -11.418  14.346  69.170  1.00  0.00    -0.328 C  
ENDBRANCH   5   6
ENDBRANCH   2   4
BRANCH   3  15
HETATM   15  C   UNL     1     -10.309   7.054  69.372  1.00  0.00    -0.218 C  
HETATM   16  C   UNL     1     -10.411   6.075  68.459  1.00  0.00    -0.254 C  
BRANCH  16  17
HETATM   17  C   UNL     1      -9.833   6.205  67.124  1.00  0.00    -0.169 C  
HETATM   18  C   UNL     1      -8.925   5.088  65.072  1.00  0.00    -0.130 C  
HETATM   19  O   UNL     1      -8.616   6.074  64.428  1.00  0.00    -0.014 OA 
HETATM   20  C   UNL     1      -9.539   5.094  66.416  1.00  0.00    -0.171 C  
HETATM   21  C   UNL     1      -9.620   7.613  66.637  1.00  0.00    -0.271 C  
HETATM   22  O   UNL     1      -8.725   3.829  64.623  1.00  0.00    -0.110 OA 
ENDBRANCH  16  17
ENDBRANCH   3  15
TORSDOF 4
ENDMDL
MODEL      127
REMARK 921   NORMALIZED FREE ENERGY PREDICTED BY IDOCK:   -4.39 KCAL/MOL
REMARK 922        TOTAL FREE ENERGY PREDICTED BY IDOCK:   -6.81 KCAL/MOL
REMARK 923 INTER-LIGAND FREE ENERGY PREDICTED BY IDOCK:   -6.13 KCAL/MOL
REMARK 924 INTRA-LIGAND FREE ENERGY PREDICTED BY IDOCK:   -0.67 KCAL/MOL
REMARK 927      BINDING AFFINITY PREDICTED BY RF-SCORE:    0.00 PKD
ROOT
HETATM    1  C   UNL     1     -11.114  11.594  64.391  1.00  0.00    -0.382 C  
HETATM    2  C   UNL     1     -11.212  12.029  65.828  1.00  0.00    -0.383 C  
HETATM    3  C   UNL     1     -11.888  13.153  66.153  1.00  0.00    -0.453 C  
ENDROOT
BRANCH   2   4
HETATM    4  C   UNL     1     -10.597  11.162  66.824  1.00  0.00    -0.311 C  
HETATM    5  C   UNL     1     -10.063  11.573  67.985  1.00  0.00    -0.197 C  
BRANCH   5   6
HETATM    6  C   UNL     1      -9.525  10.686  69.028  1.00  0.00    -0.202 C  
HETATM    7  C   UNL     1     -11.276   8.833  69.079  1.00  0.00     0.307 C  
HETATM    8  C   UNL     1      -8.193  10.630  69.234  1.00  0.00    -0.122 C  
HETATM    9  C   UNL     1      -7.550   9.821  70.327  1.00  0.00    -0.184 C  
HETATM   10  C   UNL     1      -7.159  11.369  68.410  1.00  0.00    -0.079 C  
HETATM   11  C   UNL     1     -11.614  10.907  70.443  1.00  0.00    -0.418 C  
HETATM   12  C   UNL     1     -10.544   9.920  69.903  1.00  0.00    -0.312 C  
HETATM   13  C   UNL     1      -9.943   9.214  71.156  1.00  0.00    -0.377 C  
HETATM   14  C   UNL     1      -8.440   9.026  71.261  1.00  0.00    -0.196 C  
ENDBRANCH   5   6
ENDBRANCH   2   4
BRANCH   3  15
HETATM   15  C   UNL     1     -12.006  13.694  67.489  1.00  0.00    -0.393 C  
HETATM   16  C   UNL     1     -11.286  14.716  67.979  1.00  0.00    -0.329 C  
BRANCH  16  17
HETATM   17  C   UNL     1     -11.418  15.156  69.365  1.00  0.00    -0.322 C  
HETATM   18  C   UNL     1     -12.623  14.979  71.556  1.00  0.00    -0.340 C  
HETATM   19  O   UNL     1     -12.013  15.823  72.187  1.00  0.00    -0.390 OA 
HETATM   20  C   UNL     1     -12.365  14.602  70.151  1.00  0.00    -0.390 C  
HETATM   21  C   UNL     1     -10.447  16.216  69.809  1.00  0.00    -0.286 C  
HETATM   22  O   UNL     1     -13.647  14.272  72.081  1.00  0.00    -0.374 OA 
ENDBRANCH  16  17
ENDBRANCH   3  15
TORSDOF 4
ENDMDL
MODEL      128
REMARK 921   NORMALIZED FREE ENERGY PREDICTED BY IDOCK:   -4.35 KCAL/MOL
REMARK 922        TOTAL FREE ENERGY PREDICTED BY IDOCK:   -6.77 KCAL/MOL
REMARK 923 INTER-LIGAND FREE ENERGY PREDICTED BY IDOCK:   -5.52 KCAL/MOL
REMARK 924 INTRA-LIGAND FREE ENERGY PREDICTED BY IDOCK:   -1.25 KCAL/MOL
REMARK 927      BINDING AFFINITY PREDICTED BY RF-SCORE:    0.00 PKD
ROOT
HETATM    1  C   UNL     1      -8.124  18.165  68.462  1.00  0.00    -0.314 C  
HETATM    2  C   UNL     1      -8.851  16.983  67.883  1.00  0.00    -0.224 C  
HETATM    3  C   UNL     1      -9.704  17.150  66.848  1.00  0.00    -0.270 C  
ENDROOT
BRANCH   2   4
HETATM    4  C   UNL     1      -8.548  15.677  68.453  1.00  0.00    -0.173 C  
HETATM    5  C   UNL     1      -7.781  14.738  67.875  1.00  0.00    -0.146 C  
BRANCH   5   6
HETATM    6  C   UNL     1      -7.404  13.457  68.493  1.00  0.00    -0.111 C  
HETATM    7  C   UNL     1      -7.922  11.810  66.616  1.00  0.00    -0.070 C  
HETATM    8  C   UNL     1      -6.438  13.429  69.433  1.00  0.00    -0.100 C  
HETATM    9  C   UNL     1      -6.038  12.189  70.184  1.00  0.00    -0.121 C  
HETATM   10  C   UNL     1      -5.625  14.630  69.873  1.00  0.00    -0.104 C  
HETATM   11  C   UNL     1      -9.734  12.509  68.198  1.00  0.00    -0.222 C  
HETATM   12  C   UNL     1      -8.216  12.207  68.084  1.00  0.00    -0.164 C  
HETATM   13  C   UNL     1      -7.965  10.940  68.957  1.00  0.00    -0.131 C  
HETATM   14  C   UNL     1      -6.761  10.893  69.880  1.00  0.00    -0.147 C  
ENDBRANCH   5   6
ENDBRANCH   2   4
BRANCH   3  15
HETATM   15  C   UNL     1     -10.493  16.098  66.246  1.00  0.00    -0.321 C  
HETATM   16  C   UNL     1     -10.060  15.244  65.305  1.00  0.00    -0.362 C  
BRANCH  16  17
HETATM   17  C   UNL     1     -10.944  14.254  64.697  1.00  0.00    -0.379 C  
HETATM   18  C   UNL     1     -11.247  11.944  63.773  1.00  0.00    -0.440 C  
HETATM   19  O   UNL     1     -12.412  12.018  63.428  1.00  0.00    -0.577 OA 
HETATM   20  C   UNL     1     -10.468  13.023  64.415  1.00  0.00    -0.426 C  
HETATM   21  C   UNL     1     -12.356  14.707  64.441  1.00  0.00    -0.420 C  
HETATM   22  O   UNL     1     -10.501  10.831  63.594  1.00  0.00    -0.299 OA 
ENDBRANCH  16  17
ENDBRANCH   3  15
TORSDOF 4
ENDMDL
MODEL      129
REMARK 921   NORMALIZED FREE ENERGY PREDICTED BY IDOCK:   -4.35 KCAL/MOL
REMARK 922        TOTAL FREE ENERGY PREDICTED BY IDOCK:   -6.76 KCAL/MOL
REMARK 923 INTER-LIGAND FREE ENERGY PREDICTED BY IDOCK:   -5.48 KCAL/MOL
REMARK 924 INTRA-LIGAND FREE ENERGY PREDICTED BY IDOCK:   -1.28 KCAL/MOL
REMARK 927      BINDING AFFINITY PREDICTED BY RF-SCORE:    0.00 PKD
ROOT
HETATM    1  C   UNL     1     -11.505  12.802  67.951  1.00  0.00    -0.365 C  
HETATM    2  C   UNL     1     -11.087  11.568  67.200  1.00  0.00    -0.355 C  
HETATM    3  C   UNL     1     -10.496  11.676  65.990  1.00  0.00    -0.294 C  
ENDROOT
BRANCH   2   4
HETATM    4  C   UNL     1     -11.303  10.288  67.861  1.00  0.00    -0.181 C  
HETATM    5  C   UNL     1     -10.344   9.535  68.424  1.00  0.00    -0.237 C  
BRANCH   5   6
HETATM    6  C   UNL     1     -10.578   8.287  69.168  1.00  0.00    -0.179 C  
HETATM    7  C   UNL     1     -11.800   9.146  71.236  1.00  0.00    -0.396 C  
HETATM    8  C   UNL     1     -10.714   7.125  68.497  1.00  0.00    -0.191 C  
HETATM    9  C   UNL     1     -10.872   5.788  69.166  1.00  0.00    -0.355 C  
HETATM   10  C   UNL     1     -10.722   6.995  66.988  1.00  0.00    -0.423 C  
HETATM   11  C   UNL     1      -9.295   9.126  71.184  1.00  0.00    -0.313 C  
HETATM   12  C   UNL     1     -10.566   8.370  70.712  1.00  0.00    -0.240 C  
HETATM   13  C   UNL     1     -10.545   6.997  71.449  1.00  0.00    -0.236 C  
HETATM   14  C   UNL     1     -10.872   5.729  70.680  1.00  0.00    -0.337 C  
ENDBRANCH   5   6
ENDBRANCH   2   4
BRANCH   3  15
HETATM   15  C   UNL     1     -10.099  10.561  65.157  1.00  0.00    -0.383 C  
HETATM   16  C   UNL     1      -8.846  10.099  65.025  1.00  0.00    -0.205 C  
BRANCH  16  17
HETATM   17  C   UNL     1      -8.520   9.011  64.108  1.00  0.00    -0.183 C  
HETATM   18  C   UNL     1      -7.625   6.692  63.778  1.00  0.00    -0.104 C  
HETATM   19  O   UNL     1      -7.701   6.620  62.565  1.00  0.00    -0.084 OA 
HETATM   20  C   UNL     1      -8.024   7.855  64.598  1.00  0.00    -0.143 C  
HETATM   21  C   UNL     1      -8.783   9.281  62.651  1.00  0.00    -0.225 C  
HETATM   22  O   UNL     1      -7.142   5.688  64.541  1.00  0.00    -0.050 OA 
ENDBRANCH  16  17
ENDBRANCH   3  15
TORSDOF 4
ENDMDL
MODEL      130
REMARK 921   NORMALIZED FREE ENERGY PREDICTED BY IDOCK:   -4.33 KCAL/MOL
REMARK 922        TOTAL FREE ENERGY PREDICTED BY IDOCK:   -6.74 KCAL/MOL
REMARK 923 INTER-LIGAND FREE ENERGY PREDICTED BY IDOCK:   -5.68 KCAL/MOL
REMARK 924 INTRA-LIGAND FREE ENERGY PREDICTED BY IDOCK:   -1.05 KCAL/MOL
REMARK 927      BINDING AFFINITY PREDICTED BY RF-SCORE:    0.00 PKD
ROOT
HETATM    1  C   UNL     1      -9.982  14.083  65.073  1.00  0.00    -0.216 C  
HETATM    2  C   UNL     1     -10.419  13.732  66.468  1.00  0.00    -0.282 C  
HETATM    3  C   UNL     1     -11.639  14.106  66.913  1.00  0.00    -0.410 C  
ENDROOT
BRANCH   2   4
HETATM    4  C   UNL     1      -9.496  12.940  67.270  1.00  0.00    -0.216 C  
HETATM    5  C   UNL     1      -9.133  11.674  67.010  1.00  0.00    -0.179 C  
BRANCH   5   6
HETATM    6  C   UNL     1      -8.133  10.909  67.771  1.00  0.00    -0.115 C  
HETATM    7  C   UNL     1      -6.063  12.377  67.519  1.00  0.00    -0.148 C  
HETATM    8  C   UNL     1      -8.529  10.133  68.801  1.00  0.00    -0.131 C  
HETATM    9  C   UNL     1      -7.599   9.249  69.586  1.00  0.00    -0.084 C  
HETATM   10  C   UNL     1      -9.952  10.032  69.309  1.00  0.00    -0.226 C  
HETATM   11  C   UNL     1      -6.616  10.686  65.755  1.00  0.00    -0.105 C  
HETATM   12  C   UNL     1      -6.668  10.972  67.280  1.00  0.00    -0.086 C  
HETATM   13  C   UNL     1      -5.703   9.942  67.942  1.00  0.00    -0.039 C  
HETATM   14  C   UNL     1      -6.134   9.215  69.203  1.00  0.00    -0.042 C  
ENDBRANCH   5   6
ENDBRANCH   2   4
BRANCH   3  15
HETATM   15  C   UNL     1     -12.145  13.869  68.247  1.00  0.00    -0.322 C  
HETATM   16  C   UNL     1     -11.915  14.649  69.314  1.00  0.00    -0.337 C  
BRANCH  16  17
HETATM   17  C   UNL     1     -12.406  14.300  70.644  1.00  0.00    -0.431 C  
HETATM   18  C   UNL     1     -13.084  15.054  72.937  1.00  0.00    -0.478 C  
HETATM   19  O   UNL     1     -13.343  13.973  73.434  1.00  0.00    -0.411 OA 
HETATM   20  C   UNL     1     -12.620  15.276  71.551  1.00  0.00    -0.442 C  
HETATM   21  C   UNL     1     -12.647  12.835  70.888  1.00  0.00    -0.342 C  
HETATM   22  O   UNL     1     -13.184  16.216  73.619  1.00  0.00    -0.638 OA 
ENDBRANCH  16  17
ENDBRANCH   3  15
TORSDOF 4
ENDMDL
MODEL      131
REMARK 921   NORMALIZED FREE ENERGY PREDICTED BY IDOCK:   -4.32 KCAL/MOL
REMARK 922        TOTAL FREE ENERGY PREDICTED BY IDOCK:   -6.73 KCAL/MOL
REMARK 923 INTER-LIGAND FREE ENERGY PREDICTED BY IDOCK:   -5.57 KCAL/MOL
REMARK 924 INTRA-LIGAND FREE ENERGY PREDICTED BY IDOCK:   -1.16 KCAL/MOL
REMARK 927      BINDING AFFINITY PREDICTED BY RF-SCORE:    0.00 PKD
ROOT
HETATM    1  C   UNL     1      -7.014  12.122  69.038  1.00  0.00    -0.086 C  
HETATM    2  C   UNL     1      -7.617  11.063  68.157  1.00  0.00    -0.095 C  
HETATM    3  C   UNL     1      -7.483   9.756  68.475  1.00  0.00    -0.079 C  
ENDROOT
BRANCH   2   4
HETATM    4  C   UNL     1      -8.380  11.519  67.003  1.00  0.00    -0.165 C  
HETATM    5  C   UNL     1      -9.713  11.677  66.968  1.00  0.00    -0.201 C  
BRANCH   5   6
HETATM    6  C   UNL     1     -10.470  12.223  65.831  1.00  0.00    -0.288 C  
HETATM    7  C   UNL     1     -10.146  14.732  66.157  1.00  0.00    -0.312 C  
HETATM    8  C   UNL     1     -10.584  11.501  64.697  1.00  0.00    -0.369 C  
HETATM    9  C   UNL     1     -11.402  11.931  63.512  1.00  0.00    -0.516 C  
HETATM   10  C   UNL     1      -9.917  10.162  64.455  1.00  0.00    -0.275 C  
HETATM   11  C   UNL     1     -12.004  13.547  67.350  1.00  0.00    -0.398 C  
HETATM   12  C   UNL     1     -11.177  13.582  66.036  1.00  0.00    -0.305 C  
HETATM   13  C   UNL     1     -12.179  13.984  64.912  1.00  0.00    -0.455 C  
HETATM   14  C   UNL     1     -12.152  13.245  63.586  1.00  0.00    -0.551 C  
ENDBRANCH   5   6
ENDBRANCH   2   4
BRANCH   3  15
HETATM   15  C   UNL     1      -7.975   8.653  67.679  1.00  0.00    -0.107 C  
HETATM   16  C   UNL     1      -9.182   8.081  67.809  1.00  0.00    -0.142 C  
BRANCH  16  17
HETATM   17  C   UNL     1      -9.576   6.924  67.010  1.00  0.00    -0.197 C  
HETATM   18  C   UNL     1      -8.916   5.105  65.416  1.00  0.00    -0.156 C  
HETATM   19  O   UNL     1     -10.004   4.586  65.245  1.00  0.00    -0.187 OA 
HETATM   20  C   UNL     1      -8.644   6.267  66.287  1.00  0.00    -0.138 C  
HETATM   21  C   UNL     1     -11.032   6.550  67.074  1.00  0.00    -0.466 C  
HETATM   22  O   UNL     1      -7.794   4.673  64.800  1.00  0.00    -0.083 OA 
ENDBRANCH  16  17
ENDBRANCH   3  15
TORSDOF 4
ENDMDL
MODEL      132
REMARK 921   NORMALIZED FREE ENERGY PREDICTED BY IDOCK:   -4.30 KCAL/MOL
REMARK 922        TOTAL FREE ENERGY PREDICTED BY IDOCK:   -6.70 KCAL/MOL
REMARK 923 INTER-LIGAND FREE ENERGY PREDICTED BY IDOCK:   -5.79 KCAL/MOL
REMARK 924 INTRA-LIGAND FREE ENERGY PREDICTED BY IDOCK:   -0.91 KCAL/MOL
REMARK 927      BINDING AFFINITY PREDICTED BY RF-SCORE:    0.00 PKD
ROOT
HETATM    1  C   UNL     1      -8.102  10.510  65.161  1.00  0.00    -0.112 C  
HETATM    2  C   UNL     1      -8.973  10.531  66.387  1.00  0.00    -0.174 C  
HETATM    3  C   UNL     1      -9.624   9.413  66.778  1.00  0.00    -0.234 C  
ENDROOT
BRANCH   2   4
HETATM    4  C   UNL     1      -9.028  11.779  67.137  1.00  0.00    -0.177 C  
HETATM    5  C   UNL     1      -9.636  12.903  66.728  1.00  0.00    -0.246 C  
BRANCH   5   6
HETATM    6  C   UNL     1      -9.766  14.132  67.527  1.00  0.00    -0.234 C  
HETATM    7  C   UNL     1     -11.761  13.570  69.012  1.00  0.00    -0.370 C  
HETATM    8  C   UNL     1      -8.672  14.879  67.785  1.00  0.00    -0.168 C  
HETATM    9  C   UNL     1      -8.711  16.191  68.518  1.00  0.00    -0.200 C  
HETATM   10  C   UNL     1      -7.261  14.514  67.373  1.00  0.00    -0.165 C  
HETATM   11  C   UNL     1     -12.137  14.527  66.728  1.00  0.00    -0.313 C  
HETATM   12  C   UNL     1     -11.190  14.550  67.958  1.00  0.00    -0.308 C  
HETATM   13  C   UNL     1     -11.306  15.984  68.560  1.00  0.00    -0.382 C  
HETATM   14  C   UNL     1     -10.049  16.719  68.992  1.00  0.00    -0.283 C  
ENDBRANCH   5   6
ENDBRANCH   2   4
BRANCH   3  15
HETATM   15  C   UNL     1     -10.524   9.329  67.907  1.00  0.00    -0.290 C  
HETATM   16  C   UNL     1     -10.151   9.186  69.188  1.00  0.00    -0.199 C  
BRANCH  16  17
HETATM   17  C   UNL     1     -11.128   9.038  70.263  1.00  0.00    -0.263 C  
HETATM   18  C   UNL     1     -12.352   7.527  71.845  1.00  0.00    -0.310 C  
HETATM   19  O   UNL     1     -13.060   8.348  72.398  1.00  0.00    -0.307 OA 
HETATM   20  C   UNL     1     -11.368   7.815  70.781  1.00  0.00    -0.291 C  
HETATM   21  C   UNL     1     -11.795  10.308  70.719  1.00  0.00    -0.459 C  
HETATM   22  O   UNL     1     -12.390   6.210  72.143  1.00  0.00    -0.299 OA 
ENDBRANCH  16  17
ENDBRANCH   3  15
TORSDOF 4
ENDMDL
MODEL      133
REMARK 921   NORMALIZED FREE ENERGY PREDICTED BY IDOCK:   -4.29 KCAL/MOL
REMARK 922        TOTAL FREE ENERGY PREDICTED BY IDOCK:   -6.70 KCAL/MOL
REMARK 923 INTER-LIGAND FREE ENERGY PREDICTED BY IDOCK:   -5.55 KCAL/MOL
REMARK 924 INTRA-LIGAND FREE ENERGY PREDICTED BY IDOCK:   -1.15 KCAL/MOL
REMARK 927      BINDING AFFINITY PREDICTED BY RF-SCORE:    0.00 PKD
ROOT
HETATM    1  C   UNL     1     -10.932   6.558  71.360  1.00  0.00    -0.303 C  
HETATM    2  C   UNL     1     -10.684   7.800  70.548  1.00  0.00    -0.238 C  
HETATM    3  C   UNL     1     -11.226   8.978  70.925  1.00  0.00    -0.348 C  
ENDROOT
BRANCH   2   4
HETATM    4  C   UNL     1      -9.803   7.669  69.395  1.00  0.00    -0.171 C  
HETATM    5  C   UNL     1     -10.204   7.635  68.114  1.00  0.00    -0.236 C  
BRANCH   5   6
HETATM    6  C   UNL     1      -9.307   7.594  66.949  1.00  0.00    -0.203 C  
HETATM    7  C   UNL     1      -7.685   9.488  67.484  1.00  0.00    -0.095 C  
HETATM    8  C   UNL     1      -9.098   6.425  66.308  1.00  0.00    -0.167 C  
HETATM    9  C   UNL     1      -8.268   6.292  65.062  1.00  0.00    -0.132 C  
HETATM   10  C   UNL     1      -9.668   5.089  66.741  1.00  0.00    -0.188 C  
HETATM   11  C   UNL     1      -9.845   9.986  66.317  1.00  0.00    -0.297 C  
HETATM   12  C   UNL     1      -8.712   8.936  66.464  1.00  0.00    -0.145 C  
HETATM   13  C   UNL     1      -7.996   8.882  65.081  1.00  0.00    -0.122 C  
HETATM   14  C   UNL     1      -7.631   7.537  64.478  1.00  0.00    -0.110 C  
ENDBRANCH   5   6
ENDBRANCH   2   4
BRANCH   3  15
HETATM   15  C   UNL     1     -11.097  10.222  70.198  1.00  0.00    -0.385 C  
HETATM   16  C   UNL     1     -12.115  11.020  69.838  1.00  0.00    -0.435 C  
BRANCH  16  17
HETATM   17  C   UNL     1     -11.904  12.226  69.042  1.00  0.00    -0.358 C  
HETATM   18  C   UNL     1     -11.799  13.300  66.780  1.00  0.00    -0.394 C  
HETATM   19  O   UNL     1     -11.502  14.433  67.111  1.00  0.00    -0.330 OA 
HETATM   20  C   UNL     1     -12.018  12.163  67.699  1.00  0.00    -0.190 C  
HETATM   21  C   UNL     1     -11.578  13.473  69.818  1.00  0.00    -0.313 C  
HETATM   22  O   UNL     1     -11.960  12.933  65.489  1.00  0.00    -0.385 OA 
ENDBRANCH  16  17
ENDBRANCH   3  15
TORSDOF 4
ENDMDL
MODEL      134
REMARK 921   NORMALIZED FREE ENERGY PREDICTED BY IDOCK:   -4.28 KCAL/MOL
REMARK 922        TOTAL FREE ENERGY PREDICTED BY IDOCK:   -6.67 KCAL/MOL
REMARK 923 INTER-LIGAND FREE ENERGY PREDICTED BY IDOCK:   -5.43 KCAL/MOL
REMARK 924 INTRA-LIGAND FREE ENERGY PREDICTED BY IDOCK:   -1.24 KCAL/MOL
REMARK 927      BINDING AFFINITY PREDICTED BY RF-SCORE:    0.00 PKD
ROOT
HETATM    1  C   UNL     1     -10.320  11.918  65.798  1.00  0.00    -0.285 C  
HETATM    2  C   UNL     1     -10.124  10.526  66.334  1.00  0.00    -0.285 C  
HETATM    3  C   UNL     1      -9.282   9.671  65.713  1.00  0.00    -0.264 C  
ENDROOT
BRANCH   2   4
HETATM    4  C   UNL     1     -10.836  10.183  67.558  1.00  0.00    -0.349 C  
HETATM    5  C   UNL     1     -10.307  10.200  68.792  1.00  0.00    -0.211 C  
BRANCH   5   6
HETATM    6  C   UNL     1     -11.053   9.941  70.034  1.00  0.00    -0.335 C  
HETATM    7  C   UNL     1      -9.424   8.449  71.309  1.00  0.00    -0.240 C  
HETATM    8  C   UNL     1     -11.931  10.858  70.489  1.00  0.00    -0.466 C  
HETATM    9  C   UNL     1     -12.801  10.654  71.698  1.00  0.00    -0.570 C  
HETATM   10  C   UNL     1     -12.172  12.212  69.854  1.00  0.00    -0.240 C  
HETATM   11  C   UNL     1     -11.014   7.436  69.659  1.00  0.00    -0.186 C  
HETATM   12  C   UNL     1     -10.847   8.566  70.711  1.00  0.00    -0.268 C  
HETATM   13  C   UNL     1     -11.851   8.235  71.856  1.00  0.00    -0.380 C  
HETATM   14  C   UNL     1     -12.700   9.344  72.452  1.00  0.00    -0.350 C  
ENDBRANCH   5   6
ENDBRANCH   2   4
BRANCH   3  15
HETATM   15  C   UNL     1      -9.055   8.298  66.107  1.00  0.00    -0.238 C  
HETATM   16  C   UNL     1      -8.181   7.894  67.043  1.00  0.00    -0.117 C  
BRANCH  16  17
HETATM   17  C   UNL     1      -7.962   6.479  67.332  1.00  0.00    -0.113 C  
HETATM   18  C   UNL     1      -8.531   4.087  66.846  1.00  0.00    -0.101 C  
HETATM   19  O   UNL     1      -7.818   3.541  67.669  1.00  0.00    -0.076 OA 
HETATM   20  C   UNL     1      -8.637   5.545  66.630  1.00  0.00    -0.116 C  
HETATM   21  C   UNL     1      -6.962   6.181  68.416  1.00  0.00    -0.080 C  
HETATM   22  O   UNL     1      -9.342   3.401  66.012  1.00  0.00    -0.161 OA 
ENDBRANCH  16  17
ENDBRANCH   3  15
TORSDOF 4
ENDMDL
MODEL      135
REMARK 921   NORMALIZED FREE ENERGY PREDICTED BY IDOCK:   -4.27 KCAL/MOL
REMARK 922        TOTAL FREE ENERGY PREDICTED BY IDOCK:   -6.66 KCAL/MOL
REMARK 923 INTER-LIGAND FREE ENERGY PREDICTED BY IDOCK:   -5.43 KCAL/MOL
REMARK 924 INTRA-LIGAND FREE ENERGY PREDICTED BY IDOCK:   -1.24 KCAL/MOL
REMARK 927      BINDING AFFINITY PREDICTED BY RF-SCORE:    0.00 PKD
ROOT
HETATM    1  C   UNL     1     -11.825   8.173  71.081  1.00  0.00    -0.303 C  
HETATM    2  C   UNL     1     -11.343   8.941  69.881  1.00  0.00     0.006 C  
HETATM    3  C   UNL     1     -10.499   8.363  68.998  1.00  0.00    -0.216 C  
ENDROOT
BRANCH   2   4
HETATM    4  C   UNL     1     -11.869  10.288  69.703  1.00  0.00    -0.181 C  
HETATM    5  C   UNL     1     -11.315  11.408  70.195  1.00  0.00    -0.207 C  
BRANCH   5   6
HETATM    6  C   UNL     1     -11.800  12.773  69.938  1.00  0.00    -0.371 C  
HETATM    7  C   UNL     1     -11.899  12.811  67.390  1.00  0.00    -0.404 C  
HETATM    8  C   UNL     1     -12.585  13.385  70.848  1.00  0.00    -0.406 C  
HETATM    9  C   UNL     1     -13.062  14.804  70.720  1.00  0.00    -0.389 C  
HETATM   10  C   UNL     1     -13.091  12.742  72.123  1.00  0.00    -0.454 C  
HETATM   11  C   UNL     1      -9.753  13.354  68.563  1.00  0.00    -0.156 C  
HETATM   12  C   UNL     1     -11.299  13.473  68.654  1.00  0.00    -0.323 C  
HETATM   13  C   UNL     1     -11.615  14.997  68.564  1.00  0.00    -0.348 C  
HETATM   14  C   UNL     1     -12.637  15.607  69.507  1.00  0.00     0.103 C  
ENDBRANCH   5   6
ENDBRANCH   2   4
BRANCH   3  15
HETATM   15  C   UNL     1      -9.933   9.019  67.840  1.00  0.00    -0.220 C  
HETATM   16  C   UNL     1     -10.277   8.776  66.565  1.00  0.00    -0.314 C  
BRANCH  16  17
HETATM   17  C   UNL     1      -9.605   9.433  65.448  1.00  0.00    -0.296 C  
HETATM   18  C   UNL     1      -7.674   9.489  63.850  1.00  0.00    -0.123 C  
HETATM   19  O   UNL     1      -7.950  10.506  63.240  1.00  0.00    -0.145 OA 
HETATM   20  C   UNL     1      -8.465   8.905  64.954  1.00  0.00    -0.195 C  
HETATM   21  C   UNL     1     -10.272  10.677  64.924  1.00  0.00    -0.395 C  
HETATM   22  O   UNL     1      -6.571   8.755  63.588  1.00  0.00    -0.087 OA 
ENDBRANCH  16  17
ENDBRANCH   3  15
TORSDOF 4
ENDMDL
MODEL      136
REMARK 921   NORMALIZED FREE ENERGY PREDICTED BY IDOCK:   -4.23 KCAL/MOL
REMARK 922        TOTAL FREE ENERGY PREDICTED BY IDOCK:   -6.62 KCAL/MOL
REMARK 923 INTER-LIGAND FREE ENERGY PREDICTED BY IDOCK:   -5.91 KCAL/MOL
REMARK 924 INTRA-LIGAND FREE ENERGY PREDICTED BY IDOCK:   -0.71 KCAL/MOL
REMARK 927      BINDING AFFINITY PREDICTED BY RF-SCORE:    0.00 PKD
ROOT
HETATM    1  C   UNL     1      -8.923   9.194  66.757  1.00  0.00    -0.152 C  
HETATM    2  C   UNL     1      -9.760   9.755  67.874  1.00  0.00    -0.168 C  
HETATM    3  C   UNL     1     -10.946  10.344  67.605  1.00  0.00    -0.374 C  
ENDROOT
BRANCH   2   4
HETATM    4  C   UNL     1      -9.254   9.582  69.230  1.00  0.00    -0.169 C  
HETATM    5  C   UNL     1      -8.852   8.418  69.764  1.00  0.00    -0.134 C  
BRANCH   5   6
HETATM    6  C   UNL     1      -8.258   8.263  71.102  1.00  0.00    -0.137 C  
HETATM    7  C   UNL     1      -9.701   6.407  72.091  1.00  0.00    -0.161 C  
HETATM    8  C   UNL     1      -6.952   8.543  71.288  1.00  0.00    -0.075 C  
HETATM    9  C   UNL     1      -6.271   8.497  72.628  1.00  0.00    -0.087 C  
HETATM   10  C   UNL     1      -5.989   8.945  70.190  1.00  0.00    -0.033 C  
HETATM   11  C   UNL     1     -10.452   8.791  72.252  1.00  0.00    -0.317 C  
HETATM   12  C   UNL     1      -9.206   7.865  72.256  1.00  0.00    -0.223 C  
HETATM   13  C   UNL     1      -8.594   7.979  73.685  1.00  0.00    -0.322 C  
HETATM   14  C   UNL     1      -7.091   8.125  73.846  1.00  0.00    -0.179 C  
ENDBRANCH   5   6
ENDBRANCH   2   4
BRANCH   3  15
HETATM   15  C   UNL     1     -11.808  10.961  68.589  1.00  0.00    -0.269 C  
HETATM   16  C   UNL     1     -11.405  11.798  69.558  1.00  0.00    -0.317 C  
BRANCH  16  17
HETATM   17  C   UNL     1     -12.332  12.323  70.556  1.00  0.00    -0.349 C  
HETATM   18  C   UNL     1     -13.407  14.316  71.634  1.00  0.00    -0.365 C  
HETATM   19  O   UNL     1     -14.080  13.749  72.474  1.00  0.00    -0.686 OA 
HETATM   20  C   UNL     1     -12.523  13.656  70.649  1.00  0.00    -0.417 C  
HETATM   21  C   UNL     1     -13.022  11.296  71.413  1.00  0.00    -0.482 C  
HETATM   22  O   UNL     1     -13.378  15.660  71.504  1.00  0.00    -0.494 OA 
ENDBRANCH  16  17
ENDBRANCH   3  15
TORSDOF 4
ENDMDL
MODEL      137
REMARK 921   NORMALIZED FREE ENERGY PREDICTED BY IDOCK:   -4.21 KCAL/MOL
REMARK 922        TOTAL FREE ENERGY PREDICTED BY IDOCK:   -6.59 KCAL/MOL
REMARK 923 INTER-LIGAND FREE ENERGY PREDICTED BY IDOCK:   -6.62 KCAL/MOL
REMARK 924 INTRA-LIGAND FREE ENERGY PREDICTED BY IDOCK:    0.03 KCAL/MOL
REMARK 927      BINDING AFFINITY PREDICTED BY RF-SCORE:    0.00 PKD
ROOT
HETATM    1  C   UNL     1     -13.030  13.877  71.853  1.00  0.00    -0.440 C  
HETATM    2  C   UNL     1     -12.225  14.419  70.704  1.00  0.00    -0.414 C  
HETATM    3  C   UNL     1     -11.733  15.676  70.751  1.00  0.00    -0.408 C  
ENDROOT
BRANCH   2   4
HETATM    4  C   UNL     1     -11.968  13.512  69.592  1.00  0.00    -0.397 C  
HETATM    5  C   UNL     1     -11.599  13.886  68.357  1.00  0.00    -0.368 C  
BRANCH   5   6
HETATM    6  C   UNL     1     -11.254  12.965  67.263  1.00  0.00    -0.329 C  
HETATM    7  C   UNL     1     -10.850  10.790  68.533  1.00  0.00    -0.270 C  
HETATM    8  C   UNL     1     -11.763  13.171  66.031  1.00  0.00    -0.424 C  
HETATM    9  C   UNL     1     -11.408  12.339  64.830  1.00  0.00    -0.373 C  
HETATM   10  C   UNL     1     -12.752  14.263  65.677  1.00  0.00    -0.395 C  
HETATM   11  C   UNL     1      -8.989  12.447  68.272  1.00  0.00    -0.178 C  
HETATM   12  C   UNL     1     -10.238  11.842  67.576  1.00  0.00    -0.212 C  
HETATM   13  C   UNL     1      -9.701  11.070  66.333  1.00  0.00    -0.235 C  
HETATM   14  C   UNL     1     -10.416  11.207  65.000  1.00  0.00    -0.357 C  
ENDBRANCH   5   6
ENDBRANCH   2   4
BRANCH   3  15
HETATM   15  C   UNL     1     -10.991  16.318  69.688  1.00  0.00    -0.346 C  
HETATM   16  C   UNL     1     -10.358  17.497  69.786  1.00  0.00     0.326 C  
BRANCH  16  17
HETATM   17  C   UNL     1      -9.688  18.109  68.642  1.00  0.00    -0.367 C  
HETATM   18  C   UNL     1      -7.623  19.163  67.689  1.00  0.00    -0.239 C  
HETATM   19  O   UNL     1      -8.030  19.423  66.571  1.00  0.00    -0.268 OA 
HETATM   20  C   UNL     1      -8.403  18.504  68.757  1.00  0.00    -0.274 C  
HETATM   21  C   UNL     1     -10.517  18.240  67.393  1.00  0.00    -0.430 C  
HETATM   22  O   UNL     1      -6.372  19.465  68.101  1.00  0.00    -0.220 OA 
ENDBRANCH  16  17
ENDBRANCH   3  15
TORSDOF 4
ENDMDL
MODEL      138
REMARK 921   NORMALIZED FREE ENERGY PREDICTED BY IDOCK:   -4.20 KCAL/MOL
REMARK 922        TOTAL FREE ENERGY PREDICTED BY IDOCK:   -6.57 KCAL/MOL
REMARK 923 INTER-LIGAND FREE ENERGY PREDICTED BY IDOCK:   -5.51 KCAL/MOL
REMARK 924 INTRA-LIGAND FREE ENERGY PREDICTED BY IDOCK:   -1.06 KCAL/MOL
REMARK 927      BINDING AFFINITY PREDICTED BY RF-SCORE:    0.00 PKD
ROOT
HETATM    1  C   UNL     1      -6.893   8.611  64.891  1.00  0.00    -0.072 C  
HETATM    2  C   UNL     1      -7.764   8.815  66.100  1.00  0.00    -0.101 C  
HETATM    3  C   UNL     1      -7.784   7.891  67.087  1.00  0.00    -0.101 C  
ENDROOT
BRANCH   2   4
HETATM    4  C   UNL     1      -8.521  10.058  66.168  1.00  0.00    -0.131 C  
HETATM    5  C   UNL     1      -9.827  10.186  65.881  1.00  0.00    -0.308 C  
BRANCH   5   6
HETATM    6  C   UNL     1     -10.607  11.424  66.037  1.00  0.00    -0.319 C  
HETATM    7  C   UNL     1      -9.481  12.489  68.062  1.00  0.00    -0.209 C  
HETATM    8  C   UNL     1     -11.173  11.996  64.955  1.00  0.00    -0.374 C  
HETATM    9  C   UNL     1     -12.057  13.211  65.018  1.00  0.00    -0.458 C  
HETATM   10  C   UNL     1     -11.009  11.503  63.532  1.00  0.00    -0.453 C  
HETATM   11  C   UNL     1     -11.309  10.809  68.392  1.00  0.00    -0.367 C  
HETATM   12  C   UNL     1     -10.811  11.958  67.474  1.00  0.00    -0.283 C  
HETATM   13  C   UNL     1     -11.860  13.102  67.612  1.00  0.00    -0.405 C  
HETATM   14  C   UNL     1     -12.342  13.831  66.371  1.00  0.00    -0.460 C  
ENDBRANCH   5   6
ENDBRANCH   2   4
BRANCH   3  15
HETATM   15  C   UNL     1      -8.616   7.956  68.268  1.00  0.00    -0.124 C  
HETATM   16  C   UNL     1      -8.168   8.015  69.532  1.00  0.00    -0.122 C  
BRANCH  16  17
HETATM   17  C   UNL     1      -9.078   8.008  70.673  1.00  0.00    -0.154 C  
HETATM   18  C   UNL     1     -10.662   6.726  72.134  1.00  0.00    -0.220 C  
HETATM   19  O   UNL     1     -11.014   7.622  72.879  1.00  0.00    -0.341 OA 
HETATM   20  C   UNL     1      -9.696   6.860  71.023  1.00  0.00    -0.178 C  
HETATM   21  C   UNL     1      -9.243   9.322  71.386  1.00  0.00    -0.091 C  
HETATM   22  O   UNL     1     -11.135   5.464  72.231  1.00  0.00    -0.238 OA 
ENDBRANCH  16  17
ENDBRANCH   3  15
TORSDOF 4
ENDMDL
MODEL      139
REMARK 921   NORMALIZED FREE ENERGY PREDICTED BY IDOCK:   -4.17 KCAL/MOL
REMARK 922        TOTAL FREE ENERGY PREDICTED BY IDOCK:   -6.54 KCAL/MOL
REMARK 923 INTER-LIGAND FREE ENERGY PREDICTED BY IDOCK:   -5.31 KCAL/MOL
REMARK 924 INTRA-LIGAND FREE ENERGY PREDICTED BY IDOCK:   -1.23 KCAL/MOL
REMARK 927      BINDING AFFINITY PREDICTED BY RF-SCORE:    0.00 PKD
ROOT
HETATM    1  C   UNL     1      -9.699   4.139  67.486  1.00  0.00    -0.185 C  
HETATM    2  C   UNL     1      -9.900   5.591  67.826  1.00  0.00    -0.164 C  
HETATM    3  C   UNL     1     -10.564   6.402  66.974  1.00  0.00    -0.396 C  
ENDROOT
BRANCH   2   4
HETATM    4  C   UNL     1      -9.397   6.043  69.116  1.00  0.00    -0.136 C  
HETATM    5  C   UNL     1     -10.108   6.080  70.255  1.00  0.00    -0.249 C  
BRANCH   5   6
HETATM    6  C   UNL     1      -9.571   6.453  71.573  1.00  0.00    -0.169 C  
HETATM    7  C   UNL     1      -7.610   4.839  71.803  1.00  0.00    -0.095 C  
HETATM    8  C   UNL     1      -9.713   7.718  72.018  1.00  0.00    -0.224 C  
HETATM    9  C   UNL     1      -9.276   8.179  73.380  1.00  0.00    -0.291 C  
HETATM   10  C   UNL     1     -10.332   8.849  71.222  1.00  0.00    -0.355 C  
HETATM   11  C   UNL     1      -9.909   4.116  72.488  1.00  0.00    -0.213 C  
HETATM   12  C   UNL     1      -8.941   5.328  72.426  1.00  0.00    -0.137 C  
HETATM   13  C   UNL     1      -8.638   5.710  73.907  1.00  0.00    -0.118 C  
HETATM   14  C   UNL     1      -8.646   7.171  74.320  1.00  0.00    -0.225 C  
ENDBRANCH   5   6
ENDBRANCH   2   4
BRANCH   3  15
HETATM   15  C   UNL     1     -10.773   7.820  67.171  1.00  0.00    -0.337 C  
HETATM   16  C   UNL     1     -10.158   8.797  66.487  1.00  0.00    -0.349 C  
BRANCH  16  17
HETATM   17  C   UNL     1     -10.374  10.208  66.796  1.00  0.00    -0.285 C  
HETATM   18  C   UNL     1     -11.139  11.941  68.438  1.00  0.00    -0.244 C  
HETATM   19  O   UNL     1     -10.982  12.940  67.760  1.00  0.00    -0.231 OA 
HETATM   20  C   UNL     1     -10.847  10.556  68.011  1.00  0.00    -0.312 C  
HETATM   21  C   UNL     1     -10.030  11.178  65.699  1.00  0.00    -0.297 C  
HETATM   22  O   UNL     1     -11.624  11.981  69.698  1.00  0.00    -0.296 OA 
ENDBRANCH  16  17
ENDBRANCH   3  15
TORSDOF 4
ENDMDL
MODEL      140
REMARK 921   NORMALIZED FREE ENERGY PREDICTED BY IDOCK:   -4.15 KCAL/MOL
REMARK 922        TOTAL FREE ENERGY PREDICTED BY IDOCK:   -6.52 KCAL/MOL
REMARK 923 INTER-LIGAND FREE ENERGY PREDICTED BY IDOCK:   -6.27 KCAL/MOL
REMARK 924 INTRA-LIGAND FREE ENERGY PREDICTED BY IDOCK:   -0.25 KCAL/MOL
REMARK 927      BINDING AFFINITY PREDICTED BY RF-SCORE:    0.00 PKD
ROOT
HETATM    1  C   UNL     1     -13.043  11.920  71.693  1.00  0.00    -0.433 C  
HETATM    2  C   UNL     1     -12.302  12.746  70.679  1.00  0.00    -0.381 C  
HETATM    3  C   UNL     1     -12.308  14.095  70.765  1.00  0.00    -0.439 C  
ENDROOT
BRANCH   2   4
HETATM    4  C   UNL     1     -11.553  12.025  69.658  1.00  0.00    -0.371 C  
HETATM    5  C   UNL     1     -11.388  10.693  69.614  1.00  0.00    -0.360 C  
BRANCH   5   6
HETATM    6  C   UNL     1     -10.708   9.961  68.534  1.00  0.00    -0.260 C  
HETATM    7  C   UNL     1     -10.843   7.558  69.378  1.00  0.00    -0.161 C  
HETATM    8  C   UNL     1     -10.744  10.445  67.275  1.00  0.00    -0.331 C  
HETATM    9  C   UNL     1     -10.015   9.820  66.119  1.00  0.00    -0.338 C  
HETATM   10  C   UNL     1     -11.512  11.678  66.846  1.00  0.00    -0.320 C  
HETATM   11  C   UNL     1      -8.960   9.036  70.117  1.00  0.00    -0.200 C  
HETATM   12  C   UNL     1      -9.901   8.703  68.928  1.00  0.00    -0.184 C  
HETATM   13  C   UNL     1      -8.986   8.125  67.807  1.00  0.00    -0.134 C  
HETATM   14  C   UNL     1      -9.181   8.580  66.371  1.00  0.00    -0.251 C  
ENDBRANCH   5   6
ENDBRANCH   2   4
BRANCH   3  15
HETATM   15  C   UNL     1     -11.676  14.990  69.821  1.00  0.00    -0.341 C  
HETATM   16  C   UNL     1     -10.404  15.415  69.887  1.00  0.00    -0.298 C  
BRANCH  16  17
HETATM   17  C   UNL     1      -9.863  16.375  68.930  1.00  0.00    -0.260 C  
HETATM   18  C   UNL     1      -7.864  17.574  68.006  1.00  0.00    -0.225 C  
HETATM   19  O   UNL     1      -8.417  18.274  67.177  1.00  0.00    -0.242 OA 
HETATM   20  C   UNL     1      -8.533  16.607  68.901  1.00  0.00    -0.233 C  
HETATM   21  C   UNL     1     -10.868  17.035  68.025  1.00  0.00    -0.330 C  
HETATM   22  O   UNL     1      -6.531  17.608  68.219  1.00  0.00    -0.179 OA 
ENDBRANCH  16  17
ENDBRANCH   3  15
TORSDOF 4
ENDMDL
MODEL      141
REMARK 921   NORMALIZED FREE ENERGY PREDICTED BY IDOCK:   -4.15 KCAL/MOL
REMARK 922        TOTAL FREE ENERGY PREDICTED BY IDOCK:   -6.51 KCAL/MOL
REMARK 923 INTER-LIGAND FREE ENERGY PREDICTED BY IDOCK:   -5.72 KCAL/MOL
REMARK 924 INTRA-LIGAND FREE ENERGY PREDICTED BY IDOCK:   -0.80 KCAL/MOL
REMARK 927      BINDING AFFINITY PREDICTED BY RF-SCORE:    0.00 PKD
ROOT
HETATM    1  C   UNL     1     -14.033   8.905  72.510  1.00  0.00    -0.466 C  
HETATM    2  C   UNL     1     -12.917   9.430  71.649  1.00  0.00    -0.471 C  
HETATM    3  C   UNL     1     -12.906  10.726  71.266  1.00  0.00    -0.540 C  
ENDROOT
BRANCH   2   4
HETATM    4  C   UNL     1     -11.851   8.497  71.308  1.00  0.00    -0.335 C  
HETATM    5  C   UNL     1     -10.579   8.586  71.729  1.00  0.00    -0.371 C  
BRANCH   5   6
HETATM    6  C   UNL     1      -9.528   7.594  71.455  1.00  0.00    -0.166 C  
HETATM    7  C   UNL     1      -7.544   9.092  70.888  1.00  0.00    -0.146 C  
HETATM    8  C   UNL     1      -9.564   6.396  72.074  1.00  0.00    -0.157 C  
HETATM    9  C   UNL     1      -8.588   5.285  71.802  1.00  0.00    -0.131 C  
HETATM   10  C   UNL     1     -10.586   5.993  73.118  1.00  0.00    -0.268 C  
HETATM   11  C   UNL     1      -9.179   8.457  69.100  1.00  0.00    -0.150 C  
HETATM   12  C   UNL     1      -8.470   7.957  70.388  1.00  0.00    -0.131 C  
HETATM   13  C   UNL     1      -7.550   6.781  69.941  1.00  0.00    -0.100 C  
HETATM   14  C   UNL     1      -7.502   5.511  70.771  1.00  0.00    -0.088 C  
ENDBRANCH   5   6
ENDBRANCH   2   4
BRANCH   3  15
HETATM   15  C   UNL     1     -11.915  11.327  70.401  1.00  0.00    -0.471 C  
HETATM   16  C   UNL     1     -12.137  12.350  69.561  1.00  0.00    -0.250 C  
BRANCH  16  17
HETATM   17  C   UNL     1     -11.096  12.854  68.669  1.00  0.00    -0.307 C  
HETATM   18  C   UNL     1      -9.505  12.416  66.782  1.00  0.00    -0.228 C  
HETATM   19  O   UNL     1      -8.956  13.501  66.729  1.00  0.00    -0.233 OA 
HETATM   20  C   UNL     1     -10.581  12.040  67.723  1.00  0.00    -0.234 C  
HETATM   21  C   UNL     1     -10.685  14.285  68.886  1.00  0.00    -0.268 C  
HETATM   22  O   UNL     1      -9.179  11.390  65.966  1.00  0.00    -0.206 OA 
ENDBRANCH  16  17
ENDBRANCH   3  15
TORSDOF 4
ENDMDL
MODEL      142
REMARK 921   NORMALIZED FREE ENERGY PREDICTED BY IDOCK:   -4.06 KCAL/MOL
REMARK 922        TOTAL FREE ENERGY PREDICTED BY IDOCK:   -6.40 KCAL/MOL
REMARK 923 INTER-LIGAND FREE ENERGY PREDICTED BY IDOCK:   -4.90 KCAL/MOL
REMARK 924 INTRA-LIGAND FREE ENERGY PREDICTED BY IDOCK:   -1.50 KCAL/MOL
REMARK 927      BINDING AFFINITY PREDICTED BY RF-SCORE:    0.00 PKD
ROOT
HETATM    1  C   UNL     1     -13.304  10.136  71.969  1.00  0.00    -0.492 C  
HETATM    2  C   UNL     1     -12.162   9.270  71.516  1.00  0.00    -0.439 C  
HETATM    3  C   UNL     1     -11.535   8.457  72.395  1.00  0.00    -0.451 C  
ENDROOT
BRANCH   2   4
HETATM    4  C   UNL     1     -11.816   9.317  70.101  1.00  0.00     0.076 C  
HETATM    5  C   UNL     1     -10.914  10.146  69.551  1.00  0.00    -0.295 C  
BRANCH   5   6
HETATM    6  C   UNL     1     -10.503  10.130  68.138  1.00  0.00    -0.243 C  
HETATM    7  C   UNL     1     -10.339   7.626  67.681  1.00  0.00    -0.303 C  
HETATM    8  C   UNL     1     -10.873  11.140  67.325  1.00  0.00    -0.326 C  
HETATM    9  C   UNL     1     -10.437  11.260  65.891  1.00  0.00    -0.314 C  
HETATM   10  C   UNL     1     -11.766  12.294  67.731  1.00  0.00    -0.403 C  
HETATM   11  C   UNL     1      -8.383   8.847  68.660  1.00  0.00    -0.124 C  
HETATM   12  C   UNL     1      -9.581   8.977  67.682  1.00  0.00    -0.183 C  
HETATM   13  C   UNL     1      -8.958   9.149  66.263  1.00  0.00    -0.194 C  
HETATM   14  C   UNL     1      -9.523  10.195  65.319  1.00  0.00    -0.306 C  
ENDBRANCH   5   6
ENDBRANCH   2   4
BRANCH   3  15
HETATM   15  C   UNL     1     -10.397   7.619  72.085  1.00  0.00    -0.270 C  
HETATM   16  C   UNL     1      -9.112   7.954  72.279  1.00  0.00    -0.217 C  
BRANCH  16  17
HETATM   17  C   UNL     1      -8.018   7.077  71.874  1.00  0.00    -0.098 C  
HETATM   18  C   UNL     1      -7.227   5.160  70.464  1.00  0.00    -0.061 C  
HETATM   19  O   UNL     1      -6.072   5.097  70.844  1.00  0.00    -0.020 OA 
HETATM   20  C   UNL     1      -8.238   6.129  70.938  1.00  0.00    -0.126 C  
HETATM   21  C   UNL     1      -6.697   7.322  72.552  1.00  0.00    -0.059 C  
HETATM   22  O   UNL     1      -7.741   4.318  69.542  1.00  0.00    -0.054 OA 
ENDBRANCH  16  17
ENDBRANCH   3  15
TORSDOF 4
ENDMDL
MODEL      143
REMARK 921   NORMALIZED FREE ENERGY PREDICTED BY IDOCK:   -4.04 KCAL/MOL
REMARK 922        TOTAL FREE ENERGY PREDICTED BY IDOCK:   -6.37 KCAL/MOL
REMARK 923 INTER-LIGAND FREE ENERGY PREDICTED BY IDOCK:   -5.77 KCAL/MOL
REMARK 924 INTRA-LIGAND FREE ENERGY PREDICTED BY IDOCK:   -0.60 KCAL/MOL
REMARK 927      BINDING AFFINITY PREDICTED BY RF-SCORE:    0.00 PKD
ROOT
HETATM    1  C   UNL     1     -12.321  13.834  70.407  1.00  0.00    -0.423 C  
HETATM    2  C   UNL     1     -11.523  14.550  69.352  1.00  0.00    -0.323 C  
HETATM    3  C   UNL     1     -11.264  15.870  69.475  1.00  0.00    -0.325 C  
ENDROOT
BRANCH   2   4
HETATM    4  C   UNL     1     -11.015  13.746  68.248  1.00  0.00    -0.269 C  
HETATM    5  C   UNL     1      -9.982  12.891  68.323  1.00  0.00    -0.234 C  
BRANCH   5   6
HETATM    6  C   UNL     1      -9.529  12.016  67.231  1.00  0.00    -0.181 C  
HETATM    7  C   UNL     1     -11.659  11.777  65.849  1.00  0.00    -0.200 C  
HETATM    8  C   UNL     1      -8.239  12.048  66.841  1.00  0.00    -0.146 C  
HETATM    9  C   UNL     1      -7.659  11.138  65.795  1.00  0.00     0.147 C  
HETATM   10  C   UNL     1      -7.192  12.993  67.397  1.00  0.00    -0.123 C  
HETATM   11  C   UNL     1     -11.254  10.248  67.792  1.00  0.00    -0.262 C  
HETATM   12  C   UNL     1     -10.561  11.026  66.641  1.00  0.00    -0.315 C  
HETATM   13  C   UNL     1      -9.970   9.944  65.688  1.00  0.00    -0.353 C  
HETATM   14  C   UNL     1      -8.564  10.115  65.140  1.00  0.00    -0.175 C  
ENDBRANCH   5   6
ENDBRANCH   2   4
BRANCH   3  15
HETATM   15  C   UNL     1     -10.553  16.671  68.503  1.00  0.00    -0.338 C  
HETATM   16  C   UNL     1     -10.259  17.974  68.636  1.00  0.00    -0.385 C  
BRANCH  16  17
HETATM   17  C   UNL     1      -9.598  18.727  67.574  1.00  0.00    -0.333 C  
HETATM   18  C   UNL     1      -7.784  20.319  66.895  1.00  0.00    -0.312 C  
HETATM   19  O   UNL     1      -8.040  20.419  65.709  1.00  0.00    -0.101 OA 
HETATM   20  C   UNL     1      -8.522  19.487  67.869  1.00  0.00    -0.353 C  
HETATM   21  C   UNL     1     -10.190  18.575  66.199  1.00  0.00    -0.424 C  
HETATM   22  O   UNL     1      -6.768  20.988  67.483  1.00  0.00    -0.340 OA 
ENDBRANCH  16  17
ENDBRANCH   3  15
TORSDOF 4
ENDMDL
MODEL      144
REMARK 921   NORMALIZED FREE ENERGY PREDICTED BY IDOCK:   -4.03 KCAL/MOL
REMARK 922        TOTAL FREE ENERGY PREDICTED BY IDOCK:   -6.36 KCAL/MOL
REMARK 923 INTER-LIGAND FREE ENERGY PREDICTED BY IDOCK:   -5.42 KCAL/MOL
REMARK 924 INTRA-LIGAND FREE ENERGY PREDICTED BY IDOCK:   -0.94 KCAL/MOL
REMARK 927      BINDING AFFINITY PREDICTED BY RF-SCORE:    0.00 PKD
ROOT
HETATM    1  C   UNL     1      -9.269   4.860  66.022  1.00  0.00    -0.151 C  
HETATM    2  C   UNL     1      -9.893   5.797  67.020  1.00  0.00    -0.171 C  
HETATM    3  C   UNL     1     -10.192   7.066  66.666  1.00  0.00    -0.218 C  
ENDROOT
BRANCH   2   4
HETATM    4  C   UNL     1     -10.197   5.252  68.336  1.00  0.00    -0.206 C  
HETATM    5  C   UNL     1      -9.584   5.600  69.479  1.00  0.00    -0.192 C  
BRANCH   5   6
HETATM    6  C   UNL     1      -9.954   5.114  70.818  1.00  0.00    -0.285 C  
HETATM    7  C   UNL     1      -7.671   4.570  71.816  1.00  0.00    -0.091 C  
HETATM    8  C   UNL     1     -11.074   5.578  71.409  1.00  0.00    -0.151 C  
HETATM    9  C   UNL     1     -11.584   5.086  72.735  1.00  0.00    -0.200 C  
HETATM   10  C   UNL     1     -11.978   6.647  70.830  1.00  0.00    -0.412 C  
HETATM   11  C   UNL     1      -8.861   2.864  70.420  1.00  0.00    -0.146 C  
HETATM   12  C   UNL     1      -9.067   4.013  71.444  1.00  0.00    -0.174 C  
HETATM   13  C   UNL     1      -9.648   3.344  72.726  1.00  0.00    -0.179 C  
HETATM   14  C   UNL     1     -10.808   4.001  73.454  1.00  0.00    -0.326 C  
ENDBRANCH   5   6
ENDBRANCH   2   4
BRANCH   3  15
HETATM   15  C   UNL     1     -10.746   8.066  67.552  1.00  0.00    -0.238 C  
HETATM   16  C   UNL     1     -10.579   9.392  67.428  1.00  0.00    -0.326 C  
BRANCH  16  17
HETATM   17  C   UNL     1     -11.115  10.331  68.408  1.00  0.00    -0.302 C  
HETATM   18  C   UNL     1     -11.981  10.738  70.725  1.00  0.00    -0.362 C  
HETATM   19  O   UNL     1     -12.256  11.920  70.631  1.00  0.00    -0.371 OA 
HETATM   20  C   UNL     1     -11.406   9.899  69.653  1.00  0.00    -0.212 C  
HETATM   21  C   UNL     1     -11.293  11.746  67.929  1.00  0.00    -0.362 C  
HETATM   22  O   UNL     1     -12.187  10.027  71.856  1.00  0.00    -0.351 OA 
ENDBRANCH  16  17
ENDBRANCH   3  15
TORSDOF 4
ENDMDL
MODEL      145
REMARK 921   NORMALIZED FREE ENERGY PREDICTED BY IDOCK:   -4.02 KCAL/MOL
REMARK 922        TOTAL FREE ENERGY PREDICTED BY IDOCK:   -6.35 KCAL/MOL
REMARK 923 INTER-LIGAND FREE ENERGY PREDICTED BY IDOCK:   -5.23 KCAL/MOL
REMARK 924 INTRA-LIGAND FREE ENERGY PREDICTED BY IDOCK:   -1.12 KCAL/MOL
REMARK 927      BINDING AFFINITY PREDICTED BY RF-SCORE:    0.00 PKD
ROOT
HETATM    1  C   UNL     1      -9.947  21.058  67.810  1.00  0.00     0.026 C  
HETATM    2  C   UNL     1     -10.088  19.563  67.717  1.00  0.00    -0.532 C  
HETATM    3  C   UNL     1     -10.985  19.016  66.867  1.00  0.00    -0.258 C  
ENDROOT
BRANCH   2   4
HETATM    4  C   UNL     1      -9.186  18.763  68.535  1.00  0.00    -0.386 C  
HETATM    5  C   UNL     1      -8.129  18.074  68.076  1.00  0.00    -0.259 C  
BRANCH   5   6
HETATM    6  C   UNL     1      -7.169  17.340  68.916  1.00  0.00    -0.243 C  
HETATM    7  C   UNL     1      -7.071  15.084  67.733  1.00  0.00    -0.189 C  
HETATM    8  C   UNL     1      -6.209  18.018  69.579  1.00  0.00    -0.237 C  
HETATM    9  C   UNL     1      -5.235  17.374  70.526  1.00  0.00    -0.263 C  
HETATM   10  C   UNL     1      -5.977  19.511  69.473  1.00  0.00    -0.302 C  
HETATM   11  C   UNL     1      -8.854  15.522  69.438  1.00  0.00    -0.257 C  
HETATM   12  C   UNL     1      -7.376  15.816  69.063  1.00  0.00    -0.177 C  
HETATM   13  C   UNL     1      -6.512  15.133  70.167  1.00  0.00    -0.115 C  
HETATM   14  C   UNL     1      -5.333  15.881  70.764  1.00  0.00    -0.126 C  
ENDBRANCH   5   6
ENDBRANCH   2   4
BRANCH   3  15
HETATM   15  C   UNL     1     -11.241  17.599  66.731  1.00  0.00     0.634 C  
HETATM   16  C   UNL     1     -10.788  16.821  65.735  1.00  0.00    -0.088 C  
BRANCH  16  17
HETATM   17  C   UNL     1     -11.152  15.411  65.634  1.00  0.00    -0.272 C  
HETATM   18  C   UNL     1     -12.133  13.551  64.269  1.00  0.00    -0.431 C  
HETATM   19  O   UNL     1     -12.054  12.646  65.080  1.00  0.00    -0.394 OA 
HETATM   20  C   UNL     1     -11.693  14.945  64.489  1.00  0.00    -0.388 C  
HETATM   21  C   UNL     1     -10.871  14.574  66.853  1.00  0.00    -0.305 C  
HETATM   22  O   UNL     1     -12.657  13.384  63.035  1.00  0.00    -0.669 OA 
ENDBRANCH  16  17
ENDBRANCH   3  15
TORSDOF 4
ENDMDL
MODEL      146
REMARK 921   NORMALIZED FREE ENERGY PREDICTED BY IDOCK:   -4.01 KCAL/MOL
REMARK 922        TOTAL FREE ENERGY PREDICTED BY IDOCK:   -6.35 KCAL/MOL
REMARK 923 INTER-LIGAND FREE ENERGY PREDICTED BY IDOCK:   -4.66 KCAL/MOL
REMARK 924 INTRA-LIGAND FREE ENERGY PREDICTED BY IDOCK:   -1.69 KCAL/MOL
REMARK 927      BINDING AFFINITY PREDICTED BY RF-SCORE:    0.00 PKD
ROOT
HETATM    1  C   UNL     1     -10.574  11.346  66.385  1.00  0.00    -0.311 C  
HETATM    2  C   UNL     1      -9.918  10.024  66.673  1.00  0.00    -0.274 C  
HETATM    3  C   UNL     1      -9.306   9.339  65.682  1.00  0.00    -0.308 C  
ENDROOT
BRANCH   2   4
HETATM    4  C   UNL     1      -9.934   9.565  68.055  1.00  0.00    -0.198 C  
HETATM    5  C   UNL     1     -10.899   8.816  68.612  1.00  0.00    -0.018 C  
BRANCH   5   6
HETATM    6  C   UNL     1     -10.868   8.280  69.982  1.00  0.00    -0.232 C  
HETATM    7  C   UNL     1      -8.788   6.806  69.909  1.00  0.00    -0.141 C  
HETATM    8  C   UNL     1     -11.384   9.007  70.995  1.00  0.00    -0.362 C  
HETATM    9  C   UNL     1     -11.476   8.516  72.413  1.00  0.00    -0.419 C  
HETATM   10  C   UNL     1     -11.946  10.407  70.854  1.00  0.00    -0.478 C  
HETATM   11  C   UNL     1     -10.996   5.888  69.162  1.00  0.00    -0.382 C  
HETATM   12  C   UNL     1     -10.314   6.850  70.172  1.00  0.00    -0.218 C  
HETATM   13  C   UNL     1     -10.551   6.229  71.581  1.00  0.00    -0.271 C  
HETATM   14  C   UNL     1     -10.971   7.124  72.733  1.00  0.00    -0.346 C  
ENDBRANCH   5   6
ENDBRANCH   2   4
BRANCH   3  15
HETATM   15  C   UNL     1      -8.688   8.039  65.830  1.00  0.00    -0.175 C  
HETATM   16  C   UNL     1      -9.346   6.878  65.963  1.00  0.00    -0.026 C  
BRANCH  16  17
HETATM   17  C   UNL     1      -8.645   5.615  66.178  1.00  0.00    -0.132 C  
HETATM   18  C   UNL     1      -6.556   4.427  66.892  1.00  0.00    -0.046 C  
HETATM   19  O   UNL     1      -6.903   3.277  66.692  1.00  0.00    -0.051 OA 
HETATM   20  C   UNL     1      -7.384   5.629  66.660  1.00  0.00    -0.083 C  
HETATM   21  C   UNL     1      -9.421   4.371  65.841  1.00  0.00    -0.174 C  
HETATM   22  O   UNL     1      -5.329   4.751  67.355  1.00  0.00    -0.011 OA 
ENDBRANCH  16  17
ENDBRANCH   3  15
TORSDOF 4
ENDMDL
MODEL      147
REMARK 921   NORMALIZED FREE ENERGY PREDICTED BY IDOCK:   -4.00 KCAL/MOL
REMARK 922        TOTAL FREE ENERGY PREDICTED BY IDOCK:   -6.33 KCAL/MOL
REMARK 923 INTER-LIGAND FREE ENERGY PREDICTED BY IDOCK:   -5.55 KCAL/MOL
REMARK 924 INTRA-LIGAND FREE ENERGY PREDICTED BY IDOCK:   -0.78 KCAL/MOL
REMARK 927      BINDING AFFINITY PREDICTED BY RF-SCORE:    0.00 PKD
ROOT
HETATM    1  C   UNL     1      -9.549  10.386  63.334  1.00  0.00    -0.361 C  
HETATM    2  C   UNL     1      -9.625  10.006  64.787  1.00  0.00    -0.374 C  
HETATM    3  C   UNL     1      -9.196   8.791  65.196  1.00  0.00    -0.029 C  
ENDROOT
BRANCH   2   4
HETATM    4  C   UNL     1     -10.123  11.018  65.710  1.00  0.00    -0.305 C  
HETATM    5  C   UNL     1      -9.697  12.290  65.768  1.00  0.00    -0.228 C  
BRANCH   5   6
HETATM    6  C   UNL     1     -10.265  13.332  66.639  1.00  0.00    -0.265 C  
HETATM    7  C   UNL     1      -8.195  14.706  67.211  1.00  0.00    -0.235 C  
HETATM    8  C   UNL     1     -11.546  13.718  66.468  1.00  0.00    -0.386 C  
HETATM    9  C   UNL     1     -12.244  14.711  67.355  1.00  0.00    -0.087 C  
HETATM   10  C   UNL     1     -12.463  13.210  65.374  1.00  0.00    -0.535 C  
HETATM   11  C   UNL     1      -8.764  12.682  68.572  1.00  0.00    -0.048 C  
HETATM   12  C   UNL     1      -9.369  13.870  67.777  1.00  0.00    -0.204 C  
HETATM   13  C   UNL     1     -10.097  14.761  68.828  1.00  0.00    -0.237 C  
HETATM   14  C   UNL     1     -11.477  15.312  68.516  1.00  0.00    -0.355 C  
ENDBRANCH   5   6
ENDBRANCH   2   4
BRANCH   3  15
HETATM   15  C   UNL     1      -9.266   8.300  66.555  1.00  0.00    -0.236 C  
HETATM   16  C   UNL     1     -10.257   7.547  67.057  1.00  0.00    -0.368 C  
BRANCH  16  17
HETATM   17  C   UNL     1     -10.286   7.150  68.462  1.00  0.00    -0.203 C  
HETATM   18  C   UNL     1     -10.160   5.317  70.167  1.00  0.00    -0.263 C  
HETATM   19  O   UNL     1     -10.335   5.972  71.178  1.00  0.00    -0.200 OA 
HETATM   20  C   UNL     1     -10.120   5.851  68.790  1.00  0.00    -0.220 C  
HETATM   21  C   UNL     1     -10.496   8.264  69.452  1.00  0.00    -0.224 C  
HETATM   22  O   UNL     1      -9.986   3.977  70.184  1.00  0.00    -0.188 OA 
ENDBRANCH  16  17
ENDBRANCH   3  15
TORSDOF 4
ENDMDL
MODEL      148
REMARK 921   NORMALIZED FREE ENERGY PREDICTED BY IDOCK:   -3.98 KCAL/MOL
REMARK 922        TOTAL FREE ENERGY PREDICTED BY IDOCK:   -6.30 KCAL/MOL
REMARK 923 INTER-LIGAND FREE ENERGY PREDICTED BY IDOCK:   -5.24 KCAL/MOL
REMARK 924 INTRA-LIGAND FREE ENERGY PREDICTED BY IDOCK:   -1.06 KCAL/MOL
REMARK 927      BINDING AFFINITY PREDICTED BY RF-SCORE:    0.00 PKD
ROOT
HETATM    1  C   UNL     1     -12.291   7.234  71.958  1.00  0.00    -0.298 C  
HETATM    2  C   UNL     1     -11.623   8.244  71.067  1.00  0.00    -0.301 C  
HETATM    3  C   UNL     1     -11.967   9.549  71.141  1.00  0.00    -0.429 C  
ENDROOT
BRANCH   2   4
HETATM    4  C   UNL     1     -10.574   7.754  70.182  1.00  0.00    -0.237 C  
HETATM    5  C   UNL     1     -10.700   6.729  69.324  1.00  0.00    -0.288 C  
BRANCH   5   6
HETATM    6  C   UNL     1      -9.667   6.296  68.369  1.00  0.00    -0.130 C  
HETATM    7  C   UNL     1      -9.591   3.784  68.803  1.00  0.00    -0.172 C  
HETATM    8  C   UNL     1      -9.483   6.987  67.226  1.00  0.00    -0.165 C  
HETATM    9  C   UNL     1      -8.403   6.677  66.227  1.00  0.00    -0.125 C  
HETATM   10  C   UNL     1     -10.324   8.168  66.786  1.00  0.00    -0.361 C  
HETATM   11  C   UNL     1      -8.218   5.336  70.211  1.00  0.00    -0.095 C  
HETATM   12  C   UNL     1      -8.777   5.101  68.782  1.00  0.00    -0.092 C  
HETATM   13  C   UNL     1      -7.535   4.855  67.872  1.00  0.00    -0.078 C  
HETATM   14  C   UNL     1      -7.456   5.530  66.515  1.00  0.00    -0.087 C  
ENDBRANCH   5   6
ENDBRANCH   2   4
BRANCH   3  15
HETATM   15  C   UNL     1     -11.430  10.597  70.302  1.00  0.00    -0.422 C  
HETATM   16  C   UNL     1     -11.905  10.946  69.095  1.00  0.00    -0.389 C  
BRANCH  16  17
HETATM   17  C   UNL     1     -11.260  11.972  68.281  1.00  0.00    -0.315 C  
HETATM   18  C   UNL     1     -10.799  12.914  66.004  1.00  0.00    -0.279 C  
HETATM   19  O   UNL     1     -10.076  13.842  66.315  1.00  0.00    -0.283 OA 
HETATM   20  C   UNL     1     -11.421  11.955  66.941  1.00  0.00    -0.390 C  
HETATM   21  C   UNL     1     -10.456  12.995  69.035  1.00  0.00    -0.023 C  
HETATM   22  O   UNL     1     -11.120  12.635  64.721  1.00  0.00    -0.283 OA 
ENDBRANCH  16  17
ENDBRANCH   3  15
TORSDOF 4
ENDMDL
MODEL      149
REMARK 921   NORMALIZED FREE ENERGY PREDICTED BY IDOCK:   -3.97 KCAL/MOL
REMARK 922        TOTAL FREE ENERGY PREDICTED BY IDOCK:   -6.30 KCAL/MOL
REMARK 923 INTER-LIGAND FREE ENERGY PREDICTED BY IDOCK:   -5.14 KCAL/MOL
REMARK 924 INTRA-LIGAND FREE ENERGY PREDICTED BY IDOCK:   -1.16 KCAL/MOL
REMARK 927      BINDING AFFINITY PREDICTED BY RF-SCORE:    0.00 PKD
ROOT
HETATM    1  C   UNL     1     -11.263   9.551  71.664  1.00  0.00    -0.378 C  
HETATM    2  C   UNL     1     -10.578   8.556  70.768  1.00  0.00    -0.244 C  
HETATM    3  C   UNL     1     -10.475   7.262  71.142  1.00  0.00    -0.221 C  
ENDROOT
BRANCH   2   4
HETATM    4  C   UNL     1     -10.095   9.047  69.484  1.00  0.00    -0.199 C  
HETATM    5  C   UNL     1     -10.862   9.575  68.517  1.00  0.00    -0.175 C  
BRANCH   5   6
HETATM    6  C   UNL     1     -10.359  10.151  67.260  1.00  0.00    -0.291 C  
HETATM    7  C   UNL     1      -9.424  12.386  68.058  1.00  0.00    -0.208 C  
HETATM    8  C   UNL     1      -9.937   9.334  66.274  1.00  0.00    -0.357 C  
HETATM    9  C   UNL     1      -9.485   9.818  64.924  1.00  0.00    -0.331 C  
HETATM   10  C   UNL     1      -9.862   7.824  66.376  1.00  0.00    -0.198 C  
HETATM   11  C   UNL     1     -11.852  12.186  67.473  1.00  0.00    -0.307 C  
HETATM   12  C   UNL     1     -10.427  11.688  67.107  1.00  0.00    -0.252 C  
HETATM   13  C   UNL     1     -10.143  12.224  65.671  1.00  0.00    -0.275 C  
HETATM   14  C   UNL     1      -9.508  11.306  64.641  1.00  0.00    -0.215 C  
ENDBRANCH   5   6
ENDBRANCH   2   4
BRANCH   3  15
HETATM   15  C   UNL     1      -9.796   6.231  70.388  1.00  0.00    -0.207 C  
HETATM   16  C   UNL     1     -10.373   5.424  69.484  1.00  0.00    -0.350 C  
BRANCH  16  17
HETATM   17  C   UNL     1      -9.629   4.360  68.816  1.00  0.00    -0.224 C  
HETATM   18  C   UNL     1      -9.059   3.165  66.687  1.00  0.00    -0.162 C  
HETATM   19  O   UNL     1      -8.322   2.305  67.133  1.00  0.00    -0.079 OA 
HETATM   20  C   UNL     1      -9.732   4.217  67.477  1.00  0.00    -0.185 C  
HETATM   21  C   UNL     1      -8.779   3.497  69.708  1.00  0.00    -0.129 C  
HETATM   22  O   UNL     1      -9.368   3.256  65.375  1.00  0.00    -0.150 OA 
ENDBRANCH  16  17
ENDBRANCH   3  15
TORSDOF 4
ENDMDL
MODEL      150
REMARK 921   NORMALIZED FREE ENERGY PREDICTED BY IDOCK:   -3.96 KCAL/MOL
REMARK 922        TOTAL FREE ENERGY PREDICTED BY IDOCK:   -6.28 KCAL/MOL
REMARK 923 INTER-LIGAND FREE ENERGY PREDICTED BY IDOCK:   -4.83 KCAL/MOL
REMARK 924 INTRA-LIGAND FREE ENERGY PREDICTED BY IDOCK:   -1.45 KCAL/MOL
REMARK 927      BINDING AFFINITY PREDICTED BY RF-SCORE:    0.00 PKD
ROOT
HETATM    1  C   UNL     1      -7.632  15.524  69.161  1.00  0.00    -0.204 C  
HETATM    2  C   UNL     1      -7.934  14.144  68.646  1.00  0.00    -0.132 C  
HETATM    3  C   UNL     1      -7.150  13.101  68.996  1.00  0.00    -0.030 C  
ENDROOT
BRANCH   2   4
HETATM    4  C   UNL     1      -9.122  13.994  67.815  1.00  0.00    -0.192 C  
HETATM    5  C   UNL     1      -9.119  13.805  66.486  1.00  0.00    -0.149 C  
BRANCH   5   6
HETATM    6  C   UNL     1     -10.316  13.564  65.665  1.00  0.00    -0.303 C  
HETATM    7  C   UNL     1     -11.275  11.468  66.757  1.00  0.00    -0.350 C  
HETATM    8  C   UNL     1     -10.944  14.605  65.080  1.00  0.00    -0.415 C  
HETATM    9  C   UNL     1     -12.121  14.458  64.157  1.00  0.00    -0.405 C  
HETATM   10  C   UNL     1     -10.557  16.059  65.259  1.00  0.00    -0.424 C  
HETATM   11  C   UNL     1      -9.516  11.259  64.985  1.00  0.00    -0.237 C  
HETATM   12  C   UNL     1     -10.742  12.094  65.445  1.00  0.00    -0.323 C  
HETATM   13  C   UNL     1     -11.838  11.878  64.358  1.00  0.00    -0.336 C  
HETATM   14  C   UNL     1     -12.636  13.066  63.852  1.00  0.00    -0.290 C  
ENDBRANCH   5   6
ENDBRANCH   2   4
BRANCH   3  15
HETATM   15  C   UNL     1      -7.314  11.744  68.523  1.00  0.00    -0.103 C  
HETATM   16  C   UNL     1      -8.352  10.943  68.810  1.00  0.00    -0.151 C  
BRANCH  16  17
HETATM   17  C   UNL     1      -8.407   9.559  68.348  1.00  0.00    -0.118 C  
HETATM   18  C   UNL     1      -9.416   7.274  68.563  1.00  0.00    -0.140 C  
HETATM   19  O   UNL     1      -8.767   6.689  67.714  1.00  0.00    -0.117 OA 
HETATM   20  C   UNL     1      -9.283   8.703  68.916  1.00  0.00    -0.145 C  
HETATM   21  C   UNL     1      -7.457   9.202  67.236  1.00  0.00    -0.088 C  
HETATM   22  O   UNL     1     -10.358   6.662  69.314  1.00  0.00    -0.180 OA 
ENDBRANCH  16  17
ENDBRANCH   3  15
TORSDOF 4
ENDMDL
MODEL      151
REMARK 921   NORMALIZED FREE ENERGY PREDICTED BY IDOCK:   -3.95 KCAL/MOL
REMARK 922        TOTAL FREE ENERGY PREDICTED BY IDOCK:   -6.27 KCAL/MOL
REMARK 923 INTER-LIGAND FREE ENERGY PREDICTED BY IDOCK:   -5.00 KCAL/MOL
REMARK 924 INTRA-LIGAND FREE ENERGY PREDICTED BY IDOCK:   -1.27 KCAL/MOL
REMARK 927      BINDING AFFINITY PREDICTED BY RF-SCORE:    0.00 PKD
ROOT
HETATM    1  C   UNL     1      -5.910   6.158  69.697  1.00  0.00    -0.017 C  
HETATM    2  C   UNL     1      -7.302   6.727  69.695  1.00  0.00    -0.087 C  
HETATM    3  C   UNL     1      -8.205   6.320  70.613  1.00  0.00    -0.125 C  
ENDROOT
BRANCH   2   4
HETATM    4  C   UNL     1      -7.593   7.756  68.705  1.00  0.00    -0.105 C  
HETATM    5  C   UNL     1      -8.519   7.661  67.737  1.00  0.00    -0.122 C  
BRANCH   5   6
HETATM    6  C   UNL     1      -8.872   8.737  66.797  1.00  0.00    -0.147 C  
HETATM    7  C   UNL     1      -8.999  10.755  68.350  1.00  0.00    -0.153 C  
HETATM    8  C   UNL     1      -8.477   8.653  65.510  1.00  0.00    -0.181 C  
HETATM    9  C   UNL     1      -8.855   9.654  64.454  1.00  0.00    -0.263 C  
HETATM   10  C   UNL     1      -7.610   7.547  64.942  1.00  0.00    -0.100 C  
HETATM   11  C   UNL     1     -11.002   9.281  68.053  1.00  0.00    -0.076 C  
HETATM   12  C   UNL     1      -9.766   9.879  67.329  1.00  0.00    -0.213 C  
HETATM   13  C   UNL     1     -10.332  10.840  66.240  1.00  0.00    -0.303 C  
HETATM   14  C   UNL     1      -9.736  10.823  64.844  1.00  0.00    -0.330 C  
ENDBRANCH   5   6
ENDBRANCH   2   4
BRANCH   3  15
HETATM   15  C   UNL     1      -9.582   6.759  70.676  1.00  0.00    -0.174 C  
HETATM   16  C   UNL     1     -10.029   7.814  71.375  1.00  0.00    -0.207 C  
BRANCH  16  17
HETATM   17  C   UNL     1     -11.448   8.149  71.440  1.00  0.00    -0.301 C  
HETATM   18  C   UNL     1     -13.218   9.887  71.807  1.00  0.00    -0.434 C  
HETATM   19  O   UNL     1     -14.209   9.189  71.693  1.00  0.00    -0.277 OA 
HETATM   20  C   UNL     1     -11.820   9.424  71.685  1.00  0.00    -0.464 C  
HETATM   21  C   UNL     1     -12.401   7.007  71.212  1.00  0.00    -0.426 C  
HETATM   22  O   UNL     1     -13.282  11.209  72.077  1.00  0.00    -0.493 OA 
ENDBRANCH  16  17
ENDBRANCH   3  15
TORSDOF 4
ENDMDL
MODEL      152
REMARK 921   NORMALIZED FREE ENERGY PREDICTED BY IDOCK:   -3.92 KCAL/MOL
REMARK 922        TOTAL FREE ENERGY PREDICTED BY IDOCK:   -6.24 KCAL/MOL
REMARK 923 INTER-LIGAND FREE ENERGY PREDICTED BY IDOCK:   -4.86 KCAL/MOL
REMARK 924 INTRA-LIGAND FREE ENERGY PREDICTED BY IDOCK:   -1.37 KCAL/MOL
REMARK 927      BINDING AFFINITY PREDICTED BY RF-SCORE:    0.00 PKD
ROOT
HETATM    1  C   UNL     1      -8.549  19.167  66.556  1.00  0.00    -0.330 C  
HETATM    2  C   UNL     1      -8.184  17.834  67.148  1.00  0.00    -0.233 C  
HETATM    3  C   UNL     1      -6.981  17.658  67.738  1.00  0.00    -0.187 C  
ENDROOT
BRANCH   2   4
HETATM    4  C   UNL     1      -9.198  16.789  67.099  1.00  0.00    -0.233 C  
HETATM    5  C   UNL     1      -9.324  15.876  66.122  1.00  0.00    -0.385 C  
BRANCH   5   6
HETATM    6  C   UNL     1     -10.292  14.768  66.121  1.00  0.00    -0.314 C  
HETATM    7  C   UNL     1     -10.144  13.955  68.534  1.00  0.00    -0.234 C  
HETATM    8  C   UNL     1     -11.344  14.803  65.277  1.00  0.00    -0.363 C  
HETATM    9  C   UNL     1     -12.341  13.686  65.139  1.00  0.00    -0.486 C  
HETATM   10  C   UNL     1     -11.670  15.956  64.350  1.00  0.00    -0.179 C  
HETATM   11  C   UNL     1      -8.531  13.089  66.824  1.00  0.00    -0.009 C  
HETATM   12  C   UNL     1      -9.993  13.564  67.043  1.00  0.00    -0.247 C  
HETATM   13  C   UNL     1     -10.889  12.311  66.808  1.00  0.00    -0.291 C  
HETATM   14  C   UNL     1     -12.159  12.442  65.985  1.00  0.00    -0.327 C  
ENDBRANCH   5   6
ENDBRANCH   2   4
BRANCH   3  15
HETATM   15  C   UNL     1      -6.504  16.412  68.295  1.00  0.00    -0.133 C  
HETATM   16  C   UNL     1      -6.684  16.009  69.563  1.00  0.00    -0.199 C  
BRANCH  16  17
HETATM   17  C   UNL     1      -6.108  14.764  70.065  1.00  0.00    -0.150 C  
HETATM   18  C   UNL     1      -5.939  12.269  69.896  1.00  0.00    -0.148 C  
HETATM   19  O   UNL     1      -5.185  12.057  70.828  1.00  0.00    -0.117 OA 
HETATM   20  C   UNL     1      -6.427  13.596  69.467  1.00  0.00    -0.099 C  
HETATM   21  C   UNL     1      -5.173  14.902  71.235  1.00  0.00    -0.134 C  
HETATM   22  O   UNL     1      -6.444  11.281  69.125  1.00  0.00    -0.065 OA 
ENDBRANCH  16  17
ENDBRANCH   3  15
TORSDOF 4
ENDMDL
MODEL      153
REMARK 921   NORMALIZED FREE ENERGY PREDICTED BY IDOCK:   -3.90 KCAL/MOL
REMARK 922        TOTAL FREE ENERGY PREDICTED BY IDOCK:   -6.21 KCAL/MOL
REMARK 923 INTER-LIGAND FREE ENERGY PREDICTED BY IDOCK:   -5.04 KCAL/MOL
REMARK 924 INTRA-LIGAND FREE ENERGY PREDICTED BY IDOCK:   -1.17 KCAL/MOL
REMARK 927      BINDING AFFINITY PREDICTED BY RF-SCORE:    0.00 PKD
ROOT
HETATM    1  C   UNL     1     -11.611   9.392  71.699  1.00  0.00    -0.466 C  
HETATM    2  C   UNL     1     -11.368   9.548  70.223  1.00  0.00    -0.284 C  
HETATM    3  C   UNL     1     -11.731  10.686  69.591  1.00  0.00    -0.368 C  
ENDROOT
BRANCH   2   4
HETATM    4  C   UNL     1     -10.689   8.452  69.546  1.00  0.00    -0.181 C  
HETATM    5  C   UNL     1      -9.361   8.352  69.372  1.00  0.00    -0.154 C  
BRANCH   5   6
HETATM    6  C   UNL     1      -8.673   7.200  68.768  1.00  0.00    -0.124 C  
HETATM    7  C   UNL     1      -7.137   8.347  67.085  1.00  0.00    -0.079 C  
HETATM    8  C   UNL     1      -8.485   6.079  69.494  1.00  0.00    -0.119 C  
HETATM    9  C   UNL     1      -7.869   4.822  68.945  1.00  0.00    -0.076 C  
HETATM   10  C   UNL     1      -8.867   5.919  70.951  1.00  0.00    -0.141 C  
HETATM   11  C   UNL     1      -9.496   7.793  66.447  1.00  0.00    -0.245 C  
HETATM   12  C   UNL     1      -8.275   7.314  67.278  1.00  0.00    -0.115 C  
HETATM   13  C   UNL     1      -7.801   5.985  66.616  1.00  0.00    -0.101 C  
HETATM   14  C   UNL     1      -7.439   4.799  67.492  1.00  0.00    -0.079 C  
ENDBRANCH   5   6
ENDBRANCH   2   4
BRANCH   3  15
HETATM   15  C   UNL     1     -11.593  10.927  68.171  1.00  0.00    -0.317 C  
HETATM   16  C   UNL     1     -10.749  11.808  67.612  1.00  0.00    -0.254 C  
BRANCH  16  17
HETATM   17  C   UNL     1     -10.722  12.040  66.171  1.00  0.00    -0.312 C  
HETATM   18  C   UNL     1     -10.212  11.169  63.876  1.00  0.00    -0.362 C  
HETATM   19  O   UNL     1     -10.487  12.157  63.222  1.00  0.00    -0.432 OA 
HETATM   20  C   UNL     1     -10.315  11.052  65.346  1.00  0.00    -0.330 C  
HETATM   21  C   UNL     1     -11.173  13.403  65.719  1.00  0.00    -0.305 C  
HETATM   22  O   UNL     1      -9.754  10.026  63.319  1.00  0.00    -0.197 OA 
ENDBRANCH  16  17
ENDBRANCH   3  15
TORSDOF 4
ENDMDL
MODEL      154
REMARK 921   NORMALIZED FREE ENERGY PREDICTED BY IDOCK:   -3.88 KCAL/MOL
REMARK 922        TOTAL FREE ENERGY PREDICTED BY IDOCK:   -6.19 KCAL/MOL
REMARK 923 INTER-LIGAND FREE ENERGY PREDICTED BY IDOCK:   -5.31 KCAL/MOL
REMARK 924 INTRA-LIGAND FREE ENERGY PREDICTED BY IDOCK:   -0.88 KCAL/MOL
REMARK 927      BINDING AFFINITY PREDICTED BY RF-SCORE:    0.00 PKD
ROOT
HETATM    1  C   UNL     1     -11.009  12.166  63.797  1.00  0.00    -0.494 C  
HETATM    2  C   UNL     1     -10.693  11.735  65.202  1.00  0.00    -0.343 C  
HETATM    3  C   UNL     1     -10.083  10.551  65.430  1.00  0.00    -0.358 C  
ENDROOT
BRANCH   2   4
HETATM    4  C   UNL     1     -11.026  12.669  66.270  1.00  0.00    -0.314 C  
HETATM    5  C   UNL     1     -10.151  13.186  67.148  1.00  0.00    -0.242 C  
BRANCH   5   6
HETATM    6  C   UNL     1     -10.475  14.197  68.167  1.00  0.00    -0.244 C  
HETATM    7  C   UNL     1     -10.682  16.306  66.749  1.00  0.00    -0.204 C  
HETATM    8  C   UNL     1     -11.138  13.831  69.283  1.00  0.00    -0.253 C  
HETATM    9  C   UNL     1     -11.442  14.767  70.419  1.00  0.00    -0.303 C  
HETATM   10  C   UNL     1     -11.662  12.436  69.558  1.00  0.00    -0.388 C  
HETATM   11  C   UNL     1      -8.436  15.584  67.590  1.00  0.00    -0.177 C  
HETATM   12  C   UNL     1      -9.949  15.632  67.934  1.00  0.00    -0.223 C  
HETATM   13  C   UNL     1     -10.080  16.591  69.156  1.00  0.00    -0.287 C  
HETATM   14  C   UNL     1     -10.976  16.205  70.319  1.00  0.00    -0.345 C  
ENDBRANCH   5   6
ENDBRANCH   2   4
BRANCH   3  15
HETATM   15  C   UNL     1      -9.777  10.013  66.737  1.00  0.00    -0.239 C  
HETATM   16  C   UNL     1      -8.544   9.866  67.247  1.00  0.00    -0.125 C  
BRANCH  16  17
HETATM   17  C   UNL     1      -8.318   9.248  68.550  1.00  0.00    -0.119 C  
HETATM   18  C   UNL     1      -8.729   7.321  70.100  1.00  0.00    -0.140 C  
HETATM   19  O   UNL     1      -8.119   7.718  71.077  1.00  0.00    -0.095 OA 
HETATM   20  C   UNL     1      -8.855   8.039  68.814  1.00  0.00    -0.138 C  
HETATM   21  C   UNL     1      -7.469  10.038  69.510  1.00  0.00    -0.123 C  
HETATM   22  O   UNL     1      -9.391   6.144  70.080  1.00  0.00    -0.153 OA 
ENDBRANCH  16  17
ENDBRANCH   3  15
TORSDOF 4
ENDMDL
MODEL      155
REMARK 921   NORMALIZED FREE ENERGY PREDICTED BY IDOCK:   -3.87 KCAL/MOL
REMARK 922        TOTAL FREE ENERGY PREDICTED BY IDOCK:   -6.17 KCAL/MOL
REMARK 923 INTER-LIGAND FREE ENERGY PREDICTED BY IDOCK:   -5.09 KCAL/MOL
REMARK 924 INTRA-LIGAND FREE ENERGY PREDICTED BY IDOCK:   -1.08 KCAL/MOL
REMARK 927      BINDING AFFINITY PREDICTED BY RF-SCORE:    0.00 PKD
ROOT
HETATM    1  C   UNL     1     -12.263   7.224  71.974  1.00  0.00    -0.312 C  
HETATM    2  C   UNL     1     -11.538   8.237  71.131  1.00  0.00    -0.310 C  
HETATM    3  C   UNL     1     -11.928   9.531  71.139  1.00  0.00    -0.429 C  
ENDROOT
BRANCH   2   4
HETATM    4  C   UNL     1     -10.390   7.763  70.370  1.00  0.00    -0.212 C  
HETATM    5  C   UNL     1     -10.388   6.698  69.553  1.00  0.00    -0.232 C  
BRANCH   5   6
HETATM    6  C   UNL     1      -9.252   6.276  68.718  1.00  0.00    -0.125 C  
HETATM    7  C   UNL     1      -9.445   7.878  66.743  1.00  0.00    -0.257 C  
HETATM    8  C   UNL     1      -8.159   5.740  69.300  1.00  0.00    -0.101 C  
HETATM    9  C   UNL     1      -6.984   5.202  68.532  1.00  0.00    -0.057 C  
HETATM   10  C   UNL     1      -7.960   5.595  70.795  1.00  0.00    -0.112 C  
HETATM   11  C   UNL     1     -10.758   5.745  66.753  1.00  0.00    -0.369 C  
HETATM   12  C   UNL     1      -9.416   6.394  67.186  1.00  0.00    -0.145 C  
HETATM   13  C   UNL     1      -8.309   5.690  66.345  1.00  0.00    -0.112 C  
HETATM   14  C   UNL     1      -7.020   5.253  67.019  1.00  0.00    -0.065 C  
ENDBRANCH   5   6
ENDBRANCH   2   4
BRANCH   3  15
HETATM   15  C   UNL     1     -11.340  10.579  70.334  1.00  0.00    -0.411 C  
HETATM   16  C   UNL     1     -11.698  10.886  69.077  1.00  0.00    -0.391 C  
BRANCH  16  17
HETATM   17  C   UNL     1     -11.005  11.916  68.308  1.00  0.00    -0.273 C  
HETATM   18  C   UNL     1      -8.900  12.692  67.190  1.00  0.00    -0.204 C  
HETATM   19  O   UNL     1      -9.272  13.783  66.800  1.00  0.00    -0.246 OA 
HETATM   20  C   UNL     1      -9.721  11.719  67.940  1.00  0.00    -0.185 C  
HETATM   21  C   UNL     1     -11.814  13.140  67.977  1.00  0.00    -0.398 C  
HETATM   22  O   UNL     1      -7.647  12.230  66.985  1.00  0.00    -0.143 OA 
ENDBRANCH  16  17
ENDBRANCH   3  15
TORSDOF 4
ENDMDL
MODEL      156
REMARK 921   NORMALIZED FREE ENERGY PREDICTED BY IDOCK:   -3.85 KCAL/MOL
REMARK 922        TOTAL FREE ENERGY PREDICTED BY IDOCK:   -6.15 KCAL/MOL
REMARK 923 INTER-LIGAND FREE ENERGY PREDICTED BY IDOCK:   -5.02 KCAL/MOL
REMARK 924 INTRA-LIGAND FREE ENERGY PREDICTED BY IDOCK:   -1.13 KCAL/MOL
REMARK 927      BINDING AFFINITY PREDICTED BY RF-SCORE:    0.00 PKD
ROOT
HETATM    1  C   UNL     1      -6.331   5.484  68.979  1.00  0.00    -0.034 C  
HETATM    2  C   UNL     1      -7.511   6.396  69.178  1.00  0.00    -0.095 C  
HETATM    3  C   UNL     1      -8.281   6.279  70.283  1.00  0.00    -0.125 C  
ENDROOT
BRANCH   2   4
HETATM    4  C   UNL     1      -7.734   7.418  68.165  1.00  0.00    -0.120 C  
HETATM    5  C   UNL     1      -8.409   7.238  67.018  1.00  0.00    -0.118 C  
BRANCH   5   6
HETATM    6  C   UNL     1      -8.709   8.296  66.040  1.00  0.00    -0.181 C  
HETATM    7  C   UNL     1      -7.927   7.219  63.864  1.00  0.00    -0.078 C  
HETATM    8  C   UNL     1      -9.728   9.148  66.271  1.00  0.00    -0.344 C  
HETATM    9  C   UNL     1     -10.064  10.310  65.379  1.00  0.00    -0.354 C  
HETATM   10  C   UNL     1     -10.672   9.066  67.454  1.00  0.00    -0.231 C  
HETATM   11  C   UNL     1      -6.290   8.451  65.307  1.00  0.00    -0.052 C  
HETATM   12  C   UNL     1      -7.765   8.425  64.823  1.00  0.00    -0.109 C  
HETATM   13  C   UNL     1      -7.958   9.715  63.969  1.00  0.00    -0.140 C  
HETATM   14  C   UNL     1      -9.210  10.553  64.151  1.00  0.00    -0.283 C  
ENDBRANCH   5   6
ENDBRANCH   2   4
BRANCH   3  15
HETATM   15  C   UNL     1      -9.465   7.064  70.555  1.00  0.00    -0.166 C  
HETATM   16  C   UNL     1      -9.510   8.157  71.332  1.00  0.00    -0.211 C  
BRANCH  16  17
HETATM   17  C   UNL     1     -10.763   8.853  71.612  1.00  0.00    -0.418 C  
HETATM   18  C   UNL     1     -12.267  10.808  71.163  1.00  0.00    -0.352 C  
HETATM   19  O   UNL     1     -13.163  10.553  71.946  1.00  0.00    -0.446 OA 
HETATM   20  C   UNL     1     -11.052   9.994  70.951  1.00  0.00    -0.385 C  
HETATM   21  C   UNL     1     -11.653   8.208  72.639  1.00  0.00    -0.441 C  
HETATM   22  O   UNL     1     -12.272  11.906  70.377  1.00  0.00    -0.342 OA 
ENDBRANCH  16  17
ENDBRANCH   3  15
TORSDOF 4
ENDMDL
MODEL      157
REMARK 921   NORMALIZED FREE ENERGY PREDICTED BY IDOCK:   -3.83 KCAL/MOL
REMARK 922        TOTAL FREE ENERGY PREDICTED BY IDOCK:   -6.12 KCAL/MOL
REMARK 923 INTER-LIGAND FREE ENERGY PREDICTED BY IDOCK:   -5.00 KCAL/MOL
REMARK 924 INTRA-LIGAND FREE ENERGY PREDICTED BY IDOCK:   -1.11 KCAL/MOL
REMARK 927      BINDING AFFINITY PREDICTED BY RF-SCORE:    0.00 PKD
ROOT
HETATM    1  C   UNL     1     -12.208   7.089  72.189  1.00  0.00    -0.255 C  
HETATM    2  C   UNL     1     -11.584   8.275  71.507  1.00  0.00    -0.326 C  
HETATM    3  C   UNL     1     -12.206   9.475  71.526  1.00  0.00    -0.468 C  
ENDROOT
BRANCH   2   4
HETATM    4  C   UNL     1     -10.280   8.072  70.889  1.00  0.00    -0.213 C  
HETATM    5  C   UNL     1      -9.946   7.033  70.108  1.00  0.00    -0.189 C  
BRANCH   5   6
HETATM    6  C   UNL     1      -8.658   6.878  69.413  1.00  0.00    -0.133 C  
HETATM    7  C   UNL     1      -8.351   9.190  68.381  1.00  0.00    -0.120 C  
HETATM    8  C   UNL     1      -7.743   6.010  69.891  1.00  0.00    -0.092 C  
HETATM    9  C   UNL     1      -6.434   5.718  69.212  1.00  0.00    -0.046 C  
HETATM   10  C   UNL     1      -7.898   5.206  71.166  1.00  0.00    -0.101 C  
HETATM   11  C   UNL     1      -9.680   7.447  67.167  1.00  0.00    -0.223 C  
HETATM   12  C   UNL     1      -8.460   7.671  68.101  1.00  0.00    -0.124 C  
HETATM   13  C   UNL     1      -7.205   7.269  67.268  1.00  0.00    -0.093 C  
HETATM   14  C   UNL     1      -6.118   6.426  67.910  1.00  0.00    -0.027 C  
ENDBRANCH   5   6
ENDBRANCH   2   4
BRANCH   3  15
HETATM   15  C   UNL     1     -11.727  10.668  70.864  1.00  0.00    -0.387 C  
HETATM   16  C   UNL     1     -11.977  11.002  69.589  1.00  0.00    -0.424 C  
BRANCH  16  17
HETATM   17  C   UNL     1     -11.397  12.193  68.976  1.00  0.00    -0.329 C  
HETATM   18  C   UNL     1     -11.200  14.692  68.932  1.00  0.00    -0.267 C  
HETATM   19  O   UNL     1     -10.458  14.817  67.975  1.00  0.00    -0.241 OA 
HETATM   20  C   UNL     1     -11.694  13.411  69.477  1.00  0.00    -0.385 C  
HETATM   21  C   UNL     1     -10.480  11.948  67.808  1.00  0.00    -0.224 C  
HETATM   22  O   UNL     1     -11.684  15.747  69.624  1.00  0.00    -0.334 OA 
ENDBRANCH  16  17
ENDBRANCH   3  15
TORSDOF 4
ENDMDL
MODEL      158
REMARK 921   NORMALIZED FREE ENERGY PREDICTED BY IDOCK:   -3.80 KCAL/MOL
REMARK 922        TOTAL FREE ENERGY PREDICTED BY IDOCK:   -6.08 KCAL/MOL
REMARK 923 INTER-LIGAND FREE ENERGY PREDICTED BY IDOCK:   -4.46 KCAL/MOL
REMARK 924 INTRA-LIGAND FREE ENERGY PREDICTED BY IDOCK:   -1.63 KCAL/MOL
REMARK 927      BINDING AFFINITY PREDICTED BY RF-SCORE:    0.00 PKD
ROOT
HETATM    1  C   UNL     1      -6.760  14.400  68.986  1.00  0.00    -0.107 C  
HETATM    2  C   UNL     1      -7.524  13.147  68.656  1.00  0.00    -0.092 C  
HETATM    3  C   UNL     1      -7.073  11.945  69.077  1.00  0.00    -0.092 C  
ENDROOT
BRANCH   2   4
HETATM    4  C   UNL     1      -8.773  13.308  67.922  1.00  0.00    -0.192 C  
HETATM    5  C   UNL     1      -8.890  13.324  66.585  1.00  0.00    -0.072 C  
BRANCH   5   6
HETATM    6  C   UNL     1     -10.162  13.397  65.849  1.00  0.00    -0.302 C  
HETATM    7  C   UNL     1     -11.431  11.410  66.821  1.00  0.00    -0.157 C  
HETATM    8  C   UNL     1     -10.615  14.592  65.418  1.00  0.00    -0.385 C  
HETATM    9  C   UNL     1     -11.857  14.764  64.588  1.00  0.00    -0.442 C  
HETATM   10  C   UNL     1      -9.945  15.922  65.696  1.00  0.00    -0.368 C  
HETATM   11  C   UNL     1      -9.865  11.070  64.895  1.00  0.00    -0.327 C  
HETATM   12  C   UNL     1     -10.875  12.063  65.531  1.00  0.00    -0.336 C  
HETATM   13  C   UNL     1     -12.062  12.169  64.526  1.00  0.00    -0.416 C  
HETATM   14  C   UNL     1     -12.648  13.531  64.201  1.00  0.00    -0.188 C  
ENDBRANCH   5   6
ENDBRANCH   2   4
BRANCH   3  15
HETATM   15  C   UNL     1      -7.695  10.674  68.777  1.00  0.00    -0.117 C  
HETATM   16  C   UNL     1      -7.439   9.920  67.696  1.00  0.00    -0.090 C  
BRANCH  16  17
HETATM   17  C   UNL     1      -8.163   8.680  67.433  1.00  0.00    -0.105 C  
HETATM   18  C   UNL     1      -8.600   6.746  65.898  1.00  0.00    -0.147 C  
HETATM   19  O   UNL     1      -9.462   6.173  66.540  1.00  0.00    -0.150 OA 
HETATM   20  C   UNL     1      -7.915   7.994  66.297  1.00  0.00    -0.105 C  
HETATM   21  C   UNL     1      -9.147   8.260  68.491  1.00  0.00    -0.136 C  
HETATM   22  O   UNL     1      -8.162   6.300  64.701  1.00  0.00    -0.131 OA 
ENDBRANCH  16  17
ENDBRANCH   3  15
TORSDOF 4
ENDMDL
MODEL      159
REMARK 921   NORMALIZED FREE ENERGY PREDICTED BY IDOCK:   -3.79 KCAL/MOL
REMARK 922        TOTAL FREE ENERGY PREDICTED BY IDOCK:   -6.07 KCAL/MOL
REMARK 923 INTER-LIGAND FREE ENERGY PREDICTED BY IDOCK:   -5.22 KCAL/MOL
REMARK 924 INTRA-LIGAND FREE ENERGY PREDICTED BY IDOCK:   -0.85 KCAL/MOL
REMARK 927      BINDING AFFINITY PREDICTED BY RF-SCORE:    0.00 PKD
ROOT
HETATM    1  C   UNL     1     -12.025  14.027  68.698  1.00  0.00    -0.389 C  
HETATM    2  C   UNL     1     -11.134  13.261  67.759  1.00  0.00    -0.289 C  
HETATM    3  C   UNL     1     -11.500  12.035  67.324  1.00  0.00    -0.403 C  
ENDROOT
BRANCH   2   4
HETATM    4  C   UNL     1      -9.915  13.924  67.317  1.00  0.00    -0.242 C  
HETATM    5  C   UNL     1      -9.320  14.952  67.944  1.00  0.00    -0.191 C  
BRANCH   5   6
HETATM    6  C   UNL     1      -8.041  15.559  67.543  1.00  0.00    -0.185 C  
HETATM    7  C   UNL     1      -6.494  13.532  67.525  1.00  0.00    -0.113 C  
HETATM    8  C   UNL     1      -8.041  16.661  66.765  1.00  0.00    -0.281 C  
HETATM    9  C   UNL     1      -6.796  17.404  66.370  1.00  0.00    -0.310 C  
HETATM   10  C   UNL     1      -9.282  17.309  66.184  1.00  0.00    -0.193 C  
HETATM   11  C   UNL     1      -6.888  14.782  69.660  1.00  0.00    -0.173 C  
HETATM   12  C   UNL     1      -6.749  14.938  68.121  1.00  0.00    -0.136 C  
HETATM   13  C   UNL     1      -5.453  15.773  67.892  1.00  0.00    -0.148 C  
HETATM   14  C   UNL     1      -5.459  16.902  66.876  1.00  0.00    -0.182 C  
ENDBRANCH   5   6
ENDBRANCH   2   4
BRANCH   3  15
HETATM   15  C   UNL     1     -10.703  11.189  66.463  1.00  0.00    -0.314 C  
HETATM   16  C   UNL     1     -10.530  11.368  65.144  1.00  0.00    -0.351 C  
BRANCH  16  17
HETATM   17  C   UNL     1      -9.765  10.425  64.333  1.00  0.00    -0.396 C  
HETATM   18  C   UNL     1      -8.189   8.478  64.238  1.00  0.00    -0.145 C  
HETATM   19  O   UNL     1      -8.058   8.386  63.032  1.00  0.00    -0.161 OA 
HETATM   20  C   UNL     1      -9.030   9.469  64.941  1.00  0.00    -0.264 C  
HETATM   21  C   UNL     1      -9.875  10.604  62.843  1.00  0.00    -0.271 C  
HETATM   22  O   UNL     1      -7.551   7.663  65.107  1.00  0.00    -0.083 OA 
ENDBRANCH  16  17
ENDBRANCH   3  15
TORSDOF 4
ENDMDL
MODEL      160
REMARK 921   NORMALIZED FREE ENERGY PREDICTED BY IDOCK:   -3.77 KCAL/MOL
REMARK 922        TOTAL FREE ENERGY PREDICTED BY IDOCK:   -6.05 KCAL/MOL
REMARK 923 INTER-LIGAND FREE ENERGY PREDICTED BY IDOCK:   -5.62 KCAL/MOL
REMARK 924 INTRA-LIGAND FREE ENERGY PREDICTED BY IDOCK:   -0.43 KCAL/MOL
REMARK 927      BINDING AFFINITY PREDICTED BY RF-SCORE:    0.00 PKD
ROOT
HETATM    1  C   UNL     1      -6.941  16.211  69.072  1.00  0.00    -0.178 C  
HETATM    2  C   UNL     1      -7.856  15.363  68.232  1.00  0.00    -0.123 C  
HETATM    3  C   UNL     1      -8.177  15.746  66.977  1.00  0.00    -0.262 C  
ENDROOT
BRANCH   2   4
HETATM    4  C   UNL     1      -8.319  14.111  68.817  1.00  0.00    -0.069 C  
HETATM    5  C   UNL     1      -9.015  13.163  68.170  1.00  0.00    -0.195 C  
BRANCH   5   6
HETATM    6  C   UNL     1      -9.402  11.863  68.738  1.00  0.00     0.013 C  
HETATM    7  C   UNL     1     -11.545  11.357  67.451  1.00  0.00    -0.266 C  
HETATM    8  C   UNL     1      -8.450  11.029  69.204  1.00  0.00    -0.022 C  
HETATM    9  C   UNL     1      -8.745   9.717  69.878  1.00  0.00    -0.238 C  
HETATM   10  C   UNL     1      -6.959  11.289  69.125  1.00  0.00    -0.114 C  
HETATM   11  C   UNL     1     -11.637  12.754  69.529  1.00  0.00    -0.342 C  
HETATM   12  C   UNL     1     -10.914  11.559  68.851  1.00  0.00    -0.279 C  
HETATM   13  C   UNL     1     -11.276  10.303  69.699  1.00  0.00    -0.322 C  
HETATM   14  C   UNL     1     -10.191   9.302  70.057  1.00  0.00    -0.244 C  
ENDBRANCH   5   6
ENDBRANCH   2   4
BRANCH   3  15
HETATM   15  C   UNL     1      -9.083  15.039  66.099  1.00  0.00    -0.237 C  
HETATM   16  C   UNL     1     -10.331  15.428  65.795  1.00  0.00    -0.381 C  
BRANCH  16  17
HETATM   17  C   UNL     1     -11.208  14.618  64.954  1.00  0.00    -0.400 C  
HETATM   18  C   UNL     1     -11.606  12.462  63.738  1.00  0.00    -0.473 C  
HETATM   19  O   UNL     1     -12.685  12.714  63.234  1.00  0.00    -0.669 OA 
HETATM   20  C   UNL     1     -10.828  13.370  64.608  1.00  0.00    -0.405 C  
HETATM   21  C   UNL     1     -12.502  15.266  64.542  1.00  0.00    -0.032 C  
HETATM   22  O   UNL     1     -10.966  11.288  63.548  1.00  0.00    -0.381 OA 
ENDBRANCH  16  17
ENDBRANCH   3  15
TORSDOF 4
ENDMDL
MODEL      161
REMARK 921   NORMALIZED FREE ENERGY PREDICTED BY IDOCK:   -3.75 KCAL/MOL
REMARK 922        TOTAL FREE ENERGY PREDICTED BY IDOCK:   -6.02 KCAL/MOL
REMARK 923 INTER-LIGAND FREE ENERGY PREDICTED BY IDOCK:   -4.66 KCAL/MOL
REMARK 924 INTRA-LIGAND FREE ENERGY PREDICTED BY IDOCK:   -1.36 KCAL/MOL
REMARK 927      BINDING AFFINITY PREDICTED BY RF-SCORE:    0.00 PKD
ROOT
HETATM    1  C   UNL     1     -10.656  17.786  67.733  1.00  0.00    -0.392 C  
HETATM    2  C   UNL     1      -9.847  16.537  67.946  1.00  0.00    -0.240 C  
HETATM    3  C   UNL     1      -8.676  16.364  67.294  1.00  0.00    -0.198 C  
ENDROOT
BRANCH   2   4
HETATM    4  C   UNL     1     -10.360  15.575  68.913  1.00  0.00    -0.221 C  
HETATM    5  C   UNL     1     -11.464  14.827  68.752  1.00  0.00    -0.324 C  
BRANCH   5   6
HETATM    6  C   UNL     1     -11.928  13.794  69.690  1.00  0.00    -0.399 C  
HETATM    7  C   UNL     1     -10.083  12.046  69.482  1.00  0.00     0.723 C  
HETATM    8  C   UNL     1     -12.675  14.147  70.757  1.00  0.00    -0.414 C  
HETATM    9  C   UNL     1     -13.267  13.162  71.726  1.00  0.00    -0.494 C  
HETATM   10  C   UNL     1     -13.029  15.573  71.129  1.00  0.00    -0.560 C  
HETATM   11  C   UNL     1     -12.004  12.030  67.875  1.00  0.00    -0.204 C  
HETATM   12  C   UNL     1     -11.600  12.323  69.345  1.00  0.00    -0.378 C  
HETATM   13  C   UNL     1     -12.338  11.258  70.211  1.00  0.00    -0.389 C  
HETATM   14  C   UNL     1     -13.024  11.684  71.497  1.00  0.00    -0.463 C  
ENDBRANCH   5   6
ENDBRANCH   2   4
BRANCH   3  15
HETATM   15  C   UNL     1      -7.842  15.186  67.383  1.00  0.00    -0.224 C  
HETATM   16  C   UNL     1      -8.162  13.971  66.909  1.00  0.00     0.029 C  
BRANCH  16  17
HETATM   17  C   UNL     1      -7.291  12.816  67.102  1.00  0.00    -0.023 C  
HETATM   18  C   UNL     1      -6.987  10.329  66.998  1.00  0.00    -0.089 C  
HETATM   19  O   UNL     1      -5.845  10.251  67.413  1.00  0.00    -0.048 OA 
HETATM   20  C   UNL     1      -7.754  11.580  66.818  1.00  0.00    -0.136 C  
HETATM   21  C   UNL     1      -5.907  13.117  67.609  1.00  0.00    -0.122 C  
HETATM   22  O   UNL     1      -7.716   9.245  66.653  1.00  0.00    -0.093 OA 
ENDBRANCH  16  17
ENDBRANCH   3  15
TORSDOF 4
ENDMDL
MODEL      162
REMARK 921   NORMALIZED FREE ENERGY PREDICTED BY IDOCK:   -3.74 KCAL/MOL
REMARK 922        TOTAL FREE ENERGY PREDICTED BY IDOCK:   -6.01 KCAL/MOL
REMARK 923 INTER-LIGAND FREE ENERGY PREDICTED BY IDOCK:   -5.13 KCAL/MOL
REMARK 924 INTRA-LIGAND FREE ENERGY PREDICTED BY IDOCK:   -0.88 KCAL/MOL
REMARK 927      BINDING AFFINITY PREDICTED BY RF-SCORE:    0.00 PKD
ROOT
HETATM    1  C   UNL     1      -8.816   5.000  67.134  1.00  0.00    -0.106 C  
HETATM    2  C   UNL     1      -9.117   6.423  67.518  1.00  0.00    -0.114 C  
HETATM    3  C   UNL     1      -9.439   7.330  66.570  1.00  0.00    -0.218 C  
ENDROOT
BRANCH   2   4
HETATM    4  C   UNL     1      -9.094   6.742  68.940  1.00  0.00    -0.133 C  
HETATM    5  C   UNL     1      -9.669   6.010  69.908  1.00  0.00    -0.200 C  
BRANCH   5   6
HETATM    6  C   UNL     1      -9.568   6.287  71.349  1.00  0.00    -0.170 C  
HETATM    7  C   UNL     1     -12.002   6.085  72.083  1.00  0.00    -0.261 C  
HETATM    8  C   UNL     1      -8.432   5.981  72.009  1.00  0.00    -0.121 C  
HETATM    9  C   UNL     1      -8.197   6.299  73.459  1.00  0.00    -0.117 C  
HETATM   10  C   UNL     1      -7.235   5.285  71.393  1.00  0.00    -0.074 C  
HETATM   11  C   UNL     1     -11.145   8.262  71.187  1.00  0.00    -0.289 C  
HETATM   12  C   UNL     1     -10.760   7.008  72.018  1.00  0.00    -0.243 C  
HETATM   13  C   UNL     1     -10.497   7.519  73.467  1.00  0.00    -0.362 C  
HETATM   14  C   UNL     1      -9.288   7.012  74.232  1.00  0.00    -0.262 C  
ENDBRANCH   5   6
ENDBRANCH   2   4
BRANCH   3  15
HETATM   15  C   UNL     1      -9.697   8.732  66.816  1.00  0.00    -0.286 C  
HETATM   16  C   UNL     1     -10.775   9.223  67.448  1.00  0.00    -0.263 C  
BRANCH  16  17
HETATM   17  C   UNL     1     -10.995  10.659  67.594  1.00  0.00    -0.370 C  
HETATM   18  C   UNL     1     -10.978  12.939  66.551  1.00  0.00    -0.275 C  
HETATM   19  O   UNL     1     -11.295  13.603  67.520  1.00  0.00    -0.283 OA 
HETATM   20  C   UNL     1     -10.820  11.469  66.528  1.00  0.00    -0.335 C  
HETATM   21  C   UNL     1     -11.419  11.120  68.961  1.00  0.00    -0.364 C  
HETATM   22  O   UNL     1     -10.716  13.485  65.343  1.00  0.00    -0.287 OA 
ENDBRANCH  16  17
ENDBRANCH   3  15
TORSDOF 4
ENDMDL
MODEL      163
REMARK 921   NORMALIZED FREE ENERGY PREDICTED BY IDOCK:   -3.74 KCAL/MOL
REMARK 922        TOTAL FREE ENERGY PREDICTED BY IDOCK:   -6.01 KCAL/MOL
REMARK 923 INTER-LIGAND FREE ENERGY PREDICTED BY IDOCK:   -5.25 KCAL/MOL
REMARK 924 INTRA-LIGAND FREE ENERGY PREDICTED BY IDOCK:   -0.76 KCAL/MOL
REMARK 927      BINDING AFFINITY PREDICTED BY RF-SCORE:    0.00 PKD
ROOT
HETATM    1  C   UNL     1      -7.735  11.142  68.494  1.00  0.00    -0.129 C  
HETATM    2  C   UNL     1      -8.289   9.768  68.238  1.00  0.00    -0.106 C  
HETATM    3  C   UNL     1      -7.616   8.899  67.453  1.00  0.00    -0.089 C  
ENDROOT
BRANCH   2   4
HETATM    4  C   UNL     1      -9.532   9.421  68.914  1.00  0.00    -0.154 C  
HETATM    5  C   UNL     1      -9.854   9.766  70.171  1.00  0.00    -0.306 C  
BRANCH   5   6
HETATM    6  C   UNL     1     -11.146   9.490  70.818  1.00  0.00    -0.390 C  
HETATM    7  C   UNL     1     -10.438   8.003  72.765  1.00  0.00    -0.415 C  
HETATM    8  C   UNL     1     -12.141  10.397  70.733  1.00  0.00    -0.463 C  
HETATM    9  C   UNL     1     -13.522  10.176  71.286  1.00  0.00    -0.305 C  
HETATM   10  C   UNL     1     -12.019  11.754  70.070  1.00  0.00    -0.421 C  
HETATM   11  C   UNL     1     -10.883   6.989  70.518  1.00  0.00    -0.279 C  
HETATM   12  C   UNL     1     -11.320   8.112  71.497  1.00  0.00    -0.308 C  
HETATM   13  C   UNL     1     -12.778   7.764  71.924  1.00  0.00    -0.328 C  
HETATM   14  C   UNL     1     -13.827   8.861  71.973  1.00  0.00    -0.511 C  
ENDBRANCH   5   6
ENDBRANCH   2   4
BRANCH   3  15
HETATM   15  C   UNL     1      -8.075   7.574  67.098  1.00  0.00    -0.118 C  
HETATM   16  C   UNL     1      -8.258   7.125  65.846  1.00  0.00    -0.132 C  
BRANCH  16  17
HETATM   17  C   UNL     1      -8.792   5.794  65.575  1.00  0.00    -0.119 C  
HETATM   18  C   UNL     1      -8.701   3.693  64.210  1.00  0.00    -0.101 C  
HETATM   19  O   UNL     1      -9.630   3.088  64.713  1.00  0.00    -0.154 OA 
HETATM   20  C   UNL     1      -8.236   5.039  64.603  1.00  0.00    -0.128 C  
HETATM   21  C   UNL     1      -9.946   5.364  66.439  1.00  0.00    -0.218 C  
HETATM   22  O   UNL     1      -7.967   3.192  63.192  1.00  0.00    -0.070 OA 
ENDBRANCH  16  17
ENDBRANCH   3  15
TORSDOF 4
ENDMDL
MODEL      164
REMARK 921   NORMALIZED FREE ENERGY PREDICTED BY IDOCK:   -3.74 KCAL/MOL
REMARK 922        TOTAL FREE ENERGY PREDICTED BY IDOCK:   -6.01 KCAL/MOL
REMARK 923 INTER-LIGAND FREE ENERGY PREDICTED BY IDOCK:   -4.89 KCAL/MOL
REMARK 924 INTRA-LIGAND FREE ENERGY PREDICTED BY IDOCK:   -1.11 KCAL/MOL
REMARK 927      BINDING AFFINITY PREDICTED BY RF-SCORE:    0.00 PKD
ROOT
HETATM    1  C   UNL     1     -10.534   6.038  73.720  1.00  0.00    -0.288 C  
HETATM    2  C   UNL     1     -10.693   6.891  72.492  1.00  0.00    -0.263 C  
HETATM    3  C   UNL     1     -11.456   8.006  72.533  1.00  0.00    -0.471 C  
ENDROOT
BRANCH   2   4
HETATM    4  C   UNL     1      -9.953   6.485  71.304  1.00  0.00    -0.200 C  
HETATM    5  C   UNL     1      -8.648   6.172  71.274  1.00  0.00    -0.129 C  
BRANCH   5   6
HETATM    6  C   UNL     1      -7.925   5.676  70.092  1.00  0.00    -0.099 C  
HETATM    7  C   UNL     1      -9.015   3.397  69.743  1.00  0.00    -0.176 C  
HETATM    8  C   UNL     1      -7.438   6.555  69.192  1.00  0.00    -0.095 C  
HETATM    9  C   UNL     1      -6.616   6.157  67.997  1.00  0.00    -0.062 C  
HETATM   10  C   UNL     1      -7.639   8.055  69.252  1.00  0.00    -0.096 C  
HETATM   11  C   UNL     1      -7.090   3.631  71.329  1.00  0.00    -0.033 C  
HETATM   12  C   UNL     1      -7.687   4.152  69.994  1.00  0.00    -0.052 C  
HETATM   13  C   UNL     1      -6.692   3.708  68.879  1.00  0.00    -0.045 C  
HETATM   14  C   UNL     1      -6.304   4.689  67.787  1.00  0.00    -0.037 C  
ENDBRANCH   5   6
ENDBRANCH   2   4
BRANCH   3  15
HETATM   15  C   UNL     1     -11.721   8.872  71.405  1.00  0.00    -0.385 C  
HETATM   16  C   UNL     1     -10.887   9.814  70.937  1.00  0.00    -0.399 C  
BRANCH  16  17
HETATM   17  C   UNL     1     -11.261  10.695  69.835  1.00  0.00    -0.378 C  
HETATM   18  C   UNL     1     -11.218  11.174  67.374  1.00  0.00    -0.294 C  
HETATM   19  O   UNL     1     -11.800  12.243  67.369  1.00  0.00    -0.480 OA 
HETATM   20  C   UNL     1     -10.927  10.357  68.571  1.00  0.00    -0.302 C  
HETATM   21  C   UNL     1     -12.018  11.937  70.219  1.00  0.00    -0.416 C  
HETATM   22  O   UNL     1     -10.744  10.594  66.250  1.00  0.00    -0.197 OA 
ENDBRANCH  16  17
ENDBRANCH   3  15
TORSDOF 4
ENDMDL
MODEL      165
REMARK 921   NORMALIZED FREE ENERGY PREDICTED BY IDOCK:   -3.72 KCAL/MOL
REMARK 922        TOTAL FREE ENERGY PREDICTED BY IDOCK:   -5.98 KCAL/MOL
REMARK 923 INTER-LIGAND FREE ENERGY PREDICTED BY IDOCK:   -5.30 KCAL/MOL
REMARK 924 INTRA-LIGAND FREE ENERGY PREDICTED BY IDOCK:   -0.69 KCAL/MOL
REMARK 927      BINDING AFFINITY PREDICTED BY RF-SCORE:    0.00 PKD
ROOT
HETATM    1  C   UNL     1     -12.843   9.035  72.117  1.00  0.00    -0.478 C  
HETATM    2  C   UNL     1     -11.886   9.368  71.005  1.00  0.00    -0.396 C  
HETATM    3  C   UNL     1     -11.274   8.380  70.316  1.00  0.00    -0.175 C  
ENDROOT
BRANCH   2   4
HETATM    4  C   UNL     1     -11.707  10.779  70.689  1.00  0.00    -0.442 C  
HETATM    5  C   UNL     1     -12.648  11.728  70.817  1.00  0.00    -0.344 C  
BRANCH   5   6
HETATM    6  C   UNL     1     -12.435  13.165  70.582  1.00  0.00    -0.363 C  
HETATM    7  C   UNL     1     -12.045  14.020  72.953  1.00  0.00     0.456 C  
HETATM    8  C   UNL     1     -11.910  13.579  69.410  1.00  0.00    -0.389 C  
HETATM    9  C   UNL     1     -11.731  15.025  69.040  1.00  0.00    -0.351 C  
HETATM   10  C   UNL     1     -11.434  12.660  68.304  1.00  0.00    -0.356 C  
HETATM   11  C   UNL     1     -14.381  13.804  72.072  1.00  0.00    -0.392 C  
HETATM   12  C   UNL     1     -12.917  14.142  71.679  1.00  0.00    -0.423 C  
HETATM   13  C   UNL     1     -12.921  15.646  71.271  1.00  0.00    -0.556 C  
HETATM   14  C   UNL     1     -12.170  16.087  70.027  1.00  0.00    -0.075 C  
ENDBRANCH   5   6
ENDBRANCH   2   4
BRANCH   3  15
HETATM   15  C   UNL     1     -10.301   8.581  69.265  1.00  0.00    -0.227 C  
HETATM   16  C   UNL     1      -8.972   8.456  69.403  1.00  0.00    -0.153 C  
BRANCH  16  17
HETATM   17  C   UNL     1      -8.053   8.746  68.306  1.00  0.00    -0.114 C  
HETATM   18  C   UNL     1      -7.603   9.963  66.161  1.00  0.00    -0.104 C  
HETATM   19  O   UNL     1      -6.490   9.534  65.918  1.00  0.00    -0.073 OA 
HETATM   20  C   UNL     1      -8.424   9.610  67.338  1.00  0.00    -0.125 C  
HETATM   21  C   UNL     1      -6.726   8.038  68.361  1.00  0.00    -0.067 C  
HETATM   22  O   UNL     1      -8.244  10.834  65.351  1.00  0.00    -0.151 OA 
ENDBRANCH  16  17
ENDBRANCH   3  15
TORSDOF 4
ENDMDL
MODEL      166
REMARK 921   NORMALIZED FREE ENERGY PREDICTED BY IDOCK:   -3.71 KCAL/MOL
REMARK 922        TOTAL FREE ENERGY PREDICTED BY IDOCK:   -5.97 KCAL/MOL
REMARK 923 INTER-LIGAND FREE ENERGY PREDICTED BY IDOCK:   -5.72 KCAL/MOL
REMARK 924 INTRA-LIGAND FREE ENERGY PREDICTED BY IDOCK:   -0.25 KCAL/MOL
REMARK 927      BINDING AFFINITY PREDICTED BY RF-SCORE:    0.00 PKD
ROOT
HETATM    1  C   UNL     1      -5.937  12.811  69.924  1.00  0.00    -0.138 C  
HETATM    2  C   UNL     1      -6.312  14.112  69.270  1.00  0.00    -0.112 C  
HETATM    3  C   UNL     1      -5.458  15.158  69.298  1.00  0.00    -0.095 C  
ENDROOT
BRANCH   2   4
HETATM    4  C   UNL     1      -7.593  14.158  68.577  1.00  0.00    -0.129 C  
HETATM    5  C   UNL     1      -8.065  13.206  67.756  1.00  0.00    -0.165 C  
BRANCH   5   6
HETATM    6  C   UNL     1      -9.397  13.215  67.130  1.00  0.00    -0.235 C  
HETATM    7  C   UNL     1      -9.653  15.673  66.503  1.00  0.00    -0.293 C  
HETATM    8  C   UNL     1      -9.848  12.106  66.507  1.00  0.00    -0.232 C  
HETATM    9  C   UNL     1     -11.222  11.985  65.911  1.00  0.00    -0.385 C  
HETATM   10  C   UNL     1      -9.049  10.832  66.324  1.00  0.00    -0.192 C  
HETATM   11  C   UNL     1     -10.287  14.898  68.799  1.00  0.00    -0.245 C  
HETATM   12  C   UNL     1     -10.253  14.490  67.302  1.00  0.00    -0.255 C  
HETATM   13  C   UNL     1     -11.742  14.352  66.862  1.00  0.00    -0.422 C  
HETATM   14  C   UNL     1     -12.166  13.165  66.016  1.00  0.00    -0.478 C  
ENDBRANCH   5   6
ENDBRANCH   2   4
BRANCH   3  15
HETATM   15  C   UNL     1      -5.732  16.468  68.748  1.00  0.00    -0.126 C  
HETATM   16  C   UNL     1      -6.353  17.467  69.395  1.00  0.00    -0.246 C  
BRANCH  16  17
HETATM   17  C   UNL     1      -6.652  18.738  68.743  1.00  0.00    -0.282 C  
HETATM   18  C   UNL     1      -7.675  19.955  66.805  1.00  0.00    -0.290 C  
HETATM   19  O   UNL     1      -7.395  21.098  67.116  1.00  0.00    -0.400 OA 
HETATM   20  C   UNL     1      -7.337  18.743  67.579  1.00  0.00    -0.235 C  
HETATM   21  C   UNL     1      -6.163  19.970  69.455  1.00  0.00    -0.376 C  
HETATM   22  O   UNL     1      -8.343  19.650  65.671  1.00  0.00    -0.385 OA 
ENDBRANCH  16  17
ENDBRANCH   3  15
TORSDOF 4
ENDMDL
MODEL      167
REMARK 921   NORMALIZED FREE ENERGY PREDICTED BY IDOCK:   -3.69 KCAL/MOL
REMARK 922        TOTAL FREE ENERGY PREDICTED BY IDOCK:   -5.95 KCAL/MOL
REMARK 923 INTER-LIGAND FREE ENERGY PREDICTED BY IDOCK:   -4.98 KCAL/MOL
REMARK 924 INTRA-LIGAND FREE ENERGY PREDICTED BY IDOCK:   -0.98 KCAL/MOL
REMARK 927      BINDING AFFINITY PREDICTED BY RF-SCORE:    0.00 PKD
ROOT
HETATM    1  C   UNL     1      -6.623  11.083  69.216  1.00  0.00    -0.091 C  
HETATM    2  C   UNL     1      -6.818  12.502  68.760  1.00  0.00    -0.096 C  
HETATM    3  C   UNL     1      -6.004  13.481  69.214  1.00  0.00    -0.091 C  
ENDROOT
BRANCH   2   4
HETATM    4  C   UNL     1      -7.873  12.744  67.785  1.00  0.00    -0.156 C  
HETATM    5  C   UNL     1      -9.155  13.010  68.080  1.00  0.00    -0.210 C  
BRANCH   5   6
HETATM    6  C   UNL     1     -10.197  13.342  67.095  1.00  0.00    -0.246 C  
HETATM    7  C   UNL     1     -11.950  11.555  67.583  1.00  0.00    -0.054 C  
HETATM    8  C   UNL     1     -10.347  14.619  66.687  1.00  0.00    -0.273 C  
HETATM    9  C   UNL     1     -11.323  15.047  65.627  1.00  0.00    -0.297 C  
HETATM   10  C   UNL     1      -9.559  15.796  67.225  1.00  0.00    -0.220 C  
HETATM   11  C   UNL     1     -10.058  11.053  66.020  1.00  0.00    -0.297 C  
HETATM   12  C   UNL     1     -11.018  12.170  66.510  1.00  0.00    -0.325 C  
HETATM   13  C   UNL     1     -11.911  12.534  65.285  1.00  0.00    -0.490 C  
HETATM   14  C   UNL     1     -12.187  13.993  64.966  1.00  0.00    -0.448 C  
ENDBRANCH   5   6
ENDBRANCH   2   4
BRANCH   3  15
HETATM   15  C   UNL     1      -6.128  14.883  68.884  1.00  0.00    -0.085 C  
HETATM   16  C   UNL     1      -6.373  15.868  69.763  1.00  0.00    -0.175 C  
BRANCH  16  17
HETATM   17  C   UNL     1      -6.553  17.253  69.337  1.00  0.00    -0.218 C  
HETATM   18  C   UNL     1      -8.119  19.119  68.743  1.00  0.00    -0.349 C  
HETATM   19  O   UNL     1      -7.306  19.976  68.450  1.00  0.00    -0.303 OA 
HETATM   20  C   UNL     1      -7.801  17.748  69.196  1.00  0.00     0.011 C  
HETATM   21  C   UNL     1      -5.289  18.032  69.093  1.00  0.00    -0.196 C  
HETATM   22  O   UNL     1      -9.453  19.322  68.676  1.00  0.00    -0.366 OA 
ENDBRANCH  16  17
ENDBRANCH   3  15
TORSDOF 4
ENDMDL
MODEL      168
REMARK 921   NORMALIZED FREE ENERGY PREDICTED BY IDOCK:   -3.67 KCAL/MOL
REMARK 922        TOTAL FREE ENERGY PREDICTED BY IDOCK:   -5.92 KCAL/MOL
REMARK 923 INTER-LIGAND FREE ENERGY PREDICTED BY IDOCK:   -4.98 KCAL/MOL
REMARK 924 INTRA-LIGAND FREE ENERGY PREDICTED BY IDOCK:   -0.95 KCAL/MOL
REMARK 927      BINDING AFFINITY PREDICTED BY RF-SCORE:    0.00 PKD
ROOT
HETATM    1  C   UNL     1      -8.978  14.600  66.752  1.00  0.00    -0.283 C  
HETATM    2  C   UNL     1      -9.536  13.412  67.487  1.00  0.00    -0.221 C  
HETATM    3  C   UNL     1     -10.710  13.513  68.149  1.00  0.00    -0.265 C  
ENDROOT
BRANCH   2   4
HETATM    4  C   UNL     1      -8.785  12.167  67.398  1.00  0.00    -0.177 C  
HETATM    5  C   UNL     1      -9.278  10.992  66.976  1.00  0.00    -0.164 C  
BRANCH   5   6
HETATM    6  C   UNL     1      -8.493   9.760  66.803  1.00  0.00    -0.125 C  
HETATM    7  C   UNL     1      -6.849  10.451  64.980  1.00  0.00    -0.065 C  
HETATM    8  C   UNL     1      -8.333   8.919  67.846  1.00  0.00    -0.118 C  
HETATM    9  C   UNL     1      -7.622   7.598  67.752  1.00  0.00    -0.117 C  
HETATM   10  C   UNL     1      -8.845   9.175  69.248  1.00  0.00    -0.144 C  
HETATM   11  C   UNL     1      -9.114   9.582  64.354  1.00  0.00    -0.234 C  
HETATM   12  C   UNL     1      -7.961   9.451  65.385  1.00  0.00    -0.105 C  
HETATM   13  C   UNL     1      -7.377   8.019  65.194  1.00  0.00    -0.074 C  
HETATM   14  C   UNL     1      -7.056   7.172  66.412  1.00  0.00    -0.077 C  
ENDBRANCH   5   6
ENDBRANCH   2   4
BRANCH   3  15
HETATM   15  C   UNL     1     -11.316  12.456  68.928  1.00  0.00    -0.342 C  
HETATM   16  C   UNL     1     -11.894  12.611  70.130  1.00  0.00    -0.326 C  
BRANCH  16  17
HETATM   17  C   UNL     1     -12.422  11.477  70.883  1.00  0.00    -0.464 C  
HETATM   18  C   UNL     1     -12.398   9.009  71.324  1.00  0.00    -0.302 C  
HETATM   19  O   UNL     1     -13.273   8.949  72.169  1.00  0.00    -0.369 OA 
HETATM   20  C   UNL     1     -11.930  10.241  70.655  1.00  0.00    -0.436 C  
HETATM   21  C   UNL     1     -13.496  11.801  71.885  1.00  0.00    -0.278 C  
HETATM   22  O   UNL     1     -11.738   7.919  70.877  1.00  0.00    -0.288 OA 
ENDBRANCH  16  17
ENDBRANCH   3  15
TORSDOF 4
ENDMDL
MODEL      169
REMARK 921   NORMALIZED FREE ENERGY PREDICTED BY IDOCK:   -3.66 KCAL/MOL
REMARK 922        TOTAL FREE ENERGY PREDICTED BY IDOCK:   -5.91 KCAL/MOL
REMARK 923 INTER-LIGAND FREE ENERGY PREDICTED BY IDOCK:   -4.97 KCAL/MOL
REMARK 924 INTRA-LIGAND FREE ENERGY PREDICTED BY IDOCK:   -0.95 KCAL/MOL
REMARK 927      BINDING AFFINITY PREDICTED BY RF-SCORE:    0.00 PKD
ROOT
HETATM    1  C   UNL     1      -7.339  10.293  65.880  1.00  0.00    -0.131 C  
HETATM    2  C   UNL     1      -8.342  10.436  66.991  1.00  0.00    -0.127 C  
HETATM    3  C   UNL     1      -8.765  11.662  67.371  1.00  0.00    -0.155 C  
ENDROOT
BRANCH   2   4
HETATM    4  C   UNL     1      -8.858   9.206  67.578  1.00  0.00    -0.124 C  
HETATM    5  C   UNL     1      -8.107   8.189  68.031  1.00  0.00    -0.128 C  
BRANCH   5   6
HETATM    6  C   UNL     1      -8.628   6.990  68.705  1.00  0.00    -0.125 C  
HETATM    7  C   UNL     1      -9.453   7.960  70.914  1.00  0.00    -0.167 C  
HETATM    8  C   UNL     1      -9.112   5.968  67.969  1.00  0.00    -0.117 C  
HETATM    9  C   UNL     1      -9.589   4.669  68.555  1.00  0.00    -0.220 C  
HETATM   10  C   UNL     1      -9.239   5.976  66.459  1.00  0.00    -0.158 C  
HETATM   11  C   UNL     1      -7.055   7.280  70.668  1.00  0.00    -0.065 C  
HETATM   12  C   UNL     1      -8.507   6.933  70.245  1.00  0.00    -0.139 C  
HETATM   13  C   UNL     1      -8.818   5.545  70.883  1.00  0.00    -0.148 C  
HETATM   14  C   UNL     1      -9.519   4.481  70.057  1.00  0.00    -0.247 C  
ENDBRANCH   5   6
ENDBRANCH   2   4
BRANCH   3  15
HETATM   15  C   UNL     1      -9.685  11.923  68.456  1.00  0.00    -0.173 C  
HETATM   16  C   UNL     1     -10.942  12.374  68.316  1.00  0.00    -0.269 C  
BRANCH  16  17
HETATM   17  C   UNL     1     -11.783  12.678  69.470  1.00  0.00    -0.374 C  
HETATM   18  C   UNL     1     -12.976  14.399  70.849  1.00  0.00    -0.348 C  
HETATM   19  O   UNL     1     -13.430  13.677  71.719  1.00  0.00    -0.374 OA 
HETATM   20  C   UNL     1     -12.155  13.955  69.703  1.00  0.00    -0.404 C  
HETATM   21  C   UNL     1     -12.182  11.500  70.317  1.00  0.00    -0.415 C  
HETATM   22  O   UNL     1     -13.167  15.736  70.835  1.00  0.00    -0.560 OA 
ENDBRANCH  16  17
ENDBRANCH   3  15
TORSDOF 4
ENDMDL
MODEL      170
REMARK 921   NORMALIZED FREE ENERGY PREDICTED BY IDOCK:   -3.65 KCAL/MOL
REMARK 922        TOTAL FREE ENERGY PREDICTED BY IDOCK:   -5.90 KCAL/MOL
REMARK 923 INTER-LIGAND FREE ENERGY PREDICTED BY IDOCK:   -5.33 KCAL/MOL
REMARK 924 INTRA-LIGAND FREE ENERGY PREDICTED BY IDOCK:   -0.57 KCAL/MOL
REMARK 927      BINDING AFFINITY PREDICTED BY RF-SCORE:    0.00 PKD
ROOT
HETATM    1  C   UNL     1     -12.548  10.886  71.004  1.00  0.00    -0.517 C  
HETATM    2  C   UNL     1     -11.479  10.284  70.134  1.00  0.00    -0.383 C  
HETATM    3  C   UNL     1     -11.268  10.760  68.887  1.00  0.00    -0.328 C  
ENDROOT
BRANCH   2   4
HETATM    4  C   UNL     1     -10.671   9.222  70.720  1.00  0.00    -0.350 C  
HETATM    5  C   UNL     1     -10.939   7.909  70.638  1.00  0.00    -0.248 C  
BRANCH   5   6
HETATM    6  C   UNL     1     -10.073   6.837  71.154  1.00  0.00    -0.198 C  
HETATM    7  C   UNL     1     -10.512   6.985  73.662  1.00  0.00    -0.414 C  
HETATM    8  C   UNL     1      -9.805   5.765  70.380  1.00  0.00    -0.241 C  
HETATM    9  C   UNL     1      -8.869   4.659  70.779  1.00  0.00    -0.155 C  
HETATM   10  C   UNL     1     -10.396   5.523  69.005  1.00  0.00    -0.304 C  
HETATM   11  C   UNL     1      -8.769   8.446  72.612  1.00  0.00    -0.267 C  
HETATM   12  C   UNL     1      -9.438   7.046  72.548  1.00  0.00    -0.161 C  
HETATM   13  C   UNL     1      -8.326   6.023  72.930  1.00  0.00    -0.117 C  
HETATM   14  C   UNL     1      -8.175   4.746  72.123  1.00  0.00    -0.111 C  
ENDBRANCH   5   6
ENDBRANCH   2   4
BRANCH   3  15
HETATM   15  C   UNL     1     -10.306  10.228  67.947  1.00  0.00    -0.234 C  
HETATM   16  C   UNL     1     -10.481   9.130  67.195  1.00  0.00    -0.325 C  
BRANCH  16  17
HETATM   17  C   UNL     1      -9.430   8.620  66.320  1.00  0.00    -0.307 C  
HETATM   18  C   UNL     1      -8.067   6.669  65.531  1.00  0.00    -0.124 C  
HETATM   19  O   UNL     1      -7.341   7.241  64.738  1.00  0.00    -0.071 OA 
HETATM   20  C   UNL     1      -9.128   7.305  66.340  1.00  0.00    -0.192 C  
HETATM   21  C   UNL     1      -8.761   9.640  65.438  1.00  0.00    -0.183 C  
HETATM   22  O   UNL     1      -7.980   5.344  65.779  1.00  0.00    -0.101 OA 
ENDBRANCH  16  17
ENDBRANCH   3  15
TORSDOF 4
ENDMDL
MODEL      171
REMARK 921   NORMALIZED FREE ENERGY PREDICTED BY IDOCK:   -3.65 KCAL/MOL
REMARK 922        TOTAL FREE ENERGY PREDICTED BY IDOCK:   -5.90 KCAL/MOL
REMARK 923 INTER-LIGAND FREE ENERGY PREDICTED BY IDOCK:   -4.97 KCAL/MOL
REMARK 924 INTRA-LIGAND FREE ENERGY PREDICTED BY IDOCK:   -0.92 KCAL/MOL
REMARK 927      BINDING AFFINITY PREDICTED BY RF-SCORE:    0.00 PKD
ROOT
HETATM    1  C   UNL     1      -7.282   7.032  63.021  1.00  0.00    -0.069 C  
HETATM    2  C   UNL     1      -8.033   8.012  63.880  1.00  0.00    -0.128 C  
HETATM    3  C   UNL     1      -8.551   9.135  63.336  1.00  0.00    -0.178 C  
ENDROOT
BRANCH   2   4
HETATM    4  C   UNL     1      -8.210   7.660  65.283  1.00  0.00    -0.136 C  
HETATM    5  C   UNL     1      -8.576   6.452  65.739  1.00  0.00    -0.152 C  
BRANCH   5   6
HETATM    6  C   UNL     1      -8.666   6.076  67.159  1.00  0.00    -0.109 C  
HETATM    7  C   UNL     1      -6.323   6.645  67.990  1.00  0.00    -0.044 C  
HETATM    8  C   UNL     1      -9.855   6.146  67.793  1.00  0.00    -0.131 C  
HETATM    9  C   UNL     1     -10.070   5.707  69.214  1.00  0.00    -0.281 C  
HETATM   10  C   UNL     1     -11.136   6.665  67.172  1.00  0.00    -0.427 C  
HETATM   11  C   UNL     1      -6.770   4.411  66.948  1.00  0.00    -0.051 C  
HETATM   12  C   UNL     1      -7.386   5.530  67.831  1.00  0.00    -0.073 C  
HETATM   13  C   UNL     1      -7.596   4.897  69.239  1.00  0.00    -0.060 C  
HETATM   14  C   UNL     1      -8.894   5.146  69.987  1.00  0.00    -0.135 C  
ENDBRANCH   5   6
ENDBRANCH   2   4
BRANCH   3  15
HETATM   15  C   UNL     1      -9.246  10.169  64.071  1.00  0.00    -0.315 C  
HETATM   16  C   UNL     1     -10.525  10.529  63.883  1.00  0.00     0.077 C  
BRANCH  16  17
HETATM   17  C   UNL     1     -11.132  11.632  64.621  1.00  0.00    -0.342 C  
HETATM   18  C   UNL     1     -12.256  13.873  64.573  1.00  0.00    -0.417 C  
HETATM   19  O   UNL     1     -12.385  14.057  65.769  1.00  0.00    -0.430 OA 
HETATM   20  C   UNL     1     -11.645  12.682  63.945  1.00  0.00    -0.521 C  
HETATM   21  C   UNL     1     -11.139  11.491  66.119  1.00  0.00    -0.302 C  
HETATM   22  O   UNL     1     -12.660  14.770  63.647  1.00  0.00    -0.749 OA 
ENDBRANCH  16  17
ENDBRANCH   3  15
TORSDOF 4
ENDMDL
MODEL      172
REMARK 921   NORMALIZED FREE ENERGY PREDICTED BY IDOCK:   -3.62 KCAL/MOL
REMARK 922        TOTAL FREE ENERGY PREDICTED BY IDOCK:   -5.86 KCAL/MOL
REMARK 923 INTER-LIGAND FREE ENERGY PREDICTED BY IDOCK:   -5.18 KCAL/MOL
REMARK 924 INTRA-LIGAND FREE ENERGY PREDICTED BY IDOCK:   -0.69 KCAL/MOL
REMARK 927      BINDING AFFINITY PREDICTED BY RF-SCORE:    0.00 PKD
ROOT
HETATM    1  C   UNL     1     -12.390  11.902  63.312  1.00  0.00    -0.508 C  
HETATM    2  C   UNL     1     -11.766  12.728  64.403  1.00  0.00    -0.426 C  
HETATM    3  C   UNL     1     -12.082  14.036  64.529  1.00  0.00    -0.484 C  
ENDROOT
BRANCH   2   4
HETATM    4  C   UNL     1     -10.869  12.041  65.322  1.00  0.00    -0.340 C  
HETATM    5  C   UNL     1     -10.684  10.712  65.376  1.00  0.00    -0.106 C  
BRANCH   5   6
HETATM    6  C   UNL     1      -9.712  10.029  66.244  1.00  0.00    -0.272 C  
HETATM    7  C   UNL     1      -7.511  10.572  65.075  1.00  0.00    -0.011 C  
HETATM    8  C   UNL     1      -9.984   9.871  67.556  1.00  0.00    -0.229 C  
HETATM    9  C   UNL     1      -9.098   9.117  68.508  1.00  0.00    -0.132 C  
HETATM   10  C   UNL     1     -11.212  10.418  68.255  1.00  0.00    -0.330 C  
HETATM   11  C   UNL     1      -8.861   8.593  64.339  1.00  0.00     0.095 C  
HETATM   12  C   UNL     1      -8.449   9.444  65.571  1.00  0.00    -0.153 C  
HETATM   13  C   UNL     1      -7.593   8.504  66.473  1.00  0.00    -0.088 C  
HETATM   14  C   UNL     1      -7.828   8.488  67.973  1.00  0.00    -0.103 C  
ENDBRANCH   5   6
ENDBRANCH   2   4
BRANCH   3  15
HETATM   15  C   UNL     1     -11.509  14.937  65.505  1.00  0.00    -0.307 C  
HETATM   16  C   UNL     1     -10.201  15.206  65.639  1.00  0.00    -0.387 C  
BRANCH  16  17
HETATM   17  C   UNL     1      -9.698  16.077  66.697  1.00  0.00    -0.261 C  
HETATM   18  C   UNL     1     -10.059  17.143  68.938  1.00  0.00    -0.322 C  
HETATM   19  O   UNL     1      -9.035  17.797  69.015  1.00  0.00    -0.160 OA 
HETATM   20  C   UNL     1     -10.438  16.265  67.811  1.00  0.00    -0.295 C  
HETATM   21  C   UNL     1      -8.351  16.700  66.448  1.00  0.00    -0.353 C  
HETATM   22  O   UNL     1     -11.006  17.151  69.901  1.00  0.00    -0.004 OA 
ENDBRANCH  16  17
ENDBRANCH   3  15
TORSDOF 4
ENDMDL
MODEL      173
REMARK 921   NORMALIZED FREE ENERGY PREDICTED BY IDOCK:   -3.59 KCAL/MOL
REMARK 922        TOTAL FREE ENERGY PREDICTED BY IDOCK:   -5.83 KCAL/MOL
REMARK 923 INTER-LIGAND FREE ENERGY PREDICTED BY IDOCK:   -5.51 KCAL/MOL
REMARK 924 INTRA-LIGAND FREE ENERGY PREDICTED BY IDOCK:   -0.32 KCAL/MOL
REMARK 927      BINDING AFFINITY PREDICTED BY RF-SCORE:    0.00 PKD
ROOT
HETATM    1  C   UNL     1      -6.297  15.980  68.926  1.00  0.00    -0.129 C  
HETATM    2  C   UNL     1      -7.544  15.632  68.161  1.00  0.00    -0.124 C  
HETATM    3  C   UNL     1      -7.689  16.033  66.879  1.00  0.00    -0.279 C  
ENDROOT
BRANCH   2   4
HETATM    4  C   UNL     1      -8.534  14.814  68.849  1.00  0.00    -0.159 C  
HETATM    5  C   UNL     1      -9.856  15.052  68.871  1.00  0.00    -0.233 C  
BRANCH   5   6
HETATM    6  C   UNL     1     -10.861  14.175  69.491  1.00  0.00    -0.111 C  
HETATM    7  C   UNL     1     -12.785  15.801  69.889  1.00  0.00     0.125 C  
HETATM    8  C   UNL     1     -10.882  12.862  69.182  1.00  0.00    -0.126 C  
HETATM    9  C   UNL     1     -11.812  11.869  69.821  1.00  0.00    -0.411 C  
HETATM   10  C   UNL     1      -9.977  12.200  68.163  1.00  0.00    -0.201 C  
HETATM   11  C   UNL     1     -10.957  15.590  71.589  1.00  0.00    -0.104 C  
HETATM   12  C   UNL     1     -11.798  14.805  70.546  1.00  0.00    -0.362 C  
HETATM   13  C   UNL     1     -12.653  13.790  71.364  1.00  0.00    -0.433 C  
HETATM   14  C   UNL     1     -12.781  12.357  70.878  1.00  0.00    -0.273 C  
ENDBRANCH   5   6
ENDBRANCH   2   4
BRANCH   3  15
HETATM   15  C   UNL     1      -8.861  15.801  66.064  1.00  0.00    -0.260 C  
HETATM   16  C   UNL     1      -9.292  14.600  65.649  1.00  0.00     0.062 C  
BRANCH  16  17
HETATM   17  C   UNL     1     -10.449  14.459  64.769  1.00  0.00    -0.394 C  
HETATM   18  C   UNL     1     -12.027  12.946  63.542  1.00  0.00    -0.556 C  
HETATM   19  O   UNL     1     -12.714  13.783  62.986  1.00  0.00    -0.671 OA 
HETATM   20  C   UNL     1     -10.891  13.225  64.445  1.00  0.00    -0.422 C  
HETATM   21  C   UNL     1     -11.070  15.744  64.294  1.00  0.00     0.002 C  
HETATM   22  O   UNL     1     -12.223  11.618  63.386  1.00  0.00    -0.448 OA 
ENDBRANCH  16  17
ENDBRANCH   3  15
TORSDOF 4
ENDMDL
MODEL      174
REMARK 921   NORMALIZED FREE ENERGY PREDICTED BY IDOCK:   -3.58 KCAL/MOL
REMARK 922        TOTAL FREE ENERGY PREDICTED BY IDOCK:   -5.81 KCAL/MOL
REMARK 923 INTER-LIGAND FREE ENERGY PREDICTED BY IDOCK:   -4.89 KCAL/MOL
REMARK 924 INTRA-LIGAND FREE ENERGY PREDICTED BY IDOCK:   -0.92 KCAL/MOL
REMARK 927      BINDING AFFINITY PREDICTED BY RF-SCORE:    0.00 PKD
ROOT
HETATM    1  C   UNL     1     -10.005   8.953  71.513  1.00  0.00    -0.391 C  
HETATM    2  C   UNL     1     -10.059   8.620  70.048  1.00  0.00    -0.195 C  
HETATM    3  C   UNL     1      -9.621   7.420  69.606  1.00  0.00    -0.156 C  
ENDROOT
BRANCH   2   4
HETATM    4  C   UNL     1     -10.646   9.619  69.164  1.00  0.00    -0.237 C  
HETATM    5  C   UNL     1      -9.992  10.664  68.633  1.00  0.00    -0.188 C  
BRANCH   5   6
HETATM    6  C   UNL     1     -10.565  11.618  67.670  1.00  0.00    -0.237 C  
HETATM    7  C   UNL     1     -10.636  10.219  65.540  1.00  0.00    -0.025 C  
HETATM    8  C   UNL     1     -11.401  12.583  68.106  1.00  0.00    -0.343 C  
HETATM    9  C   UNL     1     -11.973  13.655  67.220  1.00  0.00    -0.420 C  
HETATM   10  C   UNL     1     -11.879  12.732  69.536  1.00  0.00    -0.379 C  
HETATM   11  C   UNL     1      -8.546  11.459  66.149  1.00  0.00    -0.128 C  
HETATM   12  C   UNL     1     -10.097  11.511  66.201  1.00  0.00    -0.266 C  
HETATM   13  C   UNL     1     -10.516  12.700  65.284  1.00  0.00    -0.312 C  
HETATM   14  C   UNL     1     -11.588  13.667  65.755  1.00  0.00    -0.349 C  
ENDBRANCH   5   6
ENDBRANCH   2   4
BRANCH   3  15
HETATM   15  C   UNL     1      -9.578   7.011  68.219  1.00  0.00    -0.134 C  
HETATM   16  C   UNL     1      -9.254   5.784  67.782  1.00  0.00    -0.105 C  
BRANCH  16  17
HETATM   17  C   UNL     1      -9.167   5.472  66.358  1.00  0.00    -0.155 C  
HETATM   18  C   UNL     1     -10.058   4.195  64.393  1.00  0.00    -0.140 C  
HETATM   19  O   UNL     1      -9.273   4.568  63.541  1.00  0.00    -0.145 OA 
HETATM   20  C   UNL     1     -10.056   4.617  65.810  1.00  0.00    -0.264 C  
HETATM   21  C   UNL     1      -8.064   6.163  65.603  1.00  0.00    -0.128 C  
HETATM   22  O   UNL     1     -11.050   3.314  64.139  1.00  0.00    -0.192 OA 
ENDBRANCH  16  17
ENDBRANCH   3  15
TORSDOF 4
ENDMDL
MODEL      175
REMARK 921   NORMALIZED FREE ENERGY PREDICTED BY IDOCK:   -3.57 KCAL/MOL
REMARK 922        TOTAL FREE ENERGY PREDICTED BY IDOCK:   -5.81 KCAL/MOL
REMARK 923 INTER-LIGAND FREE ENERGY PREDICTED BY IDOCK:   -5.00 KCAL/MOL
REMARK 924 INTRA-LIGAND FREE ENERGY PREDICTED BY IDOCK:   -0.80 KCAL/MOL
REMARK 927      BINDING AFFINITY PREDICTED BY RF-SCORE:    0.00 PKD
ROOT
HETATM    1  C   UNL     1      -5.427  11.238  68.921  1.00  0.00    -0.039 C  
HETATM    2  C   UNL     1      -6.851  11.321  68.446  1.00  0.00    -0.063 C  
HETATM    3  C   UNL     1      -7.470  12.519  68.358  1.00  0.00    -0.127 C  
ENDROOT
BRANCH   2   4
HETATM    4  C   UNL     1      -7.488  10.073  68.046  1.00  0.00    -0.088 C  
HETATM    5  C   UNL     1      -7.849   9.085  68.881  1.00  0.00    -0.095 C  
BRANCH   5   6
HETATM    6  C   UNL     1      -8.572   7.867  68.484  1.00  0.00    -0.128 C  
HETATM    7  C   UNL     1      -6.804   6.071  68.873  1.00  0.00    -0.066 C  
HETATM    8  C   UNL     1      -9.913   7.812  68.623  1.00  0.00    -0.191 C  
HETATM    9  C   UNL     1     -10.753   6.650  68.171  1.00  0.00    -0.320 C  
HETATM   10  C   UNL     1     -10.763   8.904  69.241  1.00  0.00    -0.177 C  
HETATM   11  C   UNL     1      -6.867   7.309  66.696  1.00  0.00    -0.065 C  
HETATM   12  C   UNL     1      -7.747   6.731  67.837  1.00  0.00    -0.112 C  
HETATM   13  C   UNL     1      -8.587   5.587  67.191  1.00  0.00    -0.109 C  
HETATM   14  C   UNL     1     -10.066   5.470  67.514  1.00  0.00    -0.217 C  
ENDBRANCH   5   6
ENDBRANCH   2   4
BRANCH   3  15
HETATM   15  C   UNL     1      -8.848  12.715  67.963  1.00  0.00    -0.195 C  
HETATM   16  C   UNL     1      -9.281  12.857  66.701  1.00  0.00    -0.222 C  
BRANCH  16  17
HETATM   17  C   UNL     1     -10.683  13.120  66.393  1.00  0.00    -0.293 C  
HETATM   18  C   UNL     1     -12.371  14.279  64.945  1.00  0.00    -0.425 C  
HETATM   19  O   UNL     1     -13.392  13.915  65.499  1.00  0.00    -0.662 OA 
HETATM   20  C   UNL     1     -10.996  13.910  65.343  1.00  0.00    -0.316 C  
HETATM   21  C   UNL     1     -11.687  12.459  67.298  1.00  0.00    -0.419 C  
HETATM   22  O   UNL     1     -12.374  15.099  63.872  1.00  0.00    -0.673 OA 
ENDBRANCH  16  17
ENDBRANCH   3  15
TORSDOF 4
ENDMDL
MODEL      176
REMARK 921   NORMALIZED FREE ENERGY PREDICTED BY IDOCK:   -3.55 KCAL/MOL
REMARK 922        TOTAL FREE ENERGY PREDICTED BY IDOCK:   -5.78 KCAL/MOL
REMARK 923 INTER-LIGAND FREE ENERGY PREDICTED BY IDOCK:   -5.76 KCAL/MOL
REMARK 924 INTRA-LIGAND FREE ENERGY PREDICTED BY IDOCK:   -0.02 KCAL/MOL
REMARK 927      BINDING AFFINITY PREDICTED BY RF-SCORE:    0.00 PKD
ROOT
HETATM    1  C   UNL     1     -12.262  13.269  63.215  1.00  0.00    -0.387 C  
HETATM    2  C   UNL     1     -11.784  13.120  64.633  1.00  0.00    -0.404 C  
HETATM    3  C   UNL     1     -11.508  11.895  65.133  1.00  0.00    -0.304 C  
ENDROOT
BRANCH   2   4
HETATM    4  C   UNL     1     -11.588  14.346  65.397  1.00  0.00    -0.347 C  
HETATM    5  C   UNL     1     -11.136  14.409  66.659  1.00  0.00    -0.326 C  
BRANCH   5   6
HETATM    6  C   UNL     1     -10.855  15.652  67.395  1.00  0.00    -0.315 C  
HETATM    7  C   UNL     1     -10.696  17.346  65.496  1.00  0.00    -0.081 C  
HETATM    8  C   UNL     1     -11.311  15.798  68.655  1.00  0.00    -0.369 C  
HETATM    9  C   UNL     1     -11.009  16.991  69.520  1.00  0.00     0.072 C  
HETATM   10  C   UNL     1     -12.181  14.792  69.382  1.00  0.00    -0.251 C  
HETATM   11  C   UNL     1      -8.677  16.017  66.155  1.00  0.00    -0.348 C  
HETATM   12  C   UNL     1      -9.961  16.702  66.697  1.00  0.00    -0.290 C  
HETATM   13  C   UNL     1      -9.471  17.867  67.610  1.00  0.00    -0.260 C  
HETATM   14  C   UNL     1     -10.136  18.093  68.956  1.00  0.00    -0.290 C  
ENDBRANCH   5   6
ENDBRANCH   2   4
BRANCH   3  15
HETATM   15  C   UNL     1     -11.092  11.628  66.492  1.00  0.00    -0.357 C  
HETATM   16  C   UNL     1     -10.809  10.415  66.993  1.00  0.00    -0.269 C  
BRANCH  16  17
HETATM   17  C   UNL     1     -10.462  10.223  68.398  1.00  0.00    -0.228 C  
HETATM   18  C   UNL     1      -9.107   9.000  70.116  1.00  0.00    -0.188 C  
HETATM   19  O   UNL     1      -9.540   9.527  71.124  1.00  0.00    -0.213 OA 
HETATM   20  C   UNL     1      -9.525   9.311  68.733  1.00  0.00    -0.150 C  
HETATM   21  C   UNL     1     -11.199  11.096  69.378  1.00  0.00    -0.334 C  
HETATM   22  O   UNL     1      -8.169   8.028  70.144  1.00  0.00    -0.116 OA 
ENDBRANCH  16  17
ENDBRANCH   3  15
TORSDOF 4
ENDMDL
MODEL      177
REMARK 921   NORMALIZED FREE ENERGY PREDICTED BY IDOCK:   -3.55 KCAL/MOL
REMARK 922        TOTAL FREE ENERGY PREDICTED BY IDOCK:   -5.77 KCAL/MOL
REMARK 923 INTER-LIGAND FREE ENERGY PREDICTED BY IDOCK:   -4.65 KCAL/MOL
REMARK 924 INTRA-LIGAND FREE ENERGY PREDICTED BY IDOCK:   -1.12 KCAL/MOL
REMARK 927      BINDING AFFINITY PREDICTED BY RF-SCORE:    0.00 PKD
ROOT
HETATM    1  C   UNL     1     -12.032   8.606  72.776  1.00  0.00    -0.081 C  
HETATM    2  C   UNL     1     -11.213   7.852  71.764  1.00  0.00    -0.305 C  
HETATM    3  C   UNL     1     -10.507   6.762  72.137  1.00  0.00    -0.231 C  
ENDROOT
BRANCH   2   4
HETATM    4  C   UNL     1     -11.270   8.322  70.386  1.00  0.00    -0.222 C  
HETATM    5  C   UNL     1     -10.678   9.433  69.921  1.00  0.00    -0.258 C  
BRANCH   5   6
HETATM    6  C   UNL     1     -10.663   9.856  68.512  1.00  0.00    -0.260 C  
HETATM    7  C   UNL     1     -10.658   7.610  67.303  1.00  0.00    -0.388 C  
HETATM    8  C   UNL     1     -11.224  11.031  68.161  1.00  0.00    -0.364 C  
HETATM    9  C   UNL     1     -11.189  11.591  66.767  1.00  0.00    -0.350 C  
HETATM   10  C   UNL     1     -11.961  11.953  69.111  1.00  0.00    -0.336 C  
HETATM   11  C   UNL     1      -8.496   8.626  68.056  1.00  0.00    -0.127 C  
HETATM   12  C   UNL     1      -9.911   8.951  67.508  1.00  0.00    -0.258 C  
HETATM   13  C   UNL     1      -9.691   9.570  66.095  1.00  0.00    -0.324 C  
HETATM   14  C   UNL     1     -10.477  10.803  65.686  1.00  0.00    -0.255 C  
ENDBRANCH   5   6
ENDBRANCH   2   4
BRANCH   3  15
HETATM   15  C   UNL     1      -9.648   5.991  71.265  1.00  0.00    -0.189 C  
HETATM   16  C   UNL     1     -10.021   4.905  70.570  1.00  0.00    -0.311 C  
BRANCH  16  17
HETATM   17  C   UNL     1      -9.072   4.142  69.765  1.00  0.00    -0.176 C  
HETATM   18  C   UNL     1      -6.743   3.897  68.869  1.00  0.00    -0.045 C  
HETATM   19  O   UNL     1      -6.892   2.893  68.198  1.00  0.00    -0.046 OA 
HETATM   20  C   UNL     1      -7.791   4.559  69.674  1.00  0.00    -0.058 C  
HETATM   21  C   UNL     1      -9.623   2.913  69.094  1.00  0.00    -0.054 C  
HETATM   22  O   UNL     1      -5.565   4.553  68.953  1.00  0.00    -0.011 OA 
ENDBRANCH  16  17
ENDBRANCH   3  15
TORSDOF 4
ENDMDL
MODEL      178
REMARK 921   NORMALIZED FREE ENERGY PREDICTED BY IDOCK:   -3.55 KCAL/MOL
REMARK 922        TOTAL FREE ENERGY PREDICTED BY IDOCK:   -5.77 KCAL/MOL
REMARK 923 INTER-LIGAND FREE ENERGY PREDICTED BY IDOCK:   -4.43 KCAL/MOL
REMARK 924 INTRA-LIGAND FREE ENERGY PREDICTED BY IDOCK:   -1.34 KCAL/MOL
REMARK 927      BINDING AFFINITY PREDICTED BY RF-SCORE:    0.00 PKD
ROOT
HETATM    1  C   UNL     1     -10.381   6.136  69.498  1.00  0.00    -0.277 C  
HETATM    2  C   UNL     1     -10.441   7.259  68.499  1.00  0.00    -0.215 C  
HETATM    3  C   UNL     1     -10.750   8.511  68.901  1.00  0.00    -0.100 C  
ENDROOT
BRANCH   2   4
HETATM    4  C   UNL     1     -10.103   6.934  67.119  1.00  0.00    -0.272 C  
HETATM    5  C   UNL     1      -8.882   7.049  66.573  1.00  0.00    -0.151 C  
BRANCH   5   6
HETATM    6  C   UNL     1      -8.525   6.636  65.206  1.00  0.00    -0.078 C  
HETATM    7  C   UNL     1      -9.445   4.258  65.134  1.00  0.00    -0.172 C  
HETATM    8  C   UNL     1      -8.434   7.564  64.231  1.00  0.00     0.211 C  
HETATM    9  C   UNL     1      -7.997   7.258  62.826  1.00  0.00    -0.113 C  
HETATM   10  C   UNL     1      -8.749   9.035  64.407  1.00  0.00    -0.151 C  
HETATM   11  C   UNL     1      -7.149   4.681  66.043  1.00  0.00    -0.075 C  
HETATM   12  C   UNL     1      -8.184   5.145  64.983  1.00  0.00    -0.130 C  
HETATM   13  C   UNL     1      -7.555   4.810  63.596  1.00  0.00    -0.064 C  
HETATM   14  C   UNL     1      -7.628   5.831  62.475  1.00  0.00    -0.069 C  
ENDBRANCH   5   6
ENDBRANCH   2   4
BRANCH   3  15
HETATM   15  C   UNL     1     -10.886   9.654  68.025  1.00  0.00    -0.250 C  
HETATM   16  C   UNL     1      -9.916  10.541  67.750  1.00  0.00    -0.198 C  
BRANCH  16  17
HETATM   17  C   UNL     1     -10.157  11.709  66.908  1.00  0.00    -0.238 C  
HETATM   18  C   UNL     1     -11.705  12.960  65.383  1.00  0.00    -0.375 C  
HETATM   19  O   UNL     1     -10.985  13.899  65.095  1.00  0.00    -0.319 OA 
HETATM   20  C   UNL     1     -11.347  11.845  66.285  1.00  0.00    -0.394 C  
HETATM   21  C   UNL     1      -9.023  12.693  66.815  1.00  0.00    -0.197 C  
HETATM   22  O   UNL     1     -12.954  12.817  64.888  1.00  0.00    -0.805 OA 
ENDBRANCH  16  17
ENDBRANCH   3  15
TORSDOF 4
ENDMDL
MODEL      179
REMARK 921   NORMALIZED FREE ENERGY PREDICTED BY IDOCK:   -3.53 KCAL/MOL
REMARK 922        TOTAL FREE ENERGY PREDICTED BY IDOCK:   -5.75 KCAL/MOL
REMARK 923 INTER-LIGAND FREE ENERGY PREDICTED BY IDOCK:   -4.81 KCAL/MOL
REMARK 924 INTRA-LIGAND FREE ENERGY PREDICTED BY IDOCK:   -0.94 KCAL/MOL
REMARK 927      BINDING AFFINITY PREDICTED BY RF-SCORE:    0.00 PKD
ROOT
HETATM    1  C   UNL     1      -9.969  10.508  67.129  1.00  0.00    -0.234 C  
HETATM    2  C   UNL     1      -9.679   9.034  67.206  1.00  0.00    -0.232 C  
HETATM    3  C   UNL     1      -9.421   8.332  66.081  1.00  0.00    -0.241 C  
ENDROOT
BRANCH   2   4
HETATM    4  C   UNL     1      -9.639   8.437  68.535  1.00  0.00    -0.155 C  
HETATM    5  C   UNL     1      -9.881   9.088  69.684  1.00  0.00    -0.182 C  
BRANCH   5   6
HETATM    6  C   UNL     1      -9.928   8.462  71.015  1.00  0.00    -0.235 C  
HETATM    7  C   UNL     1     -11.774   6.729  70.702  1.00  0.00    -0.440 C  
HETATM    8  C   UNL     1      -8.812   8.416  71.771  1.00  0.00    -0.257 C  
HETATM    9  C   UNL     1      -8.774   7.876  73.173  1.00  0.00    -0.278 C  
HETATM   10  C   UNL     1      -7.448   8.904  71.327  1.00  0.00    -0.127 C  
HETATM   11  C   UNL     1     -12.363   9.080  71.336  1.00  0.00    -0.380 C  
HETATM   12  C   UNL     1     -11.303   7.960  71.515  1.00  0.00    -0.293 C  
HETATM   13  C   UNL     1     -11.354   7.559  73.020  1.00  0.00    -0.313 C  
HETATM   14  C   UNL     1     -10.059   7.356  73.786  1.00  0.00    -0.329 C  
ENDBRANCH   5   6
ENDBRANCH   2   4
BRANCH   3  15
HETATM   15  C   UNL     1      -9.178   6.907  66.029  1.00  0.00    -0.062 C  
HETATM   16  C   UNL     1     -10.106   5.955  66.212  1.00  0.00    -0.100 C  
BRANCH  16  17
HETATM   17  C   UNL     1      -9.764   4.536  66.212  1.00  0.00    -0.216 C  
HETATM   18  C   UNL     1      -8.913   2.544  67.475  1.00  0.00    -0.161 C  
HETATM   19  O   UNL     1      -8.932   1.718  66.580  1.00  0.00    -0.123 OA 
HETATM   20  C   UNL     1      -9.322   3.959  67.350  1.00  0.00    -0.225 C  
HETATM   21  C   UNL     1      -9.950   3.818  64.903  1.00  0.00    -0.171 C  
HETATM   22  O   UNL     1      -8.493   2.257  68.726  1.00  0.00    -0.058 OA 
ENDBRANCH  16  17
ENDBRANCH   3  15
TORSDOF 4
ENDMDL
MODEL      180
REMARK 921   NORMALIZED FREE ENERGY PREDICTED BY IDOCK:   -3.53 KCAL/MOL
REMARK 922        TOTAL FREE ENERGY PREDICTED BY IDOCK:   -5.75 KCAL/MOL
REMARK 923 INTER-LIGAND FREE ENERGY PREDICTED BY IDOCK:   -5.08 KCAL/MOL
REMARK 924 INTRA-LIGAND FREE ENERGY PREDICTED BY IDOCK:   -0.66 KCAL/MOL
REMARK 927      BINDING AFFINITY PREDICTED BY RF-SCORE:    0.00 PKD
ROOT
HETATM    1  C   UNL     1      -5.564  16.238  67.617  1.00  0.00    -0.167 C  
HETATM    2  C   UNL     1      -6.872  15.528  67.402  1.00  0.00    -0.224 C  
HETATM    3  C   UNL     1      -7.878  16.142  66.741  1.00  0.00    -0.296 C  
ENDROOT
BRANCH   2   4
HETATM    4  C   UNL     1      -6.967  14.158  67.888  1.00  0.00    -0.173 C  
HETATM    5  C   UNL     1      -6.306  13.107  67.378  1.00  0.00    -0.063 C  
BRANCH   5   6
HETATM    6  C   UNL     1      -6.336  11.742  67.928  1.00  0.00    -0.057 C  
HETATM    7  C   UNL     1      -5.807  10.345  65.861  1.00  0.00    -0.099 C  
HETATM    8  C   UNL     1      -6.016  11.537  69.222  1.00  0.00    -0.065 C  
HETATM    9  C   UNL     1      -6.096  10.198  69.900  1.00  0.00    -0.057 C  
HETATM   10  C   UNL     1      -5.539  12.615  70.175  1.00  0.00    -0.138 C  
HETATM   11  C   UNL     1      -8.170  11.027  66.334  1.00  0.00    -0.166 C  
HETATM   12  C   UNL     1      -6.828  10.612  66.994  1.00  0.00    -0.091 C  
HETATM   13  C   UNL     1      -7.100   9.246  67.694  1.00  0.00    -0.082 C  
HETATM   14  C   UNL     1      -6.569   9.004  69.096  1.00  0.00    -0.050 C  
ENDBRANCH   5   6
ENDBRANCH   2   4
BRANCH   3  15
HETATM   15  C   UNL     1      -9.191  15.578  66.520  1.00  0.00    -0.324 C  
HETATM   16  C   UNL     1      -9.438  14.367  65.995  1.00  0.00    -0.239 C  
BRANCH  16  17
HETATM   17  C   UNL     1     -10.798  13.900  65.741  1.00  0.00    -0.289 C  
HETATM   18  C   UNL     1     -12.365  12.564  64.311  1.00  0.00    -0.456 C  
HETATM   19  O   UNL     1     -13.411  12.799  64.889  1.00  0.00    -0.736 OA 
HETATM   20  C   UNL     1     -11.034  13.080  64.695  1.00  0.00    -0.364 C  
HETATM   21  C   UNL     1     -11.846  14.384  66.706  1.00  0.00    -0.431 C  
HETATM   22  O   UNL     1     -12.297  11.786  63.209  1.00  0.00    -0.518 OA 
ENDBRANCH  16  17
ENDBRANCH   3  15
TORSDOF 4
ENDMDL
MODEL      181
REMARK 921   NORMALIZED FREE ENERGY PREDICTED BY IDOCK:   -3.53 KCAL/MOL
REMARK 922        TOTAL FREE ENERGY PREDICTED BY IDOCK:   -5.75 KCAL/MOL
REMARK 923 INTER-LIGAND FREE ENERGY PREDICTED BY IDOCK:   -4.45 KCAL/MOL
REMARK 924 INTRA-LIGAND FREE ENERGY PREDICTED BY IDOCK:   -1.30 KCAL/MOL
REMARK 927      BINDING AFFINITY PREDICTED BY RF-SCORE:    0.00 PKD
ROOT
HETATM    1  C   UNL     1      -8.675  15.492  69.126  1.00  0.00    -0.247 C  
HETATM    2  C   UNL     1      -8.258  14.195  68.488  1.00  0.00    -0.146 C  
HETATM    3  C   UNL     1      -7.399  13.370  69.126  1.00  0.00     0.098 C  
ENDROOT
BRANCH   2   4
HETATM    4  C   UNL     1      -8.860  13.867  67.203  1.00  0.00    -0.236 C  
HETATM    5  C   UNL     1      -9.859  12.990  67.017  1.00  0.00    -0.238 C  
BRANCH   5   6
HETATM    6  C   UNL     1     -10.525  12.728  65.731  1.00  0.00    -0.294 C  
HETATM    7  C   UNL     1     -11.051  15.093  64.935  1.00  0.00    -0.425 C  
HETATM    8  C   UNL     1     -10.203  11.624  65.026  1.00  0.00    -0.321 C  
HETATM    9  C   UNL     1     -10.882  11.223  63.746  1.00  0.00    -0.424 C  
HETATM   10  C   UNL     1      -9.126  10.633  65.417  1.00  0.00    -0.214 C  
HETATM   11  C   UNL     1     -12.642  13.909  66.466  1.00  0.00    -0.245 C  
HETATM   12  C   UNL     1     -11.640  13.707  65.297  1.00  0.00    -0.334 C  
HETATM   13  C   UNL     1     -12.493  13.242  64.078  1.00  0.00    -0.329 C  
HETATM   14  C   UNL     1     -11.999  12.096  63.212  1.00  0.00    -0.489 C  
ENDBRANCH   5   6
ENDBRANCH   2   4
BRANCH   3  15
HETATM   15  C   UNL     1      -6.890  12.127  68.589  1.00  0.00    -0.089 C  
HETATM   16  C   UNL     1      -7.356  10.904  68.889  1.00  0.00    -0.111 C  
BRANCH  16  17
HETATM   17  C   UNL     1      -6.739   9.693  68.356  1.00  0.00    -0.057 C  
HETATM   18  C   UNL     1      -6.991   7.301  67.648  1.00  0.00    -0.076 C  
HETATM   19  O   UNL     1      -5.837   7.060  67.344  1.00  0.00    -0.022 OA 
HETATM   20  C   UNL     1      -7.497   8.595  68.151  1.00  0.00    -0.096 C  
HETATM   21  C   UNL     1      -5.265   9.784  68.063  1.00  0.00    -0.039 C  
HETATM   22  O   UNL     1      -7.976   6.380  67.568  1.00  0.00    -0.113 OA 
ENDBRANCH  16  17
ENDBRANCH   3  15
TORSDOF 4
ENDMDL
MODEL      182
REMARK 921   NORMALIZED FREE ENERGY PREDICTED BY IDOCK:   -3.52 KCAL/MOL
REMARK 922        TOTAL FREE ENERGY PREDICTED BY IDOCK:   -5.74 KCAL/MOL
REMARK 923 INTER-LIGAND FREE ENERGY PREDICTED BY IDOCK:   -5.02 KCAL/MOL
REMARK 924 INTRA-LIGAND FREE ENERGY PREDICTED BY IDOCK:   -0.72 KCAL/MOL
REMARK 927      BINDING AFFINITY PREDICTED BY RF-SCORE:    0.00 PKD
ROOT
HETATM    1  C   UNL     1      -8.097   8.258  63.715  1.00  0.00    -0.126 C  
HETATM    2  C   UNL     1      -8.567   9.348  64.639  1.00  0.00    -0.209 C  
HETATM    3  C   UNL     1      -9.081  10.492  64.135  1.00  0.00    -0.258 C  
ENDROOT
BRANCH   2   4
HETATM    4  C   UNL     1      -8.488   9.082  66.069  1.00  0.00    -0.138 C  
HETATM    5  C   UNL     1      -9.463   8.533  66.811  1.00  0.00    -0.253 C  
BRANCH   5   6
HETATM    6  C   UNL     1      -9.346   8.184  68.235  1.00  0.00    -0.137 C  
HETATM    7  C   UNL     1      -8.594   5.750  68.106  1.00  0.00    -0.108 C  
HETATM    8  C   UNL     1      -9.041   9.142  69.134  1.00  0.00    -0.144 C  
HETATM    9  C   UNL     1      -8.979   8.907  70.618  1.00  0.00    -0.237 C  
HETATM   10  C   UNL     1      -8.724  10.583  68.787  1.00  0.00    -0.154 C  
HETATM   11  C   UNL     1     -11.035   6.309  68.023  1.00  0.00    -0.418 C  
HETATM   12  C   UNL     1      -9.672   6.727  68.637  1.00  0.00    -0.131 C  
HETATM   13  C   UNL     1      -9.799   6.476  70.171  1.00  0.00    -0.185 C  
HETATM   14  C   UNL     1      -9.284   7.520  71.146  1.00  0.00    -0.151 C  
ENDBRANCH   5   6
ENDBRANCH   2   4
BRANCH   3  15
HETATM   15  C   UNL     1      -9.516  11.624  64.923  1.00  0.00    -0.104 C  
HETATM   16  C   UNL     1     -10.534  12.442  64.611  1.00  0.00    -0.338 C  
BRANCH  16  17
HETATM   17  C   UNL     1     -10.864  13.606  65.427  1.00  0.00    -0.302 C  
HETATM   18  C   UNL     1     -10.857  16.099  65.694  1.00  0.00    -0.238 C  
HETATM   19  O   UNL     1     -11.344  16.181  66.807  1.00  0.00     0.057 OA 
HETATM   20  C   UNL     1     -10.601  14.844  64.957  1.00  0.00    -0.446 C  
HETATM   21  C   UNL     1     -11.499  13.312  66.759  1.00  0.00    -0.387 C  
HETATM   22  O   UNL     1     -10.470  17.180  64.983  1.00  0.00    -0.611 OA 
ENDBRANCH  16  17
ENDBRANCH   3  15
TORSDOF 4
ENDMDL
MODEL      183
REMARK 921   NORMALIZED FREE ENERGY PREDICTED BY IDOCK:   -3.50 KCAL/MOL
REMARK 922        TOTAL FREE ENERGY PREDICTED BY IDOCK:   -5.72 KCAL/MOL
REMARK 923 INTER-LIGAND FREE ENERGY PREDICTED BY IDOCK:   -4.50 KCAL/MOL
REMARK 924 INTRA-LIGAND FREE ENERGY PREDICTED BY IDOCK:   -1.21 KCAL/MOL
REMARK 927      BINDING AFFINITY PREDICTED BY RF-SCORE:    0.00 PKD
ROOT
HETATM    1  C   UNL     1      -8.888  16.134  69.135  1.00  0.00    -0.239 C  
HETATM    2  C   UNL     1      -8.634  14.771  68.552  1.00  0.00    -0.168 C  
HETATM    3  C   UNL     1      -7.535  14.072  68.912  1.00  0.00    -0.095 C  
ENDROOT
BRANCH   2   4
HETATM    4  C   UNL     1      -9.642  14.243  67.643  1.00  0.00    -0.219 C  
HETATM    5  C   UNL     1      -9.476  14.060  66.323  1.00  0.00    -0.249 C  
BRANCH   5   6
HETATM    6  C   UNL     1     -10.465  13.443  65.425  1.00  0.00    -0.310 C  
HETATM    7  C   UNL     1     -11.020  11.291  66.675  1.00  0.00    -0.326 C  
HETATM    8  C   UNL     1     -11.246  14.227  64.654  1.00  0.00    -0.370 C  
HETATM    9  C   UNL     1     -12.226  13.696  63.645  1.00  0.00    -0.376 C  
HETATM   10  C   UNL     1     -11.247  15.742  64.684  1.00  0.00    -0.373 C  
HETATM   11  C   UNL     1      -9.053  11.363  65.126  1.00  0.00    -0.058 C  
HETATM   12  C   UNL     1     -10.492  11.899  65.352  1.00  0.00    -0.312 C  
HETATM   13  C   UNL     1     -11.356  11.305  64.200  1.00  0.00    -0.126 C  
HETATM   14  C   UNL     1     -12.347  12.196  63.470  1.00  0.00    -0.682 C  
ENDBRANCH   5   6
ENDBRANCH   2   4
BRANCH   3  15
HETATM   15  C   UNL     1      -7.164  12.779  68.381  1.00  0.00    -0.115 C  
HETATM   16  C   UNL     1      -5.954  12.457  67.897  1.00  0.00    -0.093 C  
BRANCH  16  17
HETATM   17  C   UNL     1      -5.681  11.147  67.313  1.00  0.00    -0.058 C  
HETATM   18  C   UNL     1      -5.304   9.760  65.259  1.00  0.00    -0.051 C  
HETATM   19  O   UNL     1      -5.180   8.666  65.778  1.00  0.00    -0.033 OA 
HETATM   20  C   UNL     1      -5.549  11.030  65.975  1.00  0.00    -0.143 C  
HETATM   21  C   UNL     1      -5.557  10.009  68.290  1.00  0.00    -0.038 C  
HETATM   22  O   UNL     1      -5.242   9.948  63.923  1.00  0.00    -0.069 OA 
ENDBRANCH  16  17
ENDBRANCH   3  15
TORSDOF 4
ENDMDL
MODEL      184
REMARK 921   NORMALIZED FREE ENERGY PREDICTED BY IDOCK:   -3.49 KCAL/MOL
REMARK 922        TOTAL FREE ENERGY PREDICTED BY IDOCK:   -5.70 KCAL/MOL
REMARK 923 INTER-LIGAND FREE ENERGY PREDICTED BY IDOCK:   -4.51 KCAL/MOL
REMARK 924 INTRA-LIGAND FREE ENERGY PREDICTED BY IDOCK:   -1.19 KCAL/MOL
REMARK 927      BINDING AFFINITY PREDICTED BY RF-SCORE:    0.00 PKD
ROOT
HETATM    1  C   UNL     1      -8.913  10.460  65.251  1.00  0.00    -0.212 C  
HETATM    2  C   UNL     1      -9.049   9.005  65.605  1.00  0.00    -0.278 C  
HETATM    3  C   UNL     1      -8.397   8.066  64.885  1.00  0.00    -0.108 C  
ENDROOT
BRANCH   2   4
HETATM    4  C   UNL     1      -9.860   8.682  66.772  1.00  0.00    -0.322 C  
HETATM    5  C   UNL     1      -9.381   8.319  67.972  1.00  0.00    -0.141 C  
BRANCH   5   6
HETATM    6  C   UNL     1     -10.200   8.081  69.172  1.00  0.00    -0.221 C  
HETATM    7  C   UNL     1     -10.828  10.460  69.843  1.00  0.00    -0.353 C  
HETATM    8  C   UNL     1     -10.897   6.932  69.287  1.00  0.00    -0.270 C  
HETATM    9  C   UNL     1     -11.694   6.557  70.505  1.00  0.00    -0.438 C  
HETATM   10  C   UNL     1     -10.973   5.857  68.221  1.00  0.00    -0.262 C  
HETATM   11  C   UNL     1      -8.663   9.473  70.625  1.00  0.00    -0.189 C  
HETATM   12  C   UNL     1     -10.143   9.145  70.291  1.00  0.00    -0.244 C  
HETATM   13  C   UNL     1     -10.803   8.724  71.639  1.00  0.00    -0.399 C  
HETATM   14  C   UNL     1     -11.718   7.513  71.679  1.00  0.00    -0.313 C  
ENDBRANCH   5   6
ENDBRANCH   2   4
BRANCH   3  15
HETATM   15  C   UNL     1      -8.492   6.639  65.103  1.00  0.00    -0.041 C  
HETATM   16  C   UNL     1      -7.538   5.873  65.655  1.00  0.00    -0.084 C  
BRANCH  16  17
HETATM   17  C   UNL     1      -7.687   4.425  65.774  1.00  0.00    -0.090 C  
HETATM   18  C   UNL     1      -8.648   2.472  67.019  1.00  0.00    -0.110 C  
HETATM   19  O   UNL     1      -8.176   1.564  66.360  1.00  0.00    -0.073 OA 
HETATM   20  C   UNL     1      -8.443   3.915  66.769  1.00  0.00    -0.105 C  
HETATM   21  C   UNL     1      -6.968   3.606  64.737  1.00  0.00    -0.050 C  
HETATM   22  O   UNL     1      -9.433   2.262  68.098  1.00  0.00    -0.208 OA 
ENDBRANCH  16  17
ENDBRANCH   3  15
TORSDOF 4
ENDMDL
MODEL      185
REMARK 921   NORMALIZED FREE ENERGY PREDICTED BY IDOCK:   -3.48 KCAL/MOL
REMARK 922        TOTAL FREE ENERGY PREDICTED BY IDOCK:   -5.69 KCAL/MOL
REMARK 923 INTER-LIGAND FREE ENERGY PREDICTED BY IDOCK:   -5.04 KCAL/MOL
REMARK 924 INTRA-LIGAND FREE ENERGY PREDICTED BY IDOCK:   -0.65 KCAL/MOL
REMARK 927      BINDING AFFINITY PREDICTED BY RF-SCORE:    0.00 PKD
ROOT
HETATM    1  C   UNL     1      -7.777   7.909  62.527  1.00  0.00    -0.131 C  
HETATM    2  C   UNL     1      -8.370   8.900  63.490  1.00  0.00    -0.168 C  
HETATM    3  C   UNL     1      -8.962  10.024  63.030  1.00  0.00    -0.272 C  
ENDROOT
BRANCH   2   4
HETATM    4  C   UNL     1      -8.318   8.558  64.905  1.00  0.00    -0.171 C  
HETATM    5  C   UNL     1      -8.492   9.423  65.918  1.00  0.00    -0.135 C  
BRANCH   5   6
HETATM    6  C   UNL     1      -8.528   9.058  67.343  1.00  0.00    -0.115 C  
HETATM    7  C   UNL     1     -10.517   7.462  67.413  1.00  0.00    -0.366 C  
HETATM    8  C   UNL     1      -7.386   9.057  68.060  1.00  0.00    -0.084 C  
HETATM    9  C   UNL     1      -7.328   8.781  69.537  1.00  0.00    -0.067 C  
HETATM   10  C   UNL     1      -6.009   9.336  67.493  1.00  0.00    -0.049 C  
HETATM   11  C   UNL     1     -10.890   9.931  67.615  1.00  0.00    -0.318 C  
HETATM   12  C   UNL     1      -9.914   8.776  67.968  1.00  0.00    -0.220 C  
HETATM   13  C   UNL     1      -9.929   8.664  69.522  1.00  0.00    -0.196 C  
HETATM   14  C   UNL     1      -8.620   8.495  70.274  1.00  0.00    -0.137 C  
ENDBRANCH   5   6
ENDBRANCH   2   4
BRANCH   3  15
HETATM   15  C   UNL     1      -9.519  11.069  63.861  1.00  0.00    -0.280 C  
HETATM   16  C   UNL     1     -10.815  11.416  63.905  1.00  0.00    -0.463 C  
BRANCH  16  17
HETATM   17  C   UNL     1     -11.285  12.531  64.722  1.00  0.00    -0.344 C  
HETATM   18  C   UNL     1     -11.066  13.881  66.823  1.00  0.00    -0.303 C  
HETATM   19  O   UNL     1     -11.985  14.662  66.655  1.00  0.00    -0.368 OA 
HETATM   20  C   UNL     1     -10.669  12.805  65.892  1.00  0.00    -0.294 C  
HETATM   21  C   UNL     1     -12.448  13.306  64.164  1.00  0.00    -0.330 C  
HETATM   22  O   UNL     1     -10.281  13.901  67.923  1.00  0.00    -0.232 OA 
ENDBRANCH  16  17
ENDBRANCH   3  15
TORSDOF 4
ENDMDL
MODEL      186
REMARK 921   NORMALIZED FREE ENERGY PREDICTED BY IDOCK:   -3.48 KCAL/MOL
REMARK 922        TOTAL FREE ENERGY PREDICTED BY IDOCK:   -5.69 KCAL/MOL
REMARK 923 INTER-LIGAND FREE ENERGY PREDICTED BY IDOCK:   -4.67 KCAL/MOL
REMARK 924 INTRA-LIGAND FREE ENERGY PREDICTED BY IDOCK:   -1.02 KCAL/MOL
REMARK 927      BINDING AFFINITY PREDICTED BY RF-SCORE:    0.00 PKD
ROOT
HETATM    1  C   UNL     1      -5.423  12.259  67.386  1.00  0.00    -0.127 C  
HETATM    2  C   UNL     1      -6.630  11.437  67.747  1.00  0.00    -0.069 C  
HETATM    3  C   UNL     1      -6.622  10.099  67.560  1.00  0.00    -0.068 C  
ENDROOT
BRANCH   2   4
HETATM    4  C   UNL     1      -7.756  12.143  68.344  1.00  0.00    -0.134 C  
HETATM    5  C   UNL     1      -8.295  13.280  67.875  1.00  0.00    -0.163 C  
BRANCH   5   6
HETATM    6  C   UNL     1      -9.487  13.941  68.428  1.00  0.00    -0.211 C  
HETATM    7  C   UNL     1     -11.022  11.951  68.859  1.00  0.00    -0.285 C  
HETATM    8  C   UNL     1      -9.354  15.099  69.106  1.00  0.00    -0.215 C  
HETATM    9  C   UNL     1     -10.514  15.894  69.638  1.00  0.00    -0.295 C  
HETATM   10  C   UNL     1      -8.031  15.767  69.424  1.00  0.00    -0.211 C  
HETATM   11  C   UNL     1     -10.976  13.024  66.596  1.00  0.00    -0.301 C  
HETATM   12  C   UNL     1     -10.860  13.301  68.119  1.00  0.00    -0.270 C  
HETATM   13  C   UNL     1     -12.097  14.175  68.490  1.00  0.00    -0.312 C  
HETATM   14  C   UNL     1     -11.918  15.379  69.398  1.00  0.00    -0.351 C  
ENDBRANCH   5   6
ENDBRANCH   2   4
BRANCH   3  15
HETATM   15  C   UNL     1      -7.738   9.217  67.822  1.00  0.00    -0.088 C  
HETATM   16  C   UNL     1      -8.126   8.798  69.036  1.00  0.00    -0.116 C  
BRANCH  16  17
HETATM   17  C   UNL     1      -9.224   7.850  69.209  1.00  0.00    -0.148 C  
HETATM   18  C   UNL     1     -11.386   7.269  70.336  1.00  0.00    -0.271 C  
HETATM   19  O   UNL     1     -11.576   6.169  69.849  1.00  0.00    -0.404 OA 
HETATM   20  C   UNL     1     -10.236   8.152  70.049  1.00  0.00    -0.202 C  
HETATM   21  C   UNL     1      -9.128   6.585  68.401  1.00  0.00    -0.123 C  
HETATM   22  O   UNL     1     -12.228   7.826  71.234  1.00  0.00    -0.307 OA 
ENDBRANCH  16  17
ENDBRANCH   3  15
TORSDOF 4
ENDMDL
MODEL      187
REMARK 921   NORMALIZED FREE ENERGY PREDICTED BY IDOCK:   -3.45 KCAL/MOL
REMARK 922        TOTAL FREE ENERGY PREDICTED BY IDOCK:   -5.66 KCAL/MOL
REMARK 923 INTER-LIGAND FREE ENERGY PREDICTED BY IDOCK:   -4.51 KCAL/MOL
REMARK 924 INTRA-LIGAND FREE ENERGY PREDICTED BY IDOCK:   -1.15 KCAL/MOL
REMARK 927      BINDING AFFINITY PREDICTED BY RF-SCORE:    0.00 PKD
ROOT
HETATM    1  C   UNL     1      -6.875   8.288  65.883  1.00  0.00    -0.064 C  
HETATM    2  C   UNL     1      -7.828   9.229  66.567  1.00  0.00    -0.100 C  
HETATM    3  C   UNL     1      -8.106  10.433  66.020  1.00  0.00    -0.143 C  
ENDROOT
BRANCH   2   4
HETATM    4  C   UNL     1      -8.457   8.756  67.793  1.00  0.00    -0.125 C  
HETATM    5  C   UNL     1      -9.686   8.222  67.878  1.00  0.00    -0.192 C  
BRANCH   5   6
HETATM    6  C   UNL     1     -10.282   7.663  69.102  1.00  0.00    -0.204 C  
HETATM    7  C   UNL     1      -8.646   5.787  69.659  1.00  0.00    -0.116 C  
HETATM    8  C   UNL     1     -11.001   8.461  69.918  1.00  0.00    -0.166 C  
HETATM    9  C   UNL     1     -11.718   7.972  71.145  1.00  0.00    -0.307 C  
HETATM   10  C   UNL     1     -11.195   9.950  69.718  1.00  0.00    -0.279 C  
HETATM   11  C   UNL     1     -10.529   5.368  68.060  1.00  0.00    -0.192 C  
HETATM   12  C   UNL     1     -10.119   6.144  69.341  1.00  0.00    -0.230 C  
HETATM   13  C   UNL     1     -10.989   5.558  70.493  1.00  0.00    -0.196 C  
HETATM   14  C   UNL     1     -11.644   6.498  71.490  1.00  0.00    -0.366 C  
ENDBRANCH   5   6
ENDBRANCH   2   4
BRANCH   3  15
HETATM   15  C   UNL     1      -8.964  11.436  66.612  1.00  0.00    -0.183 C  
HETATM   16  C   UNL     1      -8.749  12.760  66.575  1.00  0.00     0.015 C  
BRANCH  16  17
HETATM   17  C   UNL     1      -9.630  13.702  67.259  1.00  0.00    -0.238 C  
HETATM   18  C   UNL     1     -11.267  14.139  69.107  1.00  0.00    -0.272 C  
HETATM   19  O   UNL     1     -11.536  15.302  68.864  1.00  0.00    -0.310 OA 
HETATM   20  C   UNL     1     -10.321  13.297  68.346  1.00  0.00    -0.254 C  
HETATM   21  C   UNL     1      -9.683  15.089  66.678  1.00  0.00    -0.273 C  
HETATM   22  O   UNL     1     -11.828  13.457  70.130  1.00  0.00    -0.311 OA 
ENDBRANCH  16  17
ENDBRANCH   3  15
TORSDOF 4
ENDMDL
MODEL      188
REMARK 921   NORMALIZED FREE ENERGY PREDICTED BY IDOCK:   -3.45 KCAL/MOL
REMARK 922        TOTAL FREE ENERGY PREDICTED BY IDOCK:   -5.65 KCAL/MOL
REMARK 923 INTER-LIGAND FREE ENERGY PREDICTED BY IDOCK:   -4.79 KCAL/MOL
REMARK 924 INTRA-LIGAND FREE ENERGY PREDICTED BY IDOCK:   -0.86 KCAL/MOL
REMARK 927      BINDING AFFINITY PREDICTED BY RF-SCORE:    0.00 PKD
ROOT
HETATM    1  C   UNL     1     -10.975   6.576  71.449  1.00  0.00    -0.303 C  
HETATM    2  C   UNL     1     -10.689   7.900  70.795  1.00  0.00    -0.230 C  
HETATM    3  C   UNL     1     -11.312   9.019  71.226  1.00  0.00    -0.389 C  
ENDROOT
BRANCH   2   4
HETATM    4  C   UNL     1      -9.688   7.912  69.737  1.00  0.00    -0.176 C  
HETATM    5  C   UNL     1      -8.689   7.026  69.605  1.00  0.00    -0.141 C  
BRANCH   5   6
HETATM    6  C   UNL     1      -7.735   6.988  68.485  1.00  0.00    -0.120 C  
HETATM    7  C   UNL     1      -9.304   6.990  66.475  1.00  0.00    -0.201 C  
HETATM    8  C   UNL     1      -6.510   7.534  68.633  1.00  0.00    -0.044 C  
HETATM    9  C   UNL     1      -5.437   7.476  67.583  1.00  0.00    -0.030 C  
HETATM   10  C   UNL     1      -6.038   8.274  69.869  1.00  0.00    -0.032 C  
HETATM   11  C   UNL     1      -8.707   4.828  67.590  1.00  0.00    -0.106 C  
HETATM   12  C   UNL     1      -8.169   6.233  67.208  1.00  0.00    -0.109 C  
HETATM   13  C   UNL     1      -7.037   5.989  66.166  1.00  0.00    -0.067 C  
HETATM   14  C   UNL     1      -5.732   6.758  66.282  1.00  0.00    -0.025 C  
ENDBRANCH   5   6
ENDBRANCH   2   4
BRANCH   3  15
HETATM   15  C   UNL     1     -11.154  10.334  70.643  1.00  0.00    -0.358 C  
HETATM   16  C   UNL     1     -12.150  11.094  70.162  1.00  0.00    -0.443 C  
BRANCH  16  17
HETATM   17  C   UNL     1     -11.897  12.383  69.525  1.00  0.00    -0.368 C  
HETATM   18  C   UNL     1     -11.316  13.662  67.448  1.00  0.00    -0.315 C  
HETATM   19  O   UNL     1     -11.284  14.788  67.910  1.00  0.00    -0.281 OA 
HETATM   20  C   UNL     1     -11.621  12.429  68.205  1.00  0.00    -0.395 C  
HETATM   21  C   UNL     1     -11.978  13.585  70.427  1.00  0.00    -0.367 C  
HETATM   22  O   UNL     1     -11.057  13.396  66.149  1.00  0.00    -0.286 OA 
ENDBRANCH  16  17
ENDBRANCH   3  15
TORSDOF 4
ENDMDL
MODEL      189
REMARK 921   NORMALIZED FREE ENERGY PREDICTED BY IDOCK:   -3.44 KCAL/MOL
REMARK 922        TOTAL FREE ENERGY PREDICTED BY IDOCK:   -5.64 KCAL/MOL
REMARK 923 INTER-LIGAND FREE ENERGY PREDICTED BY IDOCK:   -4.70 KCAL/MOL
REMARK 924 INTRA-LIGAND FREE ENERGY PREDICTED BY IDOCK:   -0.94 KCAL/MOL
REMARK 927      BINDING AFFINITY PREDICTED BY RF-SCORE:    0.00 PKD
ROOT
HETATM    1  C   UNL     1      -5.404  12.283  67.326  1.00  0.00    -0.099 C  
HETATM    2  C   UNL     1      -6.657  11.670  67.887  1.00  0.00    -0.065 C  
HETATM    3  C   UNL     1      -6.707  10.345  68.151  1.00  0.00    -0.061 C  
ENDROOT
BRANCH   2   4
HETATM    4  C   UNL     1      -7.765  12.573  68.172  1.00  0.00    -0.141 C  
HETATM    5  C   UNL     1      -8.371  13.364  67.273  1.00  0.00    -0.183 C  
BRANCH   5   6
HETATM    6  C   UNL     1      -9.546  14.207  67.546  1.00  0.00    -0.223 C  
HETATM    7  C   UNL     1      -8.970  16.325  66.248  1.00  0.00    -0.366 C  
HETATM    8  C   UNL     1     -10.742  13.628  67.780  1.00  0.00    -0.255 C  
HETATM    9  C   UNL     1     -11.982  14.394  68.150  1.00  0.00    -0.320 C  
HETATM   10  C   UNL     1     -11.009  12.138  67.713  1.00  0.00    -0.278 C  
HETATM   11  C   UNL     1      -8.129  16.028  68.589  1.00  0.00    -0.187 C  
HETATM   12  C   UNL     1      -9.318  15.733  67.636  1.00  0.00    -0.216 C  
HETATM   13  C   UNL     1     -10.524  16.551  68.191  1.00  0.00    -0.313 C  
HETATM   14  C   UNL     1     -11.893  15.901  68.278  1.00  0.00    -0.065 C  
ENDBRANCH   5   6
ENDBRANCH   2   4
BRANCH   3  15
HETATM   15  C   UNL     1      -7.870   9.640  68.642  1.00  0.00    -0.081 C  
HETATM   16  C   UNL     1      -8.288   9.627  69.918  1.00  0.00    -0.195 C  
BRANCH  16  17
HETATM   17  C   UNL     1      -9.435   8.831  70.344  1.00  0.00    -0.206 C  
HETATM   18  C   UNL     1     -11.618   8.717  71.572  1.00  0.00    -0.302 C  
HETATM   19  O   UNL     1     -11.873   7.536  71.417  1.00  0.00    -0.275 OA 
HETATM   20  C   UNL     1     -10.423   9.416  71.055  1.00  0.00    -0.392 C  
HETATM   21  C   UNL     1      -9.417   7.384  69.931  1.00  0.00    -0.153 C  
HETATM   22  O   UNL     1     -12.421   9.553  72.266  1.00  0.00    -0.322 OA 
ENDBRANCH  16  17
ENDBRANCH   3  15
TORSDOF 4
ENDMDL
MODEL      190
REMARK 921   NORMALIZED FREE ENERGY PREDICTED BY IDOCK:   -3.37 KCAL/MOL
REMARK 922        TOTAL FREE ENERGY PREDICTED BY IDOCK:   -5.56 KCAL/MOL
REMARK 923 INTER-LIGAND FREE ENERGY PREDICTED BY IDOCK:   -5.25 KCAL/MOL
REMARK 924 INTRA-LIGAND FREE ENERGY PREDICTED BY IDOCK:   -0.30 KCAL/MOL
REMARK 927      BINDING AFFINITY PREDICTED BY RF-SCORE:    0.00 PKD
ROOT
HETATM    1  C   UNL     1      -6.258  12.995  69.548  1.00  0.00    -0.117 C  
HETATM    2  C   UNL     1      -7.298  12.783  68.482  1.00  0.00    -0.115 C  
HETATM    3  C   UNL     1      -7.900  13.842  67.899  1.00  0.00    -0.161 C  
ENDROOT
BRANCH   2   4
HETATM    4  C   UNL     1      -7.569  11.406  68.089  1.00  0.00    -0.114 C  
HETATM    5  C   UNL     1      -8.573  11.012  67.289  1.00  0.00    -0.130 C  
BRANCH   5   6
HETATM    6  C   UNL     1      -8.789   9.633  66.822  1.00  0.00    -0.148 C  
HETATM    7  C   UNL     1      -6.395   8.824  66.484  1.00  0.00    -0.062 C  
HETATM    8  C   UNL     1      -9.887   8.959  67.221  1.00  0.00    -0.256 C  
HETATM    9  C   UNL     1     -10.243   7.581  66.737  1.00  0.00    -0.324 C  
HETATM   10  C   UNL     1     -10.917   9.486  68.200  1.00  0.00    -0.144 C  
HETATM   11  C   UNL     1      -7.564  10.065  64.648  1.00  0.00    -0.143 C  
HETATM   12  C   UNL     1      -7.770   9.058  65.812  1.00  0.00    -0.091 C  
HETATM   13  C   UNL     1      -8.186   7.712  65.145  1.00  0.00    -0.130 C  
HETATM   14  C   UNL     1      -9.327   6.904  65.737  1.00  0.00     0.158 C  
ENDBRANCH   5   6
ENDBRANCH   2   4
BRANCH   3  15
HETATM   15  C   UNL     1      -8.946  13.758  66.903  1.00  0.00    -0.234 C  
HETATM   16  C   UNL     1      -9.368  14.774  66.133  1.00  0.00    -0.292 C  
BRANCH  16  17
HETATM   17  C   UNL     1     -10.479  14.621  65.199  1.00  0.00    -0.440 C  
HETATM   18  C   UNL     1     -11.850  13.114  63.737  1.00  0.00    -0.486 C  
HETATM   19  O   UNL     1     -12.610  13.936  63.261  1.00  0.00    -0.824 OA 
HETATM   20  C   UNL     1     -10.774  13.398  64.711  1.00  0.00    -0.403 C  
HETATM   21  C   UNL     1     -11.226  15.883  64.860  1.00  0.00    -0.345 C  
HETATM   22  O   UNL     1     -11.894  11.803  63.414  1.00  0.00    -0.453 OA 
ENDBRANCH  16  17
ENDBRANCH   3  15
TORSDOF 4
ENDMDL
MODEL      191
REMARK 921   NORMALIZED FREE ENERGY PREDICTED BY IDOCK:   -3.37 KCAL/MOL
REMARK 922        TOTAL FREE ENERGY PREDICTED BY IDOCK:   -5.56 KCAL/MOL
REMARK 923 INTER-LIGAND FREE ENERGY PREDICTED BY IDOCK:   -5.08 KCAL/MOL
REMARK 924 INTRA-LIGAND FREE ENERGY PREDICTED BY IDOCK:   -0.48 KCAL/MOL
REMARK 927      BINDING AFFINITY PREDICTED BY RF-SCORE:    0.00 PKD
ROOT
HETATM    1  C   UNL     1      -6.313  11.053  70.315  1.00  0.00    -0.120 C  
HETATM    2  C   UNL     1      -7.436  10.785  69.351  1.00  0.00    -0.124 C  
HETATM    3  C   UNL     1      -7.727  11.680  68.381  1.00  0.00    -0.130 C  
ENDROOT
BRANCH   2   4
HETATM    4  C   UNL     1      -8.134   9.514  69.487  1.00  0.00    -0.117 C  
HETATM    5  C   UNL     1      -7.783   8.522  70.321  1.00  0.00    -0.077 C  
BRANCH   5   6
HETATM    6  C   UNL     1      -8.543   7.277  70.520  1.00  0.00    -0.143 C  
HETATM    7  C   UNL     1      -6.717   5.684  71.314  1.00  0.00    -0.053 C  
HETATM    8  C   UNL     1      -9.849   7.339  70.853  1.00  0.00    -0.184 C  
HETATM    9  C   UNL     1     -10.732   6.131  70.997  1.00  0.00    -0.317 C  
HETATM   10  C   UNL     1     -10.612   8.620  71.121  1.00  0.00    -0.291 C  
HETATM   11  C   UNL     1      -7.108   6.011  68.861  1.00  0.00    -0.081 C  
HETATM   12  C   UNL     1      -7.807   5.946  70.246  1.00  0.00    -0.101 C  
HETATM   13  C   UNL     1      -8.719   4.682  70.206  1.00  0.00    -0.113 C  
HETATM   14  C   UNL     1     -10.134   4.761  70.750  1.00  0.00    -0.286 C  
ENDBRANCH   5   6
ENDBRANCH   2   4
BRANCH   3  15
HETATM   15  C   UNL     1      -8.812  11.552  67.433  1.00  0.00    -0.157 C  
HETATM   16  C   UNL     1      -9.188  12.493  66.553  1.00  0.00    -0.210 C  
BRANCH  16  17
HETATM   17  C   UNL     1     -10.341  12.311  65.676  1.00  0.00    -0.287 C  
HETATM   18  C   UNL     1     -12.592  13.109  64.914  1.00  0.00    -0.407 C  
HETATM   19  O   UNL     1     -12.846  12.240  64.099  1.00  0.00    -0.678 OA 
HETATM   20  C   UNL     1     -11.359  13.197  65.723  1.00  0.00    -0.331 C  
HETATM   21  C   UNL     1     -10.286  11.117  64.762  1.00  0.00    -0.365 C  
HETATM   22  O   UNL     1     -13.442  14.122  65.191  1.00  0.00    -0.502 OA 
ENDBRANCH  16  17
ENDBRANCH   3  15
TORSDOF 4
ENDMDL
MODEL      192
REMARK 921   NORMALIZED FREE ENERGY PREDICTED BY IDOCK:   -3.33 KCAL/MOL
REMARK 922        TOTAL FREE ENERGY PREDICTED BY IDOCK:   -5.51 KCAL/MOL
REMARK 923 INTER-LIGAND FREE ENERGY PREDICTED BY IDOCK:   -5.45 KCAL/MOL
REMARK 924 INTRA-LIGAND FREE ENERGY PREDICTED BY IDOCK:   -0.06 KCAL/MOL
REMARK 927      BINDING AFFINITY PREDICTED BY RF-SCORE:    0.00 PKD
ROOT
HETATM    1  C   UNL     1      -6.970  10.736  69.432  1.00  0.00    -0.116 C  
HETATM    2  C   UNL     1      -7.500  11.931  68.690  1.00  0.00    -0.118 C  
HETATM    3  C   UNL     1      -7.120  13.178  69.049  1.00  0.00    -0.030 C  
ENDROOT
BRANCH   2   4
HETATM    4  C   UNL     1      -8.380  11.670  67.559  1.00  0.00    -0.151 C  
HETATM    5  C   UNL     1      -9.614  12.177  67.404  1.00  0.00    -0.177 C  
BRANCH   5   6
HETATM    6  C   UNL     1     -10.464  11.982  66.219  1.00  0.00    -0.273 C  
HETATM    7  C   UNL     1     -10.094   9.508  65.722  1.00  0.00    -0.223 C  
HETATM    8  C   UNL     1     -11.561  12.748  66.052  1.00  0.00    -0.432 C  
HETATM    9  C   UNL     1     -12.447  12.687  64.838  1.00  0.00    -0.564 C  
HETATM   10  C   UNL     1     -12.056  13.777  67.048  1.00  0.00    -0.436 C  
HETATM   11  C   UNL     1      -8.504  11.216  64.809  1.00  0.00     0.254 C  
HETATM   12  C   UNL     1      -9.991  10.951  65.169  1.00  0.00    -0.341 C  
HETATM   13  C   UNL     1     -10.769  10.977  63.818  1.00  0.00    -0.294 C  
HETATM   14  C   UNL     1     -12.091  11.718  63.729  1.00  0.00    -0.463 C  
ENDBRANCH   5   6
ENDBRANCH   2   4
BRANCH   3  15
HETATM   15  C   UNL     1      -7.602  14.399  68.443  1.00  0.00    -0.122 C  
HETATM   16  C   UNL     1      -7.228  14.871  67.243  1.00  0.00    -0.142 C  
BRANCH  16  17
HETATM   17  C   UNL     1      -7.711  16.151  66.734  1.00  0.00    -0.288 C  
HETATM   18  C   UNL     1      -7.271  18.580  66.299  1.00  0.00    -0.254 C  
HETATM   19  O   UNL     1      -8.353  18.900  65.840  1.00  0.00    -0.483 OA 
HETATM   20  C   UNL     1      -6.894  17.225  66.754  1.00  0.00    -0.251 C  
HETATM   21  C   UNL     1      -9.120  16.154  66.206  1.00  0.00    -0.373 C  
HETATM   22  O   UNL     1      -6.257  19.458  66.461  1.00  0.00    -0.173 OA 
ENDBRANCH  16  17
ENDBRANCH   3  15
TORSDOF 4
ENDMDL
MODEL      193
REMARK 921   NORMALIZED FREE ENERGY PREDICTED BY IDOCK:   -3.32 KCAL/MOL
REMARK 922        TOTAL FREE ENERGY PREDICTED BY IDOCK:   -5.49 KCAL/MOL
REMARK 923 INTER-LIGAND FREE ENERGY PREDICTED BY IDOCK:   -5.09 KCAL/MOL
REMARK 924 INTRA-LIGAND FREE ENERGY PREDICTED BY IDOCK:   -0.41 KCAL/MOL
REMARK 927      BINDING AFFINITY PREDICTED BY RF-SCORE:    0.00 PKD
ROOT
HETATM    1  C   UNL     1      -8.894   3.361  67.181  1.00  0.00    -0.150 C  
HETATM    2  C   UNL     1      -9.513   4.650  67.648  1.00  0.00    -0.186 C  
HETATM    3  C   UNL     1      -9.832   5.613  66.755  1.00  0.00    -0.185 C  
ENDROOT
BRANCH   2   4
HETATM    4  C   UNL     1      -9.789   4.772  69.073  1.00  0.00    -0.239 C  
HETATM    5  C   UNL     1      -9.560   3.820  69.992  1.00  0.00    -0.259 C  
BRANCH   5   6
HETATM    6  C   UNL     1      -9.756   3.980  71.441  1.00  0.00    -0.253 C  
HETATM    7  C   UNL     1     -10.766   6.318  71.567  1.00  0.00    -0.292 C  
HETATM    8  C   UNL     1      -9.980   2.893  72.208  1.00  0.00    -0.238 C  
HETATM    9  C   UNL     1     -10.111   2.939  73.704  1.00  0.00    -0.179 C  
HETATM   10  C   UNL     1     -10.127   1.480  71.681  1.00  0.00    -0.189 C  
HETATM   11  C   UNL     1      -8.278   6.035  71.522  1.00  0.00    -0.123 C  
HETATM   12  C   UNL     1      -9.604   5.403  72.025  1.00  0.00    -0.186 C  
HETATM   13  C   UNL     1      -9.550   5.479  73.581  1.00  0.00    -0.140 C  
HETATM   14  C   UNL     1      -9.976   4.276  74.404  1.00  0.00    -0.213 C  
ENDBRANCH   5   6
ENDBRANCH   2   4
BRANCH   3  15
HETATM   15  C   UNL     1     -10.382   6.908  67.093  1.00  0.00    -0.339 C  
HETATM   16  C   UNL     1      -9.816   7.800  67.920  1.00  0.00    -0.194 C  
BRANCH  16  17
HETATM   17  C   UNL     1     -10.474   9.058  68.263  1.00  0.00    -0.247 C  
HETATM   18  C   UNL     1     -11.611  10.472  69.992  1.00  0.00    -0.313 C  
HETATM   19  O   UNL     1     -11.884  11.442  69.309  1.00  0.00    -0.298 OA 
HETATM   20  C   UNL     1     -10.905   9.260  69.526  1.00  0.00    -0.211 C  
HETATM   21  C   UNL     1     -10.606  10.053  67.142  1.00  0.00    -0.296 C  
HETATM   22  O   UNL     1     -11.943  10.381  71.299  1.00  0.00    -0.358 OA 
ENDBRANCH  16  17
ENDBRANCH   3  15
TORSDOF 4
ENDMDL
MODEL      194
REMARK 921   NORMALIZED FREE ENERGY PREDICTED BY IDOCK:   -3.29 KCAL/MOL
REMARK 922        TOTAL FREE ENERGY PREDICTED BY IDOCK:   -5.45 KCAL/MOL
REMARK 923 INTER-LIGAND FREE ENERGY PREDICTED BY IDOCK:   -5.08 KCAL/MOL
REMARK 924 INTRA-LIGAND FREE ENERGY PREDICTED BY IDOCK:   -0.37 KCAL/MOL
REMARK 927      BINDING AFFINITY PREDICTED BY RF-SCORE:    0.00 PKD
ROOT
HETATM    1  C   UNL     1      -7.348   7.969  62.843  1.00  0.00    -0.103 C  
HETATM    2  C   UNL     1      -8.287   8.974  63.450  1.00  0.00    -0.187 C  
HETATM    3  C   UNL     1      -8.825   9.951  62.687  1.00  0.00    -0.246 C  
ENDROOT
BRANCH   2   4
HETATM    4  C   UNL     1      -8.616   8.804  64.859  1.00  0.00    -0.177 C  
HETATM    5  C   UNL     1      -7.842   8.187  65.767  1.00  0.00    -0.096 C  
BRANCH   5   6
HETATM    6  C   UNL     1      -8.137   8.096  67.206  1.00  0.00    -0.121 C  
HETATM    7  C   UNL     1      -7.299  10.354  68.045  1.00  0.00    -0.085 C  
HETATM    8  C   UNL     1      -9.171   7.341  67.628  1.00  0.00    -0.130 C  
HETATM    9  C   UNL     1      -9.504   7.115  69.077  1.00  0.00    -0.143 C  
HETATM   10  C   UNL     1     -10.137   6.610  66.717  1.00  0.00    -0.240 C  
HETATM   11  C   UNL     1      -5.706   8.432  67.832  1.00  0.00    -0.039 C  
HETATM   12  C   UNL     1      -7.171   8.816  68.175  1.00  0.00    -0.083 C  
HETATM   13  C   UNL     1      -7.363   8.469  69.682  1.00  0.00    -0.060 C  
HETATM   14  C   UNL     1      -8.630   7.762  70.132  1.00  0.00    -0.139 C  
ENDBRANCH   5   6
ENDBRANCH   2   4
BRANCH   3  15
HETATM   15  C   UNL     1      -9.697  10.998  63.171  1.00  0.00    -0.398 C  
HETATM   16  C   UNL     1     -10.644  10.846  64.111  1.00  0.00    -0.327 C  
BRANCH  16  17
HETATM   17  C   UNL     1     -11.531  11.941  64.494  1.00  0.00    -0.363 C  
HETATM   18  C   UNL     1     -11.958  13.932  65.956  1.00  0.00    -0.412 C  
HETATM   19  O   UNL     1     -13.069  14.234  65.562  1.00  0.00    -0.639 OA 
HETATM   20  C   UNL     1     -11.143  12.805  65.456  1.00  0.00    -0.318 C  
HETATM   21  C   UNL     1     -12.837  12.016  63.750  1.00  0.00    -0.440 C  
HETATM   22  O   UNL     1     -11.320  14.609  66.936  1.00  0.00    -0.337 OA 
ENDBRANCH  16  17
ENDBRANCH   3  15
TORSDOF 4
ENDMDL
MODEL      195
REMARK 921   NORMALIZED FREE ENERGY PREDICTED BY IDOCK:   -3.23 KCAL/MOL
REMARK 922        TOTAL FREE ENERGY PREDICTED BY IDOCK:   -5.38 KCAL/MOL
REMARK 923 INTER-LIGAND FREE ENERGY PREDICTED BY IDOCK:   -4.19 KCAL/MOL
REMARK 924 INTRA-LIGAND FREE ENERGY PREDICTED BY IDOCK:   -1.19 KCAL/MOL
REMARK 927      BINDING AFFINITY PREDICTED BY RF-SCORE:    0.00 PKD
ROOT
HETATM    1  C   UNL     1     -11.276  10.105  70.062  1.00  0.00    -0.361 C  
HETATM    2  C   UNL     1     -10.685   8.876  69.428  1.00  0.00    -0.192 C  
HETATM    3  C   UNL     1     -10.470   8.834  68.095  1.00  0.00    -0.243 C  
ENDROOT
BRANCH   2   4
HETATM    4  C   UNL     1     -10.317   7.784  70.321  1.00  0.00    -0.215 C  
HETATM    5  C   UNL     1      -9.062   7.455  70.666  1.00  0.00    -0.156 C  
BRANCH   5   6
HETATM    6  C   UNL     1      -8.700   6.410  71.637  1.00  0.00    -0.133 C  
HETATM    7  C   UNL     1      -7.317   4.826  70.195  1.00  0.00    -0.054 C  
HETATM    8  C   UNL     1      -8.580   6.726  72.943  1.00  0.00    -0.127 C  
HETATM    9  C   UNL     1      -8.297   5.720  74.024  1.00  0.00    -0.107 C  
HETATM   10  C   UNL     1      -8.717   8.125  73.509  1.00  0.00    -0.317 C  
HETATM   11  C   UNL     1      -9.811   4.597  70.261  1.00  0.00    -0.314 C  
HETATM   12  C   UNL     1      -8.561   4.965  71.106  1.00  0.00    -0.131 C  
HETATM   13  C   UNL     1      -8.448   3.864  72.204  1.00  0.00    -0.105 C  
HETATM   14  C   UNL     1      -8.144   4.263  73.637  1.00  0.00    -0.090 C  
ENDBRANCH   5   6
ENDBRANCH   2   4
BRANCH   3  15
HETATM   15  C   UNL     1      -9.956   7.691  67.373  1.00  0.00    -0.252 C  
HETATM   16  C   UNL     1     -10.675   6.621  66.999  1.00  0.00    -0.437 C  
BRANCH  16  17
HETATM   17  C   UNL     1     -10.063   5.476  66.332  1.00  0.00    -0.220 C  
HETATM   18  C   UNL     1     -10.267   3.615  64.664  1.00  0.00    -0.140 C  
HETATM   19  O   UNL     1      -9.176   3.094  64.813  1.00  0.00    -0.134 OA 
HETATM   20  C   UNL     1     -10.758   4.806  65.388  1.00  0.00    -0.085 C  
HETATM   21  C   UNL     1      -8.661   5.141  66.763  1.00  0.00    -0.109 C  
HETATM   22  O   UNL     1     -11.190   3.145  63.797  1.00  0.00    -0.264 OA 
ENDBRANCH  16  17
ENDBRANCH   3  15
TORSDOF 4
ENDMDL
MODEL      196
REMARK 921   NORMALIZED FREE ENERGY PREDICTED BY IDOCK:   -3.23 KCAL/MOL
REMARK 922        TOTAL FREE ENERGY PREDICTED BY IDOCK:   -5.38 KCAL/MOL
REMARK 923 INTER-LIGAND FREE ENERGY PREDICTED BY IDOCK:   -4.56 KCAL/MOL
REMARK 924 INTRA-LIGAND FREE ENERGY PREDICTED BY IDOCK:   -0.82 KCAL/MOL
REMARK 927      BINDING AFFINITY PREDICTED BY RF-SCORE:    0.00 PKD
ROOT
HETATM    1  C   UNL     1     -10.315   8.052  73.038  1.00  0.00    -0.351 C  
HETATM    2  C   UNL     1     -10.154   7.376  71.704  1.00  0.00    -0.200 C  
HETATM    3  C   UNL     1     -10.645   6.132  71.508  1.00  0.00    -0.288 C  
ENDROOT
BRANCH   2   4
HETATM    4  C   UNL     1      -9.504   8.143  70.649  1.00  0.00    -0.174 C  
HETATM    5  C   UNL     1      -9.767   9.424  70.348  1.00  0.00    -0.315 C  
BRANCH   5   6
HETATM    6  C   UNL     1      -9.046  10.221  69.342  1.00  0.00    -0.203 C  
HETATM    7  C   UNL     1     -10.890  11.761  68.489  1.00  0.00    -0.261 C  
HETATM    8  C   UNL     1      -7.724  10.446  69.493  1.00  0.00    -0.159 C  
HETATM    9  C   UNL     1      -6.881  11.174  68.483  1.00  0.00    -0.065 C  
HETATM   10  C   UNL     1      -6.902   9.999  70.684  1.00  0.00    -0.056 C  
HETATM   11  C   UNL     1     -10.604   9.483  67.487  1.00  0.00    -0.338 C  
HETATM   12  C   UNL     1      -9.843  10.688  68.103  1.00  0.00    -0.170 C  
HETATM   13  C   UNL     1      -8.982  11.286  66.949  1.00  0.00    -0.163 C  
HETATM   14  C   UNL     1      -7.541  11.681  67.217  1.00  0.00    -0.147 C  
ENDBRANCH   5   6
ENDBRANCH   2   4
BRANCH   3  15
HETATM   15  C   UNL     1     -10.506   5.368  70.288  1.00  0.00    -0.355 C  
HETATM   16  C   UNL     1      -9.463   4.581  69.980  1.00  0.00    -0.247 C  
BRANCH  16  17
HETATM   17  C   UNL     1      -9.368   3.896  68.694  1.00  0.00    -0.227 C  
HETATM   18  C   UNL     1      -9.185   4.054  66.199  1.00  0.00    -0.155 C  
HETATM   19  O   UNL     1      -9.205   2.869  65.922  1.00  0.00    -0.152 OA 
HETATM   20  C   UNL     1      -9.257   4.622  67.562  1.00  0.00    -0.148 C  
HETATM   21  C   UNL     1      -9.394   2.393  68.750  1.00  0.00    -0.227 C  
HETATM   22  O   UNL     1      -9.102   5.023  65.261  1.00  0.00    -0.156 OA 
ENDBRANCH  16  17
ENDBRANCH   3  15
TORSDOF 4
ENDMDL
MODEL      197
REMARK 921   NORMALIZED FREE ENERGY PREDICTED BY IDOCK:   -3.21 KCAL/MOL
REMARK 922        TOTAL FREE ENERGY PREDICTED BY IDOCK:   -5.36 KCAL/MOL
REMARK 923 INTER-LIGAND FREE ENERGY PREDICTED BY IDOCK:   -4.52 KCAL/MOL
REMARK 924 INTRA-LIGAND FREE ENERGY PREDICTED BY IDOCK:   -0.83 KCAL/MOL
REMARK 927      BINDING AFFINITY PREDICTED BY RF-SCORE:    0.00 PKD
ROOT
HETATM    1  C   UNL     1      -5.162  14.321  69.193  1.00  0.00    -0.078 C  
HETATM    2  C   UNL     1      -6.499  14.025  68.572  1.00  0.00    -0.093 C  
HETATM    3  C   UNL     1      -7.168  14.992  67.905  1.00  0.00    -0.162 C  
ENDROOT
BRANCH   2   4
HETATM    4  C   UNL     1      -6.990  12.658  68.681  1.00  0.00    -0.091 C  
HETATM    5  C   UNL     1      -6.975  11.747  67.695  1.00  0.00    -0.103 C  
BRANCH   5   6
HETATM    6  C   UNL     1      -7.388  10.342  67.835  1.00  0.00    -0.086 C  
HETATM    7  C   UNL     1      -7.072   9.963  70.337  1.00  0.00    -0.146 C  
HETATM    8  C   UNL     1      -8.301   9.827  66.986  1.00  0.00    -0.117 C  
HETATM    9  C   UNL     1      -8.728   8.386  66.992  1.00  0.00    -0.132 C  
HETATM   10  C   UNL     1      -9.018  10.614  65.908  1.00  0.00    -0.192 C  
HETATM   11  C   UNL     1      -5.137   9.663  68.775  1.00  0.00    -0.037 C  
HETATM   12  C   UNL     1      -6.674   9.497  68.915  1.00  0.00    -0.051 C  
HETATM   13  C   UNL     1      -6.947   7.964  68.844  1.00  0.00    -0.066 C  
HETATM   14  C   UNL     1      -8.098   7.447  68.000  1.00  0.00    -0.124 C  
ENDBRANCH   5   6
ENDBRANCH   2   4
BRANCH   3  15
HETATM   15  C   UNL     1      -8.478  14.836  67.313  1.00  0.00    -0.234 C  
HETATM   16  C   UNL     1      -8.863  15.351  66.135  1.00  0.00    -0.222 C  
BRANCH  16  17
HETATM   17  C   UNL     1     -10.229  15.206  65.640  1.00  0.00    -0.387 C  
HETATM   18  C   UNL     1     -12.206  13.719  65.233  1.00  0.00    -0.439 C  
HETATM   19  O   UNL     1     -12.953  14.521  64.703  1.00  0.00    -0.550 OA 
HETATM   20  C   UNL     1     -10.842  14.006  65.725  1.00  0.00    -0.291 C  
HETATM   21  C   UNL     1     -10.854  16.450  65.070  1.00  0.00    -0.289 C  
HETATM   22  O   UNL     1     -12.544  12.426  65.433  1.00  0.00    -0.637 OA 
ENDBRANCH  16  17
ENDBRANCH   3  15
TORSDOF 4
ENDMDL
MODEL      198
REMARK 921   NORMALIZED FREE ENERGY PREDICTED BY IDOCK:   -3.19 KCAL/MOL
REMARK 922        TOTAL FREE ENERGY PREDICTED BY IDOCK:   -5.33 KCAL/MOL
REMARK 923 INTER-LIGAND FREE ENERGY PREDICTED BY IDOCK:   -4.24 KCAL/MOL
REMARK 924 INTRA-LIGAND FREE ENERGY PREDICTED BY IDOCK:   -1.10 KCAL/MOL
REMARK 927      BINDING AFFINITY PREDICTED BY RF-SCORE:    0.00 PKD
ROOT
HETATM    1  C   UNL     1      -5.561  12.236  70.218  1.00  0.00    -0.156 C  
HETATM    2  C   UNL     1      -6.614  12.658  69.231  1.00  0.00    -0.092 C  
HETATM    3  C   UNL     1      -6.894  13.968  69.055  1.00  0.00    -0.111 C  
ENDROOT
BRANCH   2   4
HETATM    4  C   UNL     1      -7.256  11.603  68.458  1.00  0.00    -0.094 C  
HETATM    5  C   UNL     1      -6.818  11.127  67.282  1.00  0.00    -0.095 C  
BRANCH   5   6
HETATM    6  C   UNL     1      -7.420  10.002  66.550  1.00  0.00    -0.105 C  
HETATM    7  C   UNL     1      -6.463   8.001  67.810  1.00  0.00    -0.053 C  
HETATM    8  C   UNL     1      -8.617  10.160  65.949  1.00  0.00    -0.156 C  
HETATM    9  C   UNL     1      -9.276   9.102  65.109  1.00  0.00    -0.218 C  
HETATM   10  C   UNL     1      -9.463  11.415  66.025  1.00  0.00    -0.245 C  
HETATM   11  C   UNL     1      -5.153   9.046  65.947  1.00  0.00    -0.036 C  
HETATM   12  C   UNL     1      -6.587   8.704  66.435  1.00  0.00    -0.062 C  
HETATM   13  C   UNL     1      -7.140   7.648  65.431  1.00  0.00    -0.063 C  
HETATM   14  C   UNL     1      -8.561   7.781  64.912  1.00  0.00     0.063 C  
ENDBRANCH   5   6
ENDBRANCH   2   4
BRANCH   3  15
HETATM   15  C   UNL     1      -7.917  14.487  68.174  1.00  0.00    -0.133 C  
HETATM   16  C   UNL     1      -7.732  15.439  67.245  1.00  0.00    -0.245 C  
BRANCH  16  17
HETATM   17  C   UNL     1      -8.836  15.957  66.443  1.00  0.00    -0.368 C  
HETATM   18  C   UNL     1     -10.743  15.494  64.882  1.00  0.00    -0.392 C  
HETATM   19  O   UNL     1     -11.117  16.635  64.681  1.00  0.00    -0.763 OA 
HETATM   20  C   UNL     1      -9.617  15.098  65.754  1.00  0.00    -0.344 C  
HETATM   21  C   UNL     1      -9.015  17.451  66.463  1.00  0.00    -0.285 C  
HETATM   22  O   UNL     1     -11.326  14.420  64.305  1.00  0.00    -0.286 OA 
ENDBRANCH  16  17
ENDBRANCH   3  15
TORSDOF 4
ENDMDL
MODEL      199
REMARK 921   NORMALIZED FREE ENERGY PREDICTED BY IDOCK:   -3.17 KCAL/MOL
REMARK 922        TOTAL FREE ENERGY PREDICTED BY IDOCK:   -5.31 KCAL/MOL
REMARK 923 INTER-LIGAND FREE ENERGY PREDICTED BY IDOCK:   -4.15 KCAL/MOL
REMARK 924 INTRA-LIGAND FREE ENERGY PREDICTED BY IDOCK:   -1.16 KCAL/MOL
REMARK 927      BINDING AFFINITY PREDICTED BY RF-SCORE:    0.00 PKD
ROOT
HETATM    1  C   UNL     1     -12.099   8.563  72.515  1.00  0.00    -0.395 C  
HETATM    2  C   UNL     1     -11.196   7.748  71.630  1.00  0.00    -0.286 C  
HETATM    3  C   UNL     1     -10.546   6.673  72.128  1.00  0.00    -0.238 C  
ENDROOT
BRANCH   2   4
HETATM    4  C   UNL     1     -11.111   8.143  70.230  1.00  0.00    -0.221 C  
HETATM    5  C   UNL     1     -10.355   9.145  69.753  1.00  0.00    -0.226 C  
BRANCH   5   6
HETATM    6  C   UNL     1     -10.203   9.483  68.329  1.00  0.00    -0.225 C  
HETATM    7  C   UNL     1      -9.638  11.967  68.449  1.00  0.00    -0.190 C  
HETATM    8  C   UNL     1      -9.789   8.538  67.460  1.00  0.00    -0.231 C  
HETATM    9  C   UNL     1      -9.681   8.757  65.976  1.00  0.00    -0.276 C  
HETATM   10  C   UNL     1      -9.383   7.130  67.844  1.00  0.00    -0.128 C  
HETATM   11  C   UNL     1     -12.032  11.231  68.439  1.00  0.00    -0.255 C  
HETATM   12  C   UNL     1     -10.617  10.906  67.889  1.00  0.00    -0.246 C  
HETATM   13  C   UNL     1     -10.695  11.127  66.348  1.00  0.00    -0.303 C  
HETATM   14  C   UNL     1     -10.064  10.111  65.413  1.00  0.00    -0.342 C  
ENDBRANCH   5   6
ENDBRANCH   2   4
BRANCH   3  15
HETATM   15  C   UNL     1      -9.617   5.849  71.387  1.00  0.00    -0.189 C  
HETATM   16  C   UNL     1      -8.300   6.078  71.268  1.00  0.00    -0.124 C  
BRANCH  16  17
HETATM   17  C   UNL     1      -7.443   5.233  70.441  1.00  0.00    -0.071 C  
HETATM   18  C   UNL     1      -7.208   3.208  68.982  1.00  0.00    -0.049 C  
HETATM   19  O   UNL     1      -6.017   3.275  68.739  1.00  0.00    -0.023 OA 
HETATM   20  C   UNL     1      -7.971   4.158  69.818  1.00  0.00    -0.056 C  
HETATM   21  C   UNL     1      -6.002   5.656  70.349  1.00  0.00    -0.025 C  
HETATM   22  O   UNL     1      -7.996   2.218  68.509  1.00  0.00    -0.053 OA 
ENDBRANCH  16  17
ENDBRANCH   3  15
TORSDOF 4
ENDMDL
MODEL      200
REMARK 921   NORMALIZED FREE ENERGY PREDICTED BY IDOCK:   -3.11 KCAL/MOL
REMARK 922        TOTAL FREE ENERGY PREDICTED BY IDOCK:   -5.23 KCAL/MOL
REMARK 923 INTER-LIGAND FREE ENERGY PREDICTED BY IDOCK:   -3.64 KCAL/MOL
REMARK 924 INTRA-LIGAND FREE ENERGY PREDICTED BY IDOCK:   -1.60 KCAL/MOL
REMARK 927      BINDING AFFINITY PREDICTED BY RF-SCORE:    0.00 PKD
ROOT
HETATM    1  C   UNL     1     -10.304   4.027  64.724  1.00  0.00    -0.212 C  
HETATM    2  C   UNL     1     -10.281   4.627  66.102  1.00  0.00    -0.308 C  
HETATM    3  C   UNL     1     -10.963   5.765  66.360  1.00  0.00    -0.062 C  
ENDROOT
BRANCH   2   4
HETATM    4  C   UNL     1      -9.546   3.899  67.128  1.00  0.00    -0.226 C  
HETATM    5  C   UNL     1      -8.320   4.215  67.574  1.00  0.00    -0.098 C  
BRANCH   5   6
HETATM    6  C   UNL     1      -7.618   3.531  68.672  1.00  0.00    -0.053 C  
HETATM    7  C   UNL     1      -9.196   3.954  70.631  1.00  0.00    -0.197 C  
HETATM    8  C   UNL     1      -6.832   2.469  68.402  1.00  0.00    -0.043 C  
HETATM    9  C   UNL     1      -6.009   1.754  69.437  1.00  0.00    -0.023 C  
HETATM   10  C   UNL     1      -6.658   1.849  67.030  1.00  0.00    -0.034 C  
HETATM   11  C   UNL     1      -7.459   5.658  70.037  1.00  0.00    -0.070 C  
HETATM   12  C   UNL     1      -7.757   4.136  70.088  1.00  0.00    -0.049 C  
HETATM   13  C   UNL     1      -6.789   3.546  71.158  1.00  0.00    -0.032 C  
HETATM   14  C   UNL     1      -6.051   2.251  70.868  1.00  0.00    -0.018 C  
ENDBRANCH   5   6
ENDBRANCH   2   4
BRANCH   3  15
HETATM   15  C   UNL     1     -10.972   6.457  67.630  1.00  0.00    -0.441 C  
HETATM   16  C   UNL     1     -10.256   7.555  67.921  1.00  0.00    -0.245 C  
BRANCH  16  17
HETATM   17  C   UNL     1     -10.270   8.153  69.253  1.00  0.00    -0.216 C  
HETATM   18  C   UNL     1     -11.078   8.067  71.624  1.00  0.00    -0.252 C  
HETATM   19  O   UNL     1     -10.568   9.088  72.046  1.00  0.00    -0.345 OA 
HETATM   20  C   UNL     1     -10.959   7.550  70.245  1.00  0.00    -0.264 C  
HETATM   21  C   UNL     1      -9.481   9.425  69.407  1.00  0.00    -0.177 C  
HETATM   22  O   UNL     1     -11.849   7.264  72.390  1.00  0.00    -0.272 OA 
ENDBRANCH  16  17
ENDBRANCH   3  15
TORSDOF 4
ENDMDL
MODEL      201
REMARK 921   NORMALIZED FREE ENERGY PREDICTED BY IDOCK:   -3.11 KCAL/MOL
REMARK 922        TOTAL FREE ENERGY PREDICTED BY IDOCK:   -5.23 KCAL/MOL
REMARK 923 INTER-LIGAND FREE ENERGY PREDICTED BY IDOCK:   -3.99 KCAL/MOL
REMARK 924 INTRA-LIGAND FREE ENERGY PREDICTED BY IDOCK:   -1.24 KCAL/MOL
REMARK 927      BINDING AFFINITY PREDICTED BY RF-SCORE:    0.00 PKD
ROOT
HETATM    1  C   UNL     1     -11.400   6.804  72.265  1.00  0.00    -0.310 C  
HETATM    2  C   UNL     1     -10.552   6.193  71.183  1.00  0.00    -0.300 C  
HETATM    3  C   UNL     1     -10.310   4.864  71.179  1.00  0.00    -0.222 C  
ENDROOT
BRANCH   2   4
HETATM    4  C   UNL     1     -10.069   7.087  70.139  1.00  0.00    -0.197 C  
HETATM    5  C   UNL     1     -10.805   7.560  69.121  1.00  0.00    -0.105 C  
BRANCH   5   6
HETATM    6  C   UNL     1     -10.337   8.532  68.121  1.00  0.00    -0.258 C  
HETATM    7  C   UNL     1      -9.171  10.259  69.591  1.00  0.00    -0.155 C  
HETATM    8  C   UNL     1     -10.048   8.117  66.871  1.00  0.00    -0.367 C  
HETATM    9  C   UNL     1      -9.644   9.041  65.756  1.00  0.00    -0.287 C  
HETATM   10  C   UNL     1     -10.092   6.675  66.408  1.00  0.00    -0.052 C  
HETATM   11  C   UNL     1     -11.639  10.421  69.194  1.00  0.00    -0.234 C  
HETATM   12  C   UNL     1     -10.287  10.018  68.545  1.00  0.00    -0.217 C  
HETATM   13  C   UNL     1     -10.051  11.031  67.385  1.00  0.00    -0.216 C  
HETATM   14  C   UNL     1      -9.561  10.527  66.039  1.00  0.00    -0.242 C  
ENDBRANCH   5   6
ENDBRANCH   2   4
BRANCH   3  15
HETATM   15  C   UNL     1      -9.471   4.176  70.221  1.00  0.00    -0.251 C  
HETATM   16  C   UNL     1      -9.846   3.807  68.986  1.00  0.00     0.042 C  
BRANCH  16  17
HETATM   17  C   UNL     1      -8.959   3.053  68.105  1.00  0.00    -0.190 C  
HETATM   18  C   UNL     1      -7.185   3.075  66.333  1.00  0.00    -0.066 C  
HETATM   19  O   UNL     1      -7.061   1.876  66.160  1.00  0.00    -0.049 OA 
HETATM   20  C   UNL     1      -8.109   3.716  67.292  1.00  0.00    -0.090 C  
HETATM   21  C   UNL     1      -9.068   1.555  68.193  1.00  0.00    -0.187 C  
HETATM   22  O   UNL     1      -6.476   3.991  65.639  1.00  0.00    -0.035 OA 
ENDBRANCH  16  17
ENDBRANCH   3  15
TORSDOF 4
ENDMDL
MODEL      202
REMARK 921   NORMALIZED FREE ENERGY PREDICTED BY IDOCK:   -3.10 KCAL/MOL
REMARK 922        TOTAL FREE ENERGY PREDICTED BY IDOCK:   -5.22 KCAL/MOL
REMARK 923 INTER-LIGAND FREE ENERGY PREDICTED BY IDOCK:   -4.26 KCAL/MOL
REMARK 924 INTRA-LIGAND FREE ENERGY PREDICTED BY IDOCK:   -0.96 KCAL/MOL
REMARK 927      BINDING AFFINITY PREDICTED BY RF-SCORE:    0.00 PKD
ROOT
HETATM    1  C   UNL     1     -10.614   8.280  72.410  1.00  0.00    -0.408 C  
HETATM    2  C   UNL     1     -10.357   7.571  71.110  1.00  0.00    -0.208 C  
HETATM    3  C   UNL     1     -10.805   6.310  70.923  1.00  0.00    -0.329 C  
ENDROOT
BRANCH   2   4
HETATM    4  C   UNL     1      -9.662   8.322  70.073  1.00  0.00    -0.176 C  
HETATM    5  C   UNL     1      -9.064   9.512  70.247  1.00  0.00    -0.296 C  
BRANCH   5   6
HETATM    6  C   UNL     1      -8.288  10.225  69.220  1.00  0.00    -0.167 C  
HETATM    7  C   UNL     1      -6.516   8.491  68.622  1.00  0.00    -0.054 C  
HETATM    8  C   UNL     1      -8.893  11.152  68.450  1.00  0.00    -0.157 C  
HETATM    9  C   UNL     1      -8.172  11.993  67.433  1.00  0.00    -0.168 C  
HETATM   10  C   UNL     1     -10.370  11.484  68.498  1.00  0.00    -0.224 C  
HETATM   11  C   UNL     1      -6.146  10.036  70.559  1.00  0.00    -0.100 C  
HETATM   12  C   UNL     1      -6.773   9.926  69.143  1.00  0.00    -0.054 C  
HETATM   13  C   UNL     1      -5.952  10.894  68.237  1.00  0.00    -0.046 C  
HETATM   14  C   UNL     1      -6.679  11.803  67.261  1.00  0.00    -0.133 C  
ENDBRANCH   5   6
ENDBRANCH   2   4
BRANCH   3  15
HETATM   15  C   UNL     1     -10.574   5.514  69.737  1.00  0.00    -0.388 C  
HETATM   16  C   UNL     1      -9.802   4.417  69.677  1.00  0.00    -0.272 C  
BRANCH  16  17
HETATM   17  C   UNL     1      -9.566   3.710  68.422  1.00  0.00    -0.164 C  
HETATM   18  C   UNL     1      -9.428   3.787  65.920  1.00  0.00    -0.171 C  
HETATM   19  O   UNL     1      -9.193   2.614  65.697  1.00  0.00    -0.146 OA 
HETATM   20  C   UNL     1      -9.617   4.389  67.256  1.00  0.00    -0.220 C  
HETATM   21  C   UNL     1      -9.267   2.241  68.546  1.00  0.00    -0.235 C  
HETATM   22  O   UNL     1      -9.559   4.707  64.938  1.00  0.00    -0.144 OA 
ENDBRANCH  16  17
ENDBRANCH   3  15
TORSDOF 4
ENDMDL
MODEL      203
REMARK 921   NORMALIZED FREE ENERGY PREDICTED BY IDOCK:   -3.05 KCAL/MOL
REMARK 922        TOTAL FREE ENERGY PREDICTED BY IDOCK:   -5.16 KCAL/MOL
REMARK 923 INTER-LIGAND FREE ENERGY PREDICTED BY IDOCK:   -3.69 KCAL/MOL
REMARK 924 INTRA-LIGAND FREE ENERGY PREDICTED BY IDOCK:   -1.47 KCAL/MOL
REMARK 927      BINDING AFFINITY PREDICTED BY RF-SCORE:    0.00 PKD
ROOT
HETATM    1  C   UNL     1      -7.432  11.947  67.639  1.00  0.00    -0.127 C  
HETATM    2  C   UNL     1      -7.410  10.498  67.234  1.00  0.00    -0.091 C  
HETATM    3  C   UNL     1      -6.730  10.111  66.133  1.00  0.00    -0.106 C  
ENDROOT
BRANCH   2   4
HETATM    4  C   UNL     1      -8.100   9.558  68.107  1.00  0.00    -0.102 C  
HETATM    5  C   UNL     1      -9.424   9.334  68.115  1.00  0.00    -0.150 C  
BRANCH   5   6
HETATM    6  C   UNL     1     -10.105   8.320  68.934  1.00  0.00    -0.208 C  
HETATM    7  C   UNL     1      -8.788   6.217  68.345  1.00  0.00    -0.113 C  
HETATM    8  C   UNL     1     -10.691   8.683  70.094  1.00  0.00    -0.244 C  
HETATM    9  C   UNL     1     -11.481   7.742  70.960  1.00  0.00    -0.298 C  
HETATM   10  C   UNL     1     -10.647  10.077  70.685  1.00  0.00    -0.272 C  
HETATM   11  C   UNL     1     -10.708   6.932  66.904  1.00  0.00    -0.386 C  
HETATM   12  C   UNL     1     -10.185   6.885  68.365  1.00  0.00    -0.191 C  
HETATM   13  C   UNL     1     -11.141   5.921  69.130  1.00  0.00    -0.328 C  
HETATM   14  C   UNL     1     -11.642   6.304  70.512  1.00  0.00    -0.357 C  
ENDBRANCH   5   6
ENDBRANCH   2   4
BRANCH   3  15
HETATM   15  C   UNL     1      -6.680   8.758  65.621  1.00  0.00    -0.068 C  
HETATM   16  C   UNL     1      -7.525   8.239  64.716  1.00  0.00    -0.093 C  
BRANCH  16  17
HETATM   17  C   UNL     1      -7.447   6.841  64.304  1.00  0.00    -0.100 C  
HETATM   18  C   UNL     1      -8.368   4.514  64.461  1.00  0.00    -0.115 C  
HETATM   19  O   UNL     1      -7.577   3.938  63.736  1.00  0.00    -0.064 OA 
HETATM   20  C   UNL     1      -8.354   5.958  64.774  1.00  0.00    -0.103 C  
HETATM   21  C   UNL     1      -6.332   6.500  63.353  1.00  0.00    -0.037 C  
HETATM   22  O   UNL     1      -9.378   3.878  65.093  1.00  0.00    -0.139 OA 
ENDBRANCH  16  17
ENDBRANCH   3  15
TORSDOF 4
ENDMDL
MODEL      204
REMARK 921   NORMALIZED FREE ENERGY PREDICTED BY IDOCK:   -3.04 KCAL/MOL
REMARK 922        TOTAL FREE ENERGY PREDICTED BY IDOCK:   -5.15 KCAL/MOL
REMARK 923 INTER-LIGAND FREE ENERGY PREDICTED BY IDOCK:   -4.32 KCAL/MOL
REMARK 924 INTRA-LIGAND FREE ENERGY PREDICTED BY IDOCK:   -0.82 KCAL/MOL
REMARK 927      BINDING AFFINITY PREDICTED BY RF-SCORE:    0.00 PKD
ROOT
HETATM    1  C   UNL     1      -7.611   7.668  62.632  1.00  0.00    -0.112 C  
HETATM    2  C   UNL     1      -8.357   8.584  63.563  1.00  0.00    -0.086 C  
HETATM    3  C   UNL     1      -9.158   9.553  63.066  1.00  0.00    -0.170 C  
ENDROOT
BRANCH   2   4
HETATM    4  C   UNL     1      -8.211   8.336  64.991  1.00  0.00    -0.160 C  
HETATM    5  C   UNL     1      -8.461   7.168  65.605  1.00  0.00    -0.141 C  
BRANCH   5   6
HETATM    6  C   UNL     1      -8.226   6.897  67.032  1.00  0.00    -0.120 C  
HETATM    7  C   UNL     1     -10.611   6.717  67.918  1.00  0.00    -0.305 C  
HETATM    8  C   UNL     1      -7.105   6.250  67.412  1.00  0.00    -0.070 C  
HETATM    9  C   UNL     1      -6.732   5.998  68.846  1.00  0.00    -0.060 C  
HETATM   10  C   UNL     1      -6.065   5.693  66.462  1.00  0.00    -0.030 C  
HETATM   11  C   UNL     1      -9.510   8.960  67.744  1.00  0.00    -0.163 C  
HETATM   12  C   UNL     1      -9.256   7.458  68.039  1.00  0.00    -0.132 C  
HETATM   13  C   UNL     1      -8.827   7.382  69.535  1.00  0.00    -0.137 C  
HETATM   14  C   UNL     1      -7.656   6.503  69.936  1.00  0.00    -0.100 C  
ENDBRANCH   5   6
ENDBRANCH   2   4
BRANCH   3  15
HETATM   15  C   UNL     1      -9.881  10.520  63.862  1.00  0.00    -0.373 C  
HETATM   16  C   UNL     1      -9.597  11.829  63.940  1.00  0.00    -0.145 C  
BRANCH  16  17
HETATM   17  C   UNL     1     -10.336  12.727  64.823  1.00  0.00    -0.345 C  
HETATM   18  C   UNL     1     -11.784  14.757  65.079  1.00  0.00    -0.364 C  
HETATM   19  O   UNL     1     -11.898  14.770  66.291  1.00  0.00    -0.319 OA 
HETATM   20  C   UNL     1     -11.024  13.761  64.295  1.00  0.00    -0.268 C  
HETATM   21  C   UNL     1     -10.268  12.402  66.290  1.00  0.00    -0.258 C  
HETATM   22  O   UNL     1     -12.351  15.689  64.281  1.00  0.00    -0.467 OA 
ENDBRANCH  16  17
ENDBRANCH   3  15
TORSDOF 4
ENDMDL
MODEL      205
REMARK 921   NORMALIZED FREE ENERGY PREDICTED BY IDOCK:   -3.04 KCAL/MOL
REMARK 922        TOTAL FREE ENERGY PREDICTED BY IDOCK:   -5.15 KCAL/MOL
REMARK 923 INTER-LIGAND FREE ENERGY PREDICTED BY IDOCK:   -4.29 KCAL/MOL
REMARK 924 INTRA-LIGAND FREE ENERGY PREDICTED BY IDOCK:   -0.86 KCAL/MOL
REMARK 927      BINDING AFFINITY PREDICTED BY RF-SCORE:    0.00 PKD
ROOT
HETATM    1  C   UNL     1      -5.787  10.607  67.451  1.00  0.00    -0.045 C  
HETATM    2  C   UNL     1      -6.538   9.306  67.380  1.00  0.00    -0.064 C  
HETATM    3  C   UNL     1      -6.013   8.254  66.713  1.00  0.00    -0.053 C  
ENDROOT
BRANCH   2   4
HETATM    4  C   UNL     1      -7.803   9.232  68.099  1.00  0.00    -0.095 C  
HETATM    5  C   UNL     1      -8.272  10.168  68.940  1.00  0.00    -0.124 C  
BRANCH   5   6
HETATM    6  C   UNL     1      -9.589  10.131  69.594  1.00  0.00    -0.237 C  
HETATM    7  C   UNL     1     -11.159  10.371  67.599  1.00  0.00    -0.361 C  
HETATM    8  C   UNL     1      -9.744   9.445  70.745  1.00  0.00    -0.332 C  
HETATM    9  C   UNL     1     -11.023   9.414  71.534  1.00  0.00    -0.429 C  
HETATM   10  C   UNL     1      -8.662   8.618  71.409  1.00  0.00    -0.262 C  
HETATM   11  C   UNL     1     -10.215  12.415  68.697  1.00  0.00    -0.169 C  
HETATM   12  C   UNL     1     -10.721  10.970  68.957  1.00  0.00    -0.258 C  
HETATM   13  C   UNL     1     -12.006  11.117  69.827  1.00  0.00    -0.428 C  
HETATM   14  C   UNL     1     -12.211  10.201  71.021  1.00  0.00    -0.474 C  
ENDBRANCH   5   6
ENDBRANCH   2   4
BRANCH   3  15
HETATM   15  C   UNL     1      -6.664   6.975  66.536  1.00  0.00    -0.053 C  
HETATM   16  C   UNL     1      -7.005   6.434  65.356  1.00  0.00    -0.052 C  
BRANCH  16  17
HETATM   17  C   UNL     1      -7.724   5.166  65.269  1.00  0.00    -0.087 C  
HETATM   18  C   UNL     1      -9.903   3.963  64.970  1.00  0.00    -0.192 C  
HETATM   19  O   UNL     1      -9.514   2.815  65.083  1.00  0.00    -0.140 OA 
HETATM   20  C   UNL     1      -9.056   5.171  65.047  1.00  0.00    -0.073 C  
HETATM   21  C   UNL     1      -6.886   3.926  65.429  1.00  0.00    -0.053 C  
HETATM   22  O   UNL     1     -11.200   4.279  64.763  1.00  0.00    -0.310 OA 
ENDBRANCH  16  17
ENDBRANCH   3  15
TORSDOF 4
ENDMDL
MODEL      206
REMARK 921   NORMALIZED FREE ENERGY PREDICTED BY IDOCK:   -3.03 KCAL/MOL
REMARK 922        TOTAL FREE ENERGY PREDICTED BY IDOCK:   -5.13 KCAL/MOL
REMARK 923 INTER-LIGAND FREE ENERGY PREDICTED BY IDOCK:   -4.30 KCAL/MOL
REMARK 924 INTRA-LIGAND FREE ENERGY PREDICTED BY IDOCK:   -0.83 KCAL/MOL
REMARK 927      BINDING AFFINITY PREDICTED BY RF-SCORE:    0.00 PKD
ROOT
HETATM    1  C   UNL     1      -5.561  12.231  70.219  1.00  0.00    -0.156 C  
HETATM    2  C   UNL     1      -6.633  12.638  69.246  1.00  0.00    -0.092 C  
HETATM    3  C   UNL     1      -6.937  13.943  69.076  1.00  0.00    -0.109 C  
ENDROOT
BRANCH   2   4
HETATM    4  C   UNL     1      -7.267  11.573  68.479  1.00  0.00    -0.096 C  
HETATM    5  C   UNL     1      -6.950  10.271  68.551  1.00  0.00    -0.066 C  
BRANCH   5   6
HETATM    6  C   UNL     1      -7.653   9.190  67.842  1.00  0.00    -0.085 C  
HETATM    7  C   UNL     1     -10.091   9.866  68.164  1.00  0.00    -0.193 C  
HETATM    8  C   UNL     1      -7.051   8.570  66.806  1.00  0.00    -0.074 C  
HETATM    9  C   UNL     1      -7.648   7.402  66.071  1.00  0.00    -0.088 C  
HETATM   10  C   UNL     1      -5.699   8.951  66.239  1.00  0.00    -0.049 C  
HETATM   11  C   UNL     1      -8.929   8.512  69.922  1.00  0.00    -0.145 C  
HETATM   12  C   UNL     1      -9.032   8.760  68.393  1.00  0.00    -0.141 C  
HETATM   13  C   UNL     1      -9.607   7.445  67.785  1.00  0.00    -0.162 C  
HETATM   14  C   UNL     1      -8.997   6.877  66.516  1.00  0.00    -0.166 C  
ENDBRANCH   5   6
ENDBRANCH   2   4
BRANCH   3  15
HETATM   15  C   UNL     1      -7.980  14.446  68.209  1.00  0.00    -0.140 C  
HETATM   16  C   UNL     1      -7.824  15.407  67.285  1.00  0.00    -0.237 C  
BRANCH  16  17
HETATM   17  C   UNL     1      -8.947  15.908  66.497  1.00  0.00    -0.331 C  
HETATM   18  C   UNL     1     -10.855  15.416  64.947  1.00  0.00    -0.425 C  
HETATM   19  O   UNL     1     -11.258  16.550  64.761  1.00  0.00    -0.516 OA 
HETATM   20  C   UNL     1      -9.713  15.037  65.806  1.00  0.00    -0.375 C  
HETATM   21  C   UNL     1      -9.160  17.396  66.535  1.00  0.00    -0.288 C  
HETATM   22  O   UNL     1     -11.418  14.335  64.364  1.00  0.00    -0.366 OA 
ENDBRANCH  16  17
ENDBRANCH   3  15
TORSDOF 4
ENDMDL
MODEL      207
REMARK 921   NORMALIZED FREE ENERGY PREDICTED BY IDOCK:   -2.99 KCAL/MOL
REMARK 922        TOTAL FREE ENERGY PREDICTED BY IDOCK:   -5.08 KCAL/MOL
REMARK 923 INTER-LIGAND FREE ENERGY PREDICTED BY IDOCK:   -4.69 KCAL/MOL
REMARK 924 INTRA-LIGAND FREE ENERGY PREDICTED BY IDOCK:   -0.39 KCAL/MOL
REMARK 927      BINDING AFFINITY PREDICTED BY RF-SCORE:    0.00 PKD
ROOT
HETATM    1  C   UNL     1     -12.180  14.493  66.310  1.00  0.00    -0.270 C  
HETATM    2  C   UNL     1     -11.242  13.806  67.264  1.00  0.00    -0.329 C  
HETATM    3  C   UNL     1     -11.293  12.465  67.419  1.00  0.00    -0.381 C  
ENDROOT
BRANCH   2   4
HETATM    4  C   UNL     1     -10.267  14.644  67.949  1.00  0.00    -0.226 C  
HETATM    5  C   UNL     1      -9.478  15.556  67.360  1.00  0.00    -0.213 C  
BRANCH   5   6
HETATM    6  C   UNL     1      -8.559  16.462  68.067  1.00  0.00    -0.185 C  
HETATM    7  C   UNL     1      -9.719  18.712  67.759  1.00  0.00    -0.344 C  
HETATM    8  C   UNL     1      -7.826  15.996  69.099  1.00  0.00    -0.233 C  
HETATM    9  C   UNL     1      -6.800  16.815  69.832  1.00  0.00     0.291 C  
HETATM   10  C   UNL     1      -7.920  14.592  69.661  1.00  0.00     0.227 C  
HETATM   11  C   UNL     1      -8.165  17.856  65.990  1.00  0.00    -0.103 C  
HETATM   12  C   UNL     1      -8.422  17.901  67.520  1.00  0.00    -0.232 C  
HETATM   13  C   UNL     1      -7.249  18.730  68.126  1.00  0.00    -0.273 C  
HETATM   14  C   UNL     1      -6.563  18.245  69.390  1.00  0.00    -0.213 C  
ENDBRANCH   5   6
ENDBRANCH   2   4
BRANCH   3  15
HETATM   15  C   UNL     1     -10.478  11.705  68.341  1.00  0.00    -0.230 C  
HETATM   16  C   UNL     1     -10.927  10.748  69.168  1.00  0.00    -0.293 C  
BRANCH  16  17
HETATM   17  C   UNL     1     -10.047  10.076  70.119  1.00  0.00    -0.266 C  
HETATM   18  C   UNL     1      -9.806   8.686  72.192  1.00  0.00    -0.317 C  
HETATM   19  O   UNL     1      -8.591   8.637  72.259  1.00  0.00    -0.319 OA 
HETATM   20  C   UNL     1     -10.584   9.382  71.145  1.00  0.00    -0.403 C  
HETATM   21  C   UNL     1      -8.572  10.214  69.856  1.00  0.00    -0.100 C  
HETATM   22  O   UNL     1     -10.613   8.097  73.102  1.00  0.00    -0.274 OA 
ENDBRANCH  16  17
ENDBRANCH   3  15
TORSDOF 4
ENDMDL
MODEL      208
REMARK 921   NORMALIZED FREE ENERGY PREDICTED BY IDOCK:   -2.96 KCAL/MOL
REMARK 922        TOTAL FREE ENERGY PREDICTED BY IDOCK:   -5.05 KCAL/MOL
REMARK 923 INTER-LIGAND FREE ENERGY PREDICTED BY IDOCK:   -5.24 KCAL/MOL
REMARK 924 INTRA-LIGAND FREE ENERGY PREDICTED BY IDOCK:    0.19 KCAL/MOL
REMARK 927      BINDING AFFINITY PREDICTED BY RF-SCORE:    0.00 PKD
ROOT
HETATM    1  C   UNL     1     -13.210  11.260  71.666  1.00  0.00    -0.431 C  
HETATM    2  C   UNL     1     -12.265  11.845  70.653  1.00  0.00    -0.424 C  
HETATM    3  C   UNL     1     -12.211  13.182  70.466  1.00  0.00    -0.405 C  
ENDROOT
BRANCH   2   4
HETATM    4  C   UNL     1     -11.396  10.914  69.946  1.00  0.00    -0.381 C  
HETATM    5  C   UNL     1     -10.097  11.120  69.673  1.00  0.00     0.243 C  
BRANCH   5   6
HETATM    6  C   UNL     1      -9.202  10.140  69.039  1.00  0.00    -0.188 C  
HETATM    7  C   UNL     1     -10.865   8.641  67.818  1.00  0.00    -0.075 C  
HETATM    8  C   UNL     1      -7.948  10.504  68.700  1.00  0.00    -0.124 C  
HETATM    9  C   UNL     1      -6.930   9.559  68.125  1.00  0.00    -0.078 C  
HETATM   10  C   UNL     1      -7.382  11.902  68.854  1.00  0.00    -0.080 C  
HETATM   11  C   UNL     1     -10.315   8.198  70.222  1.00  0.00    -0.209 C  
HETATM   12  C   UNL     1      -9.732   8.698  68.873  1.00  0.00    -0.171 C  
HETATM   13  C   UNL     1      -8.664   7.644  68.452  1.00  0.00    -0.127 C  
HETATM   14  C   UNL     1      -7.322   8.110  67.916  1.00  0.00    -0.096 C  
ENDBRANCH   5   6
ENDBRANCH   2   4
BRANCH   3  15
HETATM   15  C   UNL     1     -11.381  13.851  69.488  1.00  0.00    -0.293 C  
HETATM   16  C   UNL     1     -11.679  15.009  68.879  1.00  0.00    -0.354 C  
BRANCH  16  17
HETATM   17  C   UNL     1     -10.816  15.583  67.850  1.00  0.00    -0.307 C  
HETATM   18  C   UNL     1     -10.068  17.607  66.575  1.00  0.00    -0.350 C  
HETATM   19  O   UNL     1      -9.265  17.084  65.824  1.00  0.00    -0.526 OA 
HETATM   20  C   UNL     1     -10.863  16.910  67.607  1.00  0.00    -0.244 C  
HETATM   21  C   UNL     1      -9.914  14.612  67.137  1.00  0.00    -0.240 C  
HETATM   22  O   UNL     1     -10.343  18.929  66.545  1.00  0.00    -0.379 OA 
ENDBRANCH  16  17
ENDBRANCH   3  15
TORSDOF 4
ENDMDL
MODEL      209
REMARK 921   NORMALIZED FREE ENERGY PREDICTED BY IDOCK:   -2.91 KCAL/MOL
REMARK 922        TOTAL FREE ENERGY PREDICTED BY IDOCK:   -4.98 KCAL/MOL
REMARK 923 INTER-LIGAND FREE ENERGY PREDICTED BY IDOCK:   -4.94 KCAL/MOL
REMARK 924 INTRA-LIGAND FREE ENERGY PREDICTED BY IDOCK:   -0.05 KCAL/MOL
REMARK 927      BINDING AFFINITY PREDICTED BY RF-SCORE:    0.00 PKD
ROOT
HETATM    1  C   UNL     1      -9.109  20.330  67.266  1.00  0.00    -0.504 C  
HETATM    2  C   UNL     1      -8.622  18.934  67.540  1.00  0.00    -0.296 C  
HETATM    3  C   UNL     1      -7.322  18.714  67.836  1.00  0.00    -0.251 C  
ENDROOT
BRANCH   2   4
HETATM    4  C   UNL     1      -9.617  17.871  67.520  1.00  0.00    -0.269 C  
HETATM    5  C   UNL     1      -9.492  16.704  66.868  1.00  0.00    -0.248 C  
BRANCH   5   6
HETATM    6  C   UNL     1     -10.460  15.597  66.924  1.00  0.00    -0.307 C  
HETATM    7  C   UNL     1      -9.814  14.245  64.860  1.00  0.00     0.037 C  
HETATM    8  C   UNL     1     -10.936  15.187  68.118  1.00  0.00    -0.287 C  
HETATM    9  C   UNL     1     -11.988  14.125  68.278  1.00  0.00    -0.367 C  
HETATM   10  C   UNL     1     -10.493  15.735  69.459  1.00  0.00    -0.270 C  
HETATM   11  C   UNL     1     -11.405  16.168  64.645  1.00  0.00    -0.287 C  
HETATM   12  C   UNL     1     -10.950  15.014  65.579  1.00  0.00    -0.364 C  
HETATM   13  C   UNL     1     -12.164  14.042  65.681  1.00  0.00    -0.462 C  
HETATM   14  C   UNL     1     -12.558  13.475  67.033  1.00  0.00     0.112 C  
ENDBRANCH   5   6
ENDBRANCH   2   4
BRANCH   3  15
HETATM   15  C   UNL     1      -6.732  17.414  68.067  1.00  0.00    -0.181 C  
HETATM   16  C   UNL     1      -7.163  16.515  68.966  1.00  0.00    -0.219 C  
BRANCH  16  17
HETATM   17  C   UNL     1      -6.466  15.250  69.185  1.00  0.00    -0.122 C  
HETATM   18  C   UNL     1      -5.616  13.089  68.242  1.00  0.00    -0.081 C  
HETATM   19  O   UNL     1      -5.153  12.598  69.255  1.00  0.00    -0.068 OA 
HETATM   20  C   UNL     1      -6.275  14.408  68.148  1.00  0.00    -0.142 C  
HETATM   21  C   UNL     1      -6.000  14.996  70.593  1.00  0.00    -0.068 C  
HETATM   22  O   UNL     1      -5.590  12.460  67.046  1.00  0.00    -0.295 OA 
ENDBRANCH  16  17
ENDBRANCH   3  15
TORSDOF 4
ENDMDL
MODEL      210
REMARK 921   NORMALIZED FREE ENERGY PREDICTED BY IDOCK:   -2.84 KCAL/MOL
REMARK 922        TOTAL FREE ENERGY PREDICTED BY IDOCK:   -4.90 KCAL/MOL
REMARK 923 INTER-LIGAND FREE ENERGY PREDICTED BY IDOCK:   -4.24 KCAL/MOL
REMARK 924 INTRA-LIGAND FREE ENERGY PREDICTED BY IDOCK:   -0.66 KCAL/MOL
REMARK 927      BINDING AFFINITY PREDICTED BY RF-SCORE:    0.00 PKD
ROOT
HETATM    1  C   UNL     1     -12.175  14.452  66.272  1.00  0.00    -0.366 C  
HETATM    2  C   UNL     1     -11.235  13.413  66.819  1.00  0.00    -0.332 C  
HETATM    3  C   UNL     1     -11.488  12.099  66.627  1.00  0.00    -0.426 C  
ENDROOT
BRANCH   2   4
HETATM    4  C   UNL     1     -10.042  13.895  67.502  1.00  0.00    -0.244 C  
HETATM    5  C   UNL     1      -9.252  14.892  67.071  1.00  0.00    -0.249 C  
BRANCH   5   6
HETATM    6  C   UNL     1      -8.100  15.436  67.808  1.00  0.00    -0.152 C  
HETATM    7  C   UNL     1      -9.053  17.624  68.706  1.00  0.00    -0.206 C  
HETATM    8  C   UNL     1      -7.197  14.593  68.349  1.00  0.00    -0.117 C  
HETATM    9  C   UNL     1      -5.945  15.046  69.047  1.00  0.00    -0.096 C  
HETATM   10  C   UNL     1      -7.305  13.082  68.329  1.00  0.00    -0.116 C  
HETATM   11  C   UNL     1      -8.064  17.544  66.405  1.00  0.00    -0.309 C  
HETATM   12  C   UNL     1      -7.943  16.973  67.844  1.00  0.00    -0.192 C  
HETATM   13  C   UNL     1      -6.578  17.486  68.394  1.00  0.00    -0.190 C  
HETATM   14  C   UNL     1      -5.668  16.532  69.147  1.00  0.00    -0.144 C  
ENDBRANCH   5   6
ENDBRANCH   2   4
BRANCH   3  15
HETATM   15  C   UNL     1     -10.684  11.015  67.148  1.00  0.00    -0.313 C  
HETATM   16  C   UNL     1      -9.541  10.567  66.607  1.00  0.00    -0.210 C  
BRANCH  16  17
HETATM   17  C   UNL     1      -8.826   9.419  67.157  1.00  0.00    -0.138 C  
HETATM   18  C   UNL     1      -7.080   7.645  66.856  1.00  0.00    -0.084 C  
HETATM   19  O   UNL     1      -7.207   7.059  67.916  1.00  0.00    -0.086 OA 
HETATM   20  C   UNL     1      -7.855   8.829  66.429  1.00  0.00    -0.099 C  
HETATM   21  C   UNL     1      -9.243   8.989  68.537  1.00  0.00    -0.136 C  
HETATM   22  O   UNL     1      -6.194   7.263  65.911  1.00  0.00    -0.036 OA 
ENDBRANCH  16  17
ENDBRANCH   3  15
TORSDOF 4
ENDMDL
MODEL      211
REMARK 921   NORMALIZED FREE ENERGY PREDICTED BY IDOCK:   -2.72 KCAL/MOL
REMARK 922        TOTAL FREE ENERGY PREDICTED BY IDOCK:   -4.75 KCAL/MOL
REMARK 923 INTER-LIGAND FREE ENERGY PREDICTED BY IDOCK:   -3.81 KCAL/MOL
REMARK 924 INTRA-LIGAND FREE ENERGY PREDICTED BY IDOCK:   -0.94 KCAL/MOL
REMARK 927      BINDING AFFINITY PREDICTED BY RF-SCORE:    0.00 PKD
ROOT
HETATM    1  C   UNL     1      -7.879   3.215  66.907  1.00  0.00    -0.079 C  
HETATM    2  C   UNL     1      -8.394   4.467  67.562  1.00  0.00    -0.100 C  
HETATM    3  C   UNL     1      -9.464   4.413  68.387  1.00  0.00    -0.213 C  
ENDROOT
BRANCH   2   4
HETATM    4  C   UNL     1      -7.658   5.698  67.305  1.00  0.00    -0.089 C  
HETATM    5  C   UNL     1      -7.898   6.548  66.294  1.00  0.00    -0.105 C  
BRANCH   5   6
HETATM    6  C   UNL     1      -7.212   7.834  66.090  1.00  0.00    -0.074 C  
HETATM    7  C   UNL     1      -7.288   8.059  63.551  1.00  0.00    -0.110 C  
HETATM    8  C   UNL     1      -7.271   8.780  67.050  1.00  0.00    -0.079 C  
HETATM    9  C   UNL     1      -6.538  10.091  66.976  1.00  0.00    -0.070 C  
HETATM   10  C   UNL     1      -8.069   8.662  68.332  1.00  0.00    -0.118 C  
HETATM   11  C   UNL     1      -5.431   6.773  64.635  1.00  0.00    -0.027 C  
HETATM   12  C   UNL     1      -6.375   7.995  64.801  1.00  0.00    -0.049 C  
HETATM   13  C   UNL     1      -5.457   9.254  64.760  1.00  0.00    -0.053 C  
HETATM   14  C   UNL     1      -5.675  10.373  65.763  1.00  0.00    -0.099 C  
ENDBRANCH   5   6
ENDBRANCH   2   4
BRANCH   3  15
HETATM   15  C   UNL     1     -10.075   5.555  69.030  1.00  0.00    -0.275 C  
HETATM   16  C   UNL     1     -10.110   5.774  70.354  1.00  0.00    -0.271 C  
BRANCH  16  17
HETATM   17  C   UNL     1     -10.809   6.920  70.927  1.00  0.00    -0.277 C  
HETATM   18  C   UNL     1     -12.985   8.035  71.482  1.00  0.00    -0.303 C  
HETATM   19  O   UNL     1     -12.562   9.073  71.957  1.00  0.00    -0.345 OA 
HETATM   20  C   UNL     1     -12.159   6.926  70.959  1.00  0.00    -0.429 C  
HETATM   21  C   UNL     1      -9.933   8.023  71.456  1.00  0.00    -0.225 C  
HETATM   22  O   UNL     1     -14.304   7.770  71.362  1.00  0.00    -0.418 OA 
ENDBRANCH  16  17
ENDBRANCH   3  15
TORSDOF 4
ENDMDL
MODEL      212
REMARK 921   NORMALIZED FREE ENERGY PREDICTED BY IDOCK:   -2.71 KCAL/MOL
REMARK 922        TOTAL FREE ENERGY PREDICTED BY IDOCK:   -4.74 KCAL/MOL
REMARK 923 INTER-LIGAND FREE ENERGY PREDICTED BY IDOCK:   -3.74 KCAL/MOL
REMARK 924 INTRA-LIGAND FREE ENERGY PREDICTED BY IDOCK:   -1.00 KCAL/MOL
REMARK 927      BINDING AFFINITY PREDICTED BY RF-SCORE:    0.00 PKD
ROOT
HETATM    1  C   UNL     1      -6.109   8.382  74.547  1.00  0.00    -0.133 C  
HETATM    2  C   UNL     1      -6.238   8.608  73.066  1.00  0.00    -0.080 C  
HETATM    3  C   UNL     1      -5.310   9.335  72.406  1.00  0.00    -0.076 C  
ENDROOT
BRANCH   2   4
HETATM    4  C   UNL     1      -7.361   7.966  72.395  1.00  0.00    -0.104 C  
HETATM    5  C   UNL     1      -8.296   8.601  71.670  1.00  0.00    -0.216 C  
BRANCH   5   6
HETATM    6  C   UNL     1      -9.376   7.941  70.920  1.00  0.00    -0.162 C  
HETATM    7  C   UNL     1     -11.368   9.437  71.466  1.00  0.00    -0.464 C  
HETATM    8  C   UNL     1      -9.085   7.255  69.796  1.00  0.00    -0.141 C  
HETATM    9  C   UNL     1     -10.100   6.478  69.005  1.00  0.00    -0.186 C  
HETATM   10  C   UNL     1      -7.707   7.163  69.172  1.00  0.00    -0.109 C  
HETATM   11  C   UNL     1     -10.747   7.570  73.017  1.00  0.00    -0.438 C  
HETATM   12  C   UNL     1     -10.797   7.999  71.525  1.00  0.00    -0.278 C  
HETATM   13  C   UNL     1     -11.844   7.065  70.847  1.00  0.00    -0.401 C  
HETATM   14  C   UNL     1     -11.533   6.448  69.494  1.00  0.00    -0.412 C  
ENDBRANCH   5   6
ENDBRANCH   2   4
BRANCH   3  15
HETATM   15  C   UNL     1      -5.357   9.659  70.997  1.00  0.00    -0.051 C  
HETATM   16  C   UNL     1      -5.860  10.789  70.476  1.00  0.00    -0.119 C  
BRANCH  16  17
HETATM   17  C   UNL     1      -5.933  11.007  69.035  1.00  0.00    -0.041 C  
HETATM   18  C   UNL     1      -5.589  10.110  66.719  1.00  0.00    -0.046 C  
HETATM   19  O   UNL     1      -5.905  11.094  66.075  1.00  0.00    -0.144 OA 
HETATM   20  C   UNL     1      -5.590  10.008  68.193  1.00  0.00    -0.038 C  
HETATM   21  C   UNL     1      -6.408  12.367  68.602  1.00  0.00    -0.073 C  
HETATM   22  O   UNL     1      -5.177   8.959  66.142  1.00  0.00    -0.032 OA 
ENDBRANCH  16  17
ENDBRANCH   3  15
TORSDOF 4
ENDMDL
MODEL      213
REMARK 921   NORMALIZED FREE ENERGY PREDICTED BY IDOCK:   -2.69 KCAL/MOL
REMARK 922        TOTAL FREE ENERGY PREDICTED BY IDOCK:   -4.72 KCAL/MOL
REMARK 923 INTER-LIGAND FREE ENERGY PREDICTED BY IDOCK:   -3.60 KCAL/MOL
REMARK 924 INTRA-LIGAND FREE ENERGY PREDICTED BY IDOCK:   -1.12 KCAL/MOL
REMARK 927      BINDING AFFINITY PREDICTED BY RF-SCORE:    0.00 PKD
ROOT
HETATM    1  C   UNL     1      -5.332  12.164  70.622  1.00  0.00    -0.152 C  
HETATM    2  C   UNL     1      -6.240  11.226  69.876  1.00  0.00    -0.137 C  
HETATM    3  C   UNL     1      -6.418   9.960  70.315  1.00  0.00    -0.103 C  
ENDROOT
BRANCH   2   4
HETATM    4  C   UNL     1      -6.938  11.764  68.716  1.00  0.00    -0.103 C  
HETATM    5  C   UNL     1      -8.215  12.178  68.704  1.00  0.00    -0.033 C  
BRANCH   5   6
HETATM    6  C   UNL     1      -8.889  12.804  67.555  1.00  0.00    -0.187 C  
HETATM    7  C   UNL     1     -11.129  11.585  67.548  1.00  0.00    -0.329 C  
HETATM    8  C   UNL     1      -8.589  14.075  67.218  1.00  0.00    -0.228 C  
HETATM    9  C   UNL     1      -9.157  14.776  66.016  1.00  0.00    -0.061 C  
HETATM   10  C   UNL     1      -7.641  14.973  67.987  1.00  0.00    -0.126 C  
HETATM   11  C   UNL     1      -9.159  10.583  66.369  1.00  0.00    -0.181 C  
HETATM   12  C   UNL     1      -9.856  11.922  66.733  1.00  0.00    -0.214 C  
HETATM   13  C   UNL     1     -10.329  12.539  65.383  1.00  0.00    -0.305 C  
HETATM   14  C   UNL     1     -10.117  14.019  65.120  1.00  0.00    -0.343 C  
ENDBRANCH   5   6
ENDBRANCH   2   4
BRANCH   3  15
HETATM   15  C   UNL     1      -7.224   8.958  69.653  1.00  0.00    -0.055 C  
HETATM   16  C   UNL     1      -8.210   8.251  70.228  1.00  0.00    -0.121 C  
BRANCH  16  17
HETATM   17  C   UNL     1      -8.930   7.207  69.506  1.00  0.00    -0.140 C  
HETATM   18  C   UNL     1     -10.356   6.557  67.548  1.00  0.00    -0.201 C  
HETATM   19  O   UNL     1     -10.524   5.379  67.806  1.00  0.00    -0.191 OA 
HETATM   20  C   UNL     1      -9.567   7.512  68.355  1.00  0.00    -0.152 C  
HETATM   21  C   UNL     1      -8.888   5.836  70.125  1.00  0.00    -0.144 C  
HETATM   22  O   UNL     1     -10.897   7.153  66.463  1.00  0.00    -0.095 OA 
ENDBRANCH  16  17
ENDBRANCH   3  15
TORSDOF 4
ENDMDL
MODEL      214
REMARK 921   NORMALIZED FREE ENERGY PREDICTED BY IDOCK:   -2.69 KCAL/MOL
REMARK 922        TOTAL FREE ENERGY PREDICTED BY IDOCK:   -4.71 KCAL/MOL
REMARK 923 INTER-LIGAND FREE ENERGY PREDICTED BY IDOCK:   -3.90 KCAL/MOL
REMARK 924 INTRA-LIGAND FREE ENERGY PREDICTED BY IDOCK:   -0.81 KCAL/MOL
REMARK 927      BINDING AFFINITY PREDICTED BY RF-SCORE:    0.00 PKD
ROOT
HETATM    1  C   UNL     1     -11.241  10.215  70.109  1.00  0.00    -0.377 C  
HETATM    2  C   UNL     1     -10.642   8.999  69.457  1.00  0.00    -0.231 C  
HETATM    3  C   UNL     1     -10.486   8.953  68.116  1.00  0.00    -0.254 C  
ENDROOT
BRANCH   2   4
HETATM    4  C   UNL     1     -10.201   7.926  70.340  1.00  0.00    -0.197 C  
HETATM    5  C   UNL     1      -8.922   7.613  70.600  1.00  0.00    -0.153 C  
BRANCH   5   6
HETATM    6  C   UNL     1      -8.482   6.589  71.560  1.00  0.00    -0.125 C  
HETATM    7  C   UNL     1      -9.431   7.494  73.747  1.00  0.00    -0.330 C  
HETATM    8  C   UNL     1      -8.311   5.316  71.147  1.00  0.00    -0.122 C  
HETATM    9  C   UNL     1      -7.786   4.215  72.026  1.00  0.00    -0.084 C  
HETATM   10  C   UNL     1      -8.614   4.814  69.750  1.00  0.00    -0.101 C  
HETATM   11  C   UNL     1      -7.195   8.281  72.936  1.00  0.00    -0.139 C  
HETATM   12  C   UNL     1      -8.149   7.058  72.995  1.00  0.00    -0.118 C  
HETATM   13  C   UNL     1      -7.434   6.000  73.889  1.00  0.00    -0.092 C  
HETATM   14  C   UNL     1      -7.416   4.544  73.458  1.00  0.00    -0.082 C  
ENDBRANCH   5   6
ENDBRANCH   2   4
BRANCH   3  15
HETATM   15  C   UNL     1      -9.970   7.820  67.379  1.00  0.00    -0.257 C  
HETATM   16  C   UNL     1     -10.666   6.716  67.065  1.00  0.00    -0.437 C  
BRANCH  16  17
HETATM   17  C   UNL     1     -10.049   5.586  66.377  1.00  0.00    -0.220 C  
HETATM   18  C   UNL     1     -10.282   3.680  64.765  1.00  0.00    -0.101 C  
HETATM   19  O   UNL     1      -9.160   3.215  64.843  1.00  0.00    -0.131 OA 
HETATM   20  C   UNL     1     -10.778   4.863  65.501  1.00  0.00    -0.072 C  
HETATM   21  C   UNL     1      -8.605   5.327  66.711  1.00  0.00    -0.106 C  
HETATM   22  O   UNL     1     -11.243   3.148  63.978  1.00  0.00    -0.175 OA 
ENDBRANCH  16  17
ENDBRANCH   3  15
TORSDOF 4
ENDMDL
MODEL      215
REMARK 921   NORMALIZED FREE ENERGY PREDICTED BY IDOCK:   -2.67 KCAL/MOL
REMARK 922        TOTAL FREE ENERGY PREDICTED BY IDOCK:   -4.69 KCAL/MOL
REMARK 923 INTER-LIGAND FREE ENERGY PREDICTED BY IDOCK:   -4.86 KCAL/MOL
REMARK 924 INTRA-LIGAND FREE ENERGY PREDICTED BY IDOCK:    0.17 KCAL/MOL
REMARK 927      BINDING AFFINITY PREDICTED BY RF-SCORE:    0.00 PKD
ROOT
HETATM    1  C   UNL     1      -8.381  12.596  67.453  1.00  0.00    -0.184 C  
HETATM    2  C   UNL     1      -9.396  13.330  68.286  1.00  0.00    -0.205 C  
HETATM    3  C   UNL     1     -10.145  12.662  69.190  1.00  0.00     0.306 C  
ENDROOT
BRANCH   2   4
HETATM    4  C   UNL     1      -9.483  14.773  68.102  1.00  0.00    -0.208 C  
HETATM    5  C   UNL     1      -8.737  15.492  67.247  1.00  0.00    -0.214 C  
BRANCH   5   6
HETATM    6  C   UNL     1      -8.890  16.934  67.000  1.00  0.00    -0.231 C  
HETATM    7  C   UNL     1     -10.623  17.575  68.758  1.00  0.00    -0.241 C  
HETATM    8  C   UNL     1      -7.853  17.639  66.504  1.00  0.00    -0.307 C  
HETATM    9  C   UNL     1      -7.931  19.096  66.139  1.00  0.00    -0.291 C  
HETATM   10  C   UNL     1      -6.473  17.074  66.237  1.00  0.00    -0.068 C  
HETATM   11  C   UNL     1     -11.368  16.699  66.532  1.00  0.00     0.642 C  
HETATM   12  C   UNL     1     -10.285  17.552  67.247  1.00  0.00    -0.335 C  
HETATM   13  C   UNL     1     -10.468  19.007  66.717  1.00  0.00    -0.510 C  
HETATM   14  C   UNL     1      -9.248  19.821  66.328  1.00  0.00    -0.461 C  
ENDBRANCH   5   6
ENDBRANCH   2   4
BRANCH   3  15
HETATM   15  C   UNL     1     -11.183  13.252  70.007  1.00  0.00     0.148 C  
HETATM   16  C   UNL     1     -11.367  14.568  70.196  1.00  0.00    -0.250 C  
BRANCH  16  17
HETATM   17  C   UNL     1     -12.398  15.080  71.094  1.00  0.00    -0.391 C  
HETATM   18  C   UNL     1     -13.024  15.905  73.377  1.00  0.00    -0.583 C  
HETATM   19  O   UNL     1     -14.214  16.093  73.202  1.00  0.00    -0.335 OA 
HETATM   20  C   UNL     1     -12.072  15.407  72.363  1.00  0.00    -0.512 C  
HETATM   21  C   UNL     1     -13.776  15.209  70.503  1.00  0.00     0.073 C  
HETATM   22  O   UNL     1     -12.416  16.126  74.563  1.00  0.00    -0.705 OA 
ENDBRANCH  16  17
ENDBRANCH   3  15
TORSDOF 4
ENDMDL
MODEL      216
REMARK 921   NORMALIZED FREE ENERGY PREDICTED BY IDOCK:   -2.66 KCAL/MOL
REMARK 922        TOTAL FREE ENERGY PREDICTED BY IDOCK:   -4.68 KCAL/MOL
REMARK 923 INTER-LIGAND FREE ENERGY PREDICTED BY IDOCK:   -4.04 KCAL/MOL
REMARK 924 INTRA-LIGAND FREE ENERGY PREDICTED BY IDOCK:   -0.64 KCAL/MOL
REMARK 927      BINDING AFFINITY PREDICTED BY RF-SCORE:    0.00 PKD
ROOT
HETATM    1  C   UNL     1     -11.694  14.220  66.833  1.00  0.00    -0.430 C  
HETATM    2  C   UNL     1     -10.964  12.968  67.233  1.00  0.00    -0.288 C  
HETATM    3  C   UNL     1     -11.440  11.757  66.868  1.00  0.00    -0.364 C  
ENDROOT
BRANCH   2   4
HETATM    4  C   UNL     1      -9.718  13.136  67.969  1.00  0.00    -0.224 C  
HETATM    5  C   UNL     1      -8.794  14.079  67.724  1.00  0.00    -0.187 C  
BRANCH   5   6
HETATM    6  C   UNL     1      -7.581  14.301  68.527  1.00  0.00    -0.127 C  
HETATM    7  C   UNL     1      -5.886  12.834  67.312  1.00  0.00    -0.019 C  
HETATM    8  C   UNL     1      -7.412  15.475  69.170  1.00  0.00    -0.191 C  
HETATM    9  C   UNL     1      -6.252  15.770  70.080  1.00  0.00    -0.125 C  
HETATM   10  C   UNL     1      -8.359  16.655  69.077  1.00  0.00    -0.182 C  
HETATM   11  C   UNL     1      -7.363  11.838  69.073  1.00  0.00    -0.055 C  
HETATM   12  C   UNL     1      -6.592  13.120  68.660  1.00  0.00    -0.092 C  
HETATM   13  C   UNL     1      -5.474  13.310  69.728  1.00  0.00    -0.098 C  
HETATM   14  C   UNL     1      -5.211  14.692  70.301  1.00  0.00    -0.101 C  
ENDBRANCH   5   6
ENDBRANCH   2   4
BRANCH   3  15
HETATM   15  C   UNL     1     -10.852  10.488  67.237  1.00  0.00    -0.338 C  
HETATM   16  C   UNL     1      -9.951   9.809  66.509  1.00  0.00    -0.304 C  
BRANCH  16  17
HETATM   17  C   UNL     1      -9.459   8.498  66.922  1.00  0.00    -0.237 C  
HETATM   18  C   UNL     1      -7.527   6.915  67.142  1.00  0.00    -0.095 C  
HETATM   19  O   UNL     1      -8.112   5.949  67.597  1.00  0.00    -0.102 OA 
HETATM   20  C   UNL     1      -8.146   8.211  66.793  1.00  0.00    -0.103 C  
HETATM   21  C   UNL     1     -10.491   7.557  67.480  1.00  0.00    -0.341 C  
HETATM   22  O   UNL     1      -6.201   6.912  66.884  1.00  0.00    -0.037 OA 
ENDBRANCH  16  17
ENDBRANCH   3  15
TORSDOF 4
ENDMDL
MODEL      217
REMARK 921   NORMALIZED FREE ENERGY PREDICTED BY IDOCK:   -2.65 KCAL/MOL
REMARK 922        TOTAL FREE ENERGY PREDICTED BY IDOCK:   -4.66 KCAL/MOL
REMARK 923 INTER-LIGAND FREE ENERGY PREDICTED BY IDOCK:   -3.74 KCAL/MOL
REMARK 924 INTRA-LIGAND FREE ENERGY PREDICTED BY IDOCK:   -0.92 KCAL/MOL
REMARK 927      BINDING AFFINITY PREDICTED BY RF-SCORE:    0.00 PKD
ROOT
HETATM    1  C   UNL     1      -9.822   9.332  65.990  1.00  0.00    -0.363 C  
HETATM    2  C   UNL     1      -9.941   8.106  66.852  1.00  0.00    -0.343 C  
HETATM    3  C   UNL     1     -10.605   8.162  68.027  1.00  0.00    -0.188 C  
ENDROOT
BRANCH   2   4
HETATM    4  C   UNL     1      -9.359   6.874  66.334  1.00  0.00    -0.183 C  
HETATM    5  C   UNL     1      -8.346   6.198  66.898  1.00  0.00    -0.106 C  
BRANCH   5   6
HETATM    6  C   UNL     1      -7.822   4.909  66.420  1.00  0.00    -0.099 C  
HETATM    7  C   UNL     1      -9.905   3.857  65.393  1.00  0.00    -0.167 C  
HETATM    8  C   UNL     1      -6.527   4.809  66.056  1.00  0.00    -0.040 C  
HETATM    9  C   UNL     1      -5.875   3.521  65.635  1.00  0.00    -0.019 C  
HETATM   10  C   UNL     1      -5.547   5.964  66.023  1.00  0.00    -0.013 C  
HETATM   11  C   UNL     1      -9.456   3.598  67.843  1.00  0.00    -0.224 C  
HETATM   12  C   UNL     1      -8.783   3.698  66.448  1.00  0.00    -0.121 C  
HETATM   13  C   UNL     1      -8.113   2.314  66.195  1.00  0.00    -0.085 C  
HETATM   14  C   UNL     1      -6.707   2.256  65.623  1.00  0.00    -0.035 C  
ENDBRANCH   5   6
ENDBRANCH   2   4
BRANCH   3  15
HETATM   15  C   UNL     1     -10.740   7.064  68.959  1.00  0.00    -0.234 C  
HETATM   16  C   UNL     1     -10.798   7.182  70.295  1.00  0.00    -0.271 C  
BRANCH  16  17
HETATM   17  C   UNL     1     -10.864   6.014  71.169  1.00  0.00    -0.338 C  
HETATM   18  C   UNL     1      -9.924   3.786  71.832  1.00  0.00    -0.160 C  
HETATM   19  O   UNL     1     -10.711   3.492  72.713  1.00  0.00    -0.137 OA 
HETATM   20  C   UNL     1      -9.949   5.031  71.034  1.00  0.00    -0.281 C  
HETATM   21  C   UNL     1     -11.978   6.016  72.180  1.00  0.00    -0.261 C  
HETATM   22  O   UNL     1      -8.908   2.978  71.459  1.00  0.00    -0.075 OA 
ENDBRANCH  16  17
ENDBRANCH   3  15
TORSDOF 4
ENDMDL
MODEL      218
REMARK 921   NORMALIZED FREE ENERGY PREDICTED BY IDOCK:   -2.62 KCAL/MOL
REMARK 922        TOTAL FREE ENERGY PREDICTED BY IDOCK:   -4.62 KCAL/MOL
REMARK 923 INTER-LIGAND FREE ENERGY PREDICTED BY IDOCK:   -3.86 KCAL/MOL
REMARK 924 INTRA-LIGAND FREE ENERGY PREDICTED BY IDOCK:   -0.76 KCAL/MOL
REMARK 927      BINDING AFFINITY PREDICTED BY RF-SCORE:    0.00 PKD
ROOT
HETATM    1  C   UNL     1      -8.339  10.462  65.769  1.00  0.00    -0.158 C  
HETATM    2  C   UNL     1      -8.602   9.022  66.115  1.00  0.00    -0.149 C  
HETATM    3  C   UNL     1      -8.268   8.043  65.247  1.00  0.00    -0.148 C  
ENDROOT
BRANCH   2   4
HETATM    4  C   UNL     1      -9.171   8.752  67.429  1.00  0.00    -0.158 C  
HETATM    5  C   UNL     1      -8.677   7.881  68.323  1.00  0.00    -0.130 C  
BRANCH   5   6
HETATM    6  C   UNL     1      -9.203   7.677  69.683  1.00  0.00    -0.146 C  
HETATM    7  C   UNL     1      -9.254   5.132  69.836  1.00  0.00    -0.173 C  
HETATM    8  C   UNL     1      -8.965   8.602  70.636  1.00  0.00    -0.199 C  
HETATM    9  C   UNL     1      -9.525   8.529  72.029  1.00  0.00    -0.364 C  
HETATM   10  C   UNL     1      -8.111   9.839  70.445  1.00  0.00    -0.134 C  
HETATM   11  C   UNL     1     -11.192   6.361  68.830  1.00  0.00    -0.358 C  
HETATM   12  C   UNL     1     -10.089   6.434  69.921  1.00  0.00    -0.206 C  
HETATM   13  C   UNL     1     -10.838   6.406  71.288  1.00  0.00    -0.306 C  
HETATM   14  C   UNL     1     -10.417   7.359  72.392  1.00  0.00    -0.273 C  
ENDBRANCH   5   6
ENDBRANCH   2   4
BRANCH   3  15
HETATM   15  C   UNL     1      -8.518   6.632  65.450  1.00  0.00    -0.112 C  
HETATM   16  C   UNL     1      -7.991   5.637  64.720  1.00  0.00    -0.119 C  
BRANCH  16  17
HETATM   17  C   UNL     1      -8.350   4.241  64.948  1.00  0.00    -0.108 C  
HETATM   18  C   UNL     1      -9.151   2.473  66.535  1.00  0.00    -0.096 C  
HETATM   19  O   UNL     1      -9.116   1.509  65.793  1.00  0.00    -0.120 OA 
HETATM   20  C   UNL     1      -8.787   3.857  66.166  1.00  0.00    -0.124 C  
HETATM   21  C   UNL     1      -8.206   3.326  63.762  1.00  0.00    -0.089 C  
HETATM   22  O   UNL     1      -9.530   2.387  67.829  1.00  0.00    -0.194 OA 
ENDBRANCH  16  17
ENDBRANCH   3  15
TORSDOF 4
ENDMDL
MODEL      219
REMARK 921   NORMALIZED FREE ENERGY PREDICTED BY IDOCK:   -2.57 KCAL/MOL
REMARK 922        TOTAL FREE ENERGY PREDICTED BY IDOCK:   -4.56 KCAL/MOL
REMARK 923 INTER-LIGAND FREE ENERGY PREDICTED BY IDOCK:   -3.63 KCAL/MOL
REMARK 924 INTRA-LIGAND FREE ENERGY PREDICTED BY IDOCK:   -0.93 KCAL/MOL
REMARK 927      BINDING AFFINITY PREDICTED BY RF-SCORE:    0.00 PKD
ROOT
HETATM    1  C   UNL     1      -9.822   9.329  65.982  1.00  0.00    -0.363 C  
HETATM    2  C   UNL     1      -9.947   8.100  66.838  1.00  0.00    -0.343 C  
HETATM    3  C   UNL     1     -10.573   8.164  68.034  1.00  0.00    -0.188 C  
ENDROOT
BRANCH   2   4
HETATM    4  C   UNL     1      -9.415   6.858  66.292  1.00  0.00    -0.122 C  
HETATM    5  C   UNL     1      -8.405   6.149  66.820  1.00  0.00    -0.110 C  
BRANCH   5   6
HETATM    6  C   UNL     1      -7.931   4.850  66.317  1.00  0.00    -0.107 C  
HETATM    7  C   UNL     1      -5.463   5.333  65.895  1.00  0.00    -0.013 C  
HETATM    8  C   UNL     1      -8.538   3.716  66.722  1.00  0.00    -0.110 C  
HETATM    9  C   UNL     1      -8.186   2.349  66.205  1.00  0.00    -0.088 C  
HETATM   10  C   UNL     1      -9.657   3.652  67.742  1.00  0.00    -0.189 C  
HETATM   11  C   UNL     1      -7.158   5.861  64.127  1.00  0.00    -0.053 C  
HETATM   12  C   UNL     1      -6.798   4.867  65.265  1.00  0.00    -0.060 C  
HETATM   13  C   UNL     1      -6.522   3.501  64.567  1.00  0.00    -0.035 C  
HETATM   14  C   UNL     1      -7.094   2.226  65.163  1.00  0.00    -0.056 C  
ENDBRANCH   5   6
ENDBRANCH   2   4
BRANCH   3  15
HETATM   15  C   UNL     1     -10.708   7.062  68.961  1.00  0.00    -0.234 C  
HETATM   16  C   UNL     1     -10.717   7.170  70.299  1.00  0.00    -0.258 C  
BRANCH  16  17
HETATM   17  C   UNL     1     -10.788   5.997  71.165  1.00  0.00    -0.338 C  
HETATM   18  C   UNL     1      -9.895   3.735  71.776  1.00  0.00    -0.174 C  
HETATM   19  O   UNL     1     -10.658   3.459  72.684  1.00  0.00    -0.134 OA 
HETATM   20  C   UNL     1      -9.910   4.987  70.989  1.00  0.00    -0.266 C  
HETATM   21  C   UNL     1     -11.863   6.026  72.218  1.00  0.00    -0.305 C  
HETATM   22  O   UNL     1      -8.920   2.899  71.359  1.00  0.00    -0.083 OA 
ENDBRANCH  16  17
ENDBRANCH   3  15
TORSDOF 4
ENDMDL
MODEL      220
REMARK 921   NORMALIZED FREE ENERGY PREDICTED BY IDOCK:   -2.55 KCAL/MOL
REMARK 922        TOTAL FREE ENERGY PREDICTED BY IDOCK:   -4.54 KCAL/MOL
REMARK 923 INTER-LIGAND FREE ENERGY PREDICTED BY IDOCK:   -4.08 KCAL/MOL
REMARK 924 INTRA-LIGAND FREE ENERGY PREDICTED BY IDOCK:   -0.47 KCAL/MOL
REMARK 927      BINDING AFFINITY PREDICTED BY RF-SCORE:    0.00 PKD
ROOT
HETATM    1  C   UNL     1      -5.612  10.423  70.420  1.00  0.00    -0.073 C  
HETATM    2  C   UNL     1      -6.274  11.683  69.934  1.00  0.00    -0.144 C  
HETATM    3  C   UNL     1      -5.989  12.868  70.518  1.00  0.00    -0.075 C  
ENDROOT
BRANCH   2   4
HETATM    4  C   UNL     1      -7.173  11.561  68.794  1.00  0.00    -0.112 C  
HETATM    5  C   UNL     1      -8.514  11.572  68.860  1.00  0.00     0.011 C  
BRANCH   5   6
HETATM    6  C   UNL     1      -9.416  11.538  67.698  1.00  0.00    -0.170 C  
HETATM    7  C   UNL     1      -9.308   9.078  67.035  1.00  0.00    -0.190 C  
HETATM    8  C   UNL     1     -10.438  12.416  67.622  1.00  0.00    -0.229 C  
HETATM    9  C   UNL     1     -11.364  12.519  66.442  1.00  0.00    -0.379 C  
HETATM   10  C   UNL     1     -10.797  13.420  68.699  1.00  0.00    -0.287 C  
HETATM   11  C   UNL     1      -7.588  10.681  66.169  1.00  0.00    -0.138 C  
HETATM   12  C   UNL     1      -9.082  10.538  66.569  1.00  0.00    -0.175 C  
HETATM   13  C   UNL     1      -9.896  10.727  65.253  1.00  0.00    -0.329 C  
HETATM   14  C   UNL     1     -11.141  11.596  65.262  1.00  0.00    -0.298 C  
ENDBRANCH   5   6
ENDBRANCH   2   4
BRANCH   3  15
HETATM   15  C   UNL     1      -6.600  14.132  70.170  1.00  0.00    -0.034 C  
HETATM   16  C   UNL     1      -6.396  14.803  69.025  1.00  0.00    -0.093 C  
BRANCH  16  17
HETATM   17  C   UNL     1      -6.999  16.111  68.781  1.00  0.00    -0.148 C  
HETATM   18  C   UNL     1      -9.003  17.440  68.072  1.00  0.00    -0.255 C  
HETATM   19  O   UNL     1      -8.535  18.561  68.146  1.00  0.00    -0.280 OA 
HETATM   20  C   UNL     1      -8.286  16.185  68.382  1.00  0.00    -0.179 C  
HETATM   21  C   UNL     1      -6.104  17.297  69.014  1.00  0.00    -0.199 C  
HETATM   22  O   UNL     1     -10.272  17.202  67.675  1.00  0.00    -0.304 OA 
ENDBRANCH  16  17
ENDBRANCH   3  15
TORSDOF 4
ENDMDL
MODEL      221
REMARK 921   NORMALIZED FREE ENERGY PREDICTED BY IDOCK:   -2.54 KCAL/MOL
REMARK 922        TOTAL FREE ENERGY PREDICTED BY IDOCK:   -4.52 KCAL/MOL
REMARK 923 INTER-LIGAND FREE ENERGY PREDICTED BY IDOCK:   -3.46 KCAL/MOL
REMARK 924 INTRA-LIGAND FREE ENERGY PREDICTED BY IDOCK:   -1.06 KCAL/MOL
REMARK 927      BINDING AFFINITY PREDICTED BY RF-SCORE:    0.00 PKD
ROOT
HETATM    1  C   UNL     1      -7.500  11.492  68.233  1.00  0.00    -0.103 C  
HETATM    2  C   UNL     1      -7.551  10.026  67.905  1.00  0.00    -0.089 C  
HETATM    3  C   UNL     1      -6.809   9.530  66.890  1.00  0.00    -0.080 C  
ENDROOT
BRANCH   2   4
HETATM    4  C   UNL     1      -8.381   9.186  68.758  1.00  0.00    -0.121 C  
HETATM    5  C   UNL     1      -9.716   9.276  68.872  1.00  0.00    -0.164 C  
BRANCH   5   6
HETATM    6  C   UNL     1     -10.559   8.369  69.665  1.00  0.00    -0.219 C  
HETATM    7  C   UNL     1     -11.832  10.012  71.142  1.00  0.00    -0.481 C  
HETATM    8  C   UNL     1     -10.950   7.190  69.139  1.00  0.00    -0.142 C  
HETATM    9  C   UNL     1     -11.740   6.158  69.894  1.00  0.00    -0.043 C  
HETATM   10  C   UNL     1     -10.648   6.733  67.726  1.00  0.00    -0.307 C  
HETATM   11  C   UNL     1      -9.573   9.191  71.848  1.00  0.00    -0.030 C  
HETATM   12  C   UNL     1     -10.883   8.789  71.117  1.00  0.00    -0.335 C  
HETATM   13  C   UNL     1     -11.541   7.683  71.996  1.00  0.00    -0.334 C  
HETATM   14  C   UNL     1     -12.119   6.445  71.333  1.00  0.00    -0.257 C  
ENDBRANCH   5   6
ENDBRANCH   2   4
BRANCH   3  15
HETATM   15  C   UNL     1      -6.816   8.151  66.453  1.00  0.00    -0.066 C  
HETATM   16  C   UNL     1      -7.435   7.687  65.356  1.00  0.00    -0.078 C  
BRANCH  16  17
HETATM   17  C   UNL     1      -7.451   6.265  65.024  1.00  0.00    -0.083 C  
HETATM   18  C   UNL     1      -8.775   4.160  64.709  1.00  0.00    -0.127 C  
HETATM   19  O   UNL     1      -7.868   3.391  64.448  1.00  0.00    -0.080 OA 
HETATM   20  C   UNL     1      -8.626   5.602  64.999  1.00  0.00    -0.108 C  
HETATM   21  C   UNL     1      -6.112   5.650  64.721  1.00  0.00    -0.025 C  
HETATM   22  O   UNL     1     -10.067   3.771  64.779  1.00  0.00    -0.191 OA 
ENDBRANCH  16  17
ENDBRANCH   3  15
TORSDOF 4
ENDMDL
MODEL      222
REMARK 921   NORMALIZED FREE ENERGY PREDICTED BY IDOCK:   -2.53 KCAL/MOL
REMARK 922        TOTAL FREE ENERGY PREDICTED BY IDOCK:   -4.52 KCAL/MOL
REMARK 923 INTER-LIGAND FREE ENERGY PREDICTED BY IDOCK:   -3.98 KCAL/MOL
REMARK 924 INTRA-LIGAND FREE ENERGY PREDICTED BY IDOCK:   -0.54 KCAL/MOL
REMARK 927      BINDING AFFINITY PREDICTED BY RF-SCORE:    0.00 PKD
ROOT
HETATM    1  C   UNL     1      -5.129  11.120  70.318  1.00  0.00    -0.066 C  
HETATM    2  C   UNL     1      -6.103  12.163  69.845  1.00  0.00    -0.146 C  
HETATM    3  C   UNL     1      -6.081  13.405  70.377  1.00  0.00    -0.077 C  
ENDROOT
BRANCH   2   4
HETATM    4  C   UNL     1      -7.010  11.782  68.770  1.00  0.00    -0.103 C  
HETATM    5  C   UNL     1      -6.739  11.873  67.458  1.00  0.00    -0.111 C  
BRANCH   5   6
HETATM    6  C   UNL     1      -7.621  11.404  66.379  1.00  0.00    -0.024 C  
HETATM    7  C   UNL     1      -9.441  13.191  66.390  1.00  0.00    -0.226 C  
HETATM    8  C   UNL     1      -7.103  10.696  65.354  1.00  0.00    -0.011 C  
HETATM    9  C   UNL     1      -7.929  10.101  64.248  1.00  0.00    -0.155 C  
HETATM   10  C   UNL     1      -5.630  10.394  65.170  1.00  0.00    -0.137 C  
HETATM   11  C   UNL     1      -9.610  11.228  67.937  1.00  0.00    -0.182 C  
HETATM   12  C   UNL     1      -9.135  11.679  66.530  1.00  0.00    -0.200 C  
HETATM   13  C   UNL     1     -10.049  10.933  65.511  1.00  0.00    -0.325 C  
HETATM   14  C   UNL     1      -9.432  10.294  64.279  1.00  0.00    -0.365 C  
ENDBRANCH   5   6
ENDBRANCH   2   4
BRANCH   3  15
HETATM   15  C   UNL     1      -6.998  14.471  70.037  1.00  0.00    -0.019 C  
HETATM   16  C   UNL     1      -6.780  15.415  69.108  1.00  0.00    -0.138 C  
BRANCH  16  17
HETATM   17  C   UNL     1      -7.730  16.499  68.874  1.00  0.00    -0.236 C  
HETATM   18  C   UNL     1      -8.135  18.951  68.549  1.00  0.00    -0.348 C  
HETATM   19  O   UNL     1      -9.348  18.942  68.450  1.00  0.00    -0.320 OA 
HETATM   20  C   UNL     1      -7.278  17.765  68.755  1.00  0.00    -0.271 C  
HETATM   21  C   UNL     1      -9.175  16.091  68.774  1.00  0.00    -0.224 C  
HETATM   22  O   UNL     1      -7.405  20.087  68.491  1.00  0.00    -0.298 OA 
ENDBRANCH  16  17
ENDBRANCH   3  15
TORSDOF 4
ENDMDL
MODEL      223
REMARK 921   NORMALIZED FREE ENERGY PREDICTED BY IDOCK:   -2.46 KCAL/MOL
REMARK 922        TOTAL FREE ENERGY PREDICTED BY IDOCK:   -4.44 KCAL/MOL
REMARK 923 INTER-LIGAND FREE ENERGY PREDICTED BY IDOCK:   -3.96 KCAL/MOL
REMARK 924 INTRA-LIGAND FREE ENERGY PREDICTED BY IDOCK:   -0.48 KCAL/MOL
REMARK 927      BINDING AFFINITY PREDICTED BY RF-SCORE:    0.00 PKD
ROOT
HETATM    1  C   UNL     1     -12.121  14.102  66.328  1.00  0.00    -0.463 C  
HETATM    2  C   UNL     1     -11.251  13.187  67.145  1.00  0.00    -0.326 C  
HETATM    3  C   UNL     1     -11.517  11.863  67.197  1.00  0.00    -0.386 C  
ENDROOT
BRANCH   2   4
HETATM    4  C   UNL     1     -10.105  13.788  67.814  1.00  0.00    -0.245 C  
HETATM    5  C   UNL     1      -9.233  14.637  67.246  1.00  0.00    -0.212 C  
BRANCH   5   6
HETATM    6  C   UNL     1      -8.131  15.311  67.949  1.00  0.00    -0.146 C  
HETATM    7  C   UNL     1      -6.233  13.634  67.655  1.00  0.00    -0.129 C  
HETATM    8  C   UNL     1      -8.101  16.659  68.005  1.00  0.00    -0.181 C  
HETATM    9  C   UNL     1      -7.067  17.440  68.767  1.00  0.00    -0.246 C  
HETATM   10  C   UNL     1      -9.095  17.574  67.321  1.00  0.00    -0.240 C  
HETATM   11  C   UNL     1      -7.838  13.380  69.561  1.00  0.00     0.786 C  
HETATM   12  C   UNL     1      -7.098  14.416  68.672  1.00  0.00    -0.116 C  
HETATM   13  C   UNL     1      -6.117  15.170  69.620  1.00  0.00    -0.127 C  
HETATM   14  C   UNL     1      -5.998  16.681  69.527  1.00  0.00    -0.205 C  
ENDBRANCH   5   6
ENDBRANCH   2   4
BRANCH   3  15
HETATM   15  C   UNL     1     -10.782  10.899  67.986  1.00  0.00    -0.263 C  
HETATM   16  C   UNL     1     -11.330   9.972  68.787  1.00  0.00    -0.117 C  
BRANCH  16  17
HETATM   17  C   UNL     1     -10.514   9.081  69.606  1.00  0.00    -0.227 C  
HETATM   18  C   UNL     1     -10.135   6.784  70.537  1.00  0.00    -0.183 C  
HETATM   19  O   UNL     1      -9.140   7.001  71.203  1.00  0.00    -0.152 OA 
HETATM   20  C   UNL     1     -10.857   7.780  69.717  1.00  0.00    -0.211 C  
HETATM   21  C   UNL     1      -9.317   9.712  70.266  1.00  0.00    -0.292 C  
HETATM   22  O   UNL     1     -10.723   5.569  70.473  1.00  0.00    -0.275 OA 
ENDBRANCH  16  17
ENDBRANCH   3  15
TORSDOF 4
ENDMDL
MODEL      224
REMARK 921   NORMALIZED FREE ENERGY PREDICTED BY IDOCK:   -2.38 KCAL/MOL
REMARK 922        TOTAL FREE ENERGY PREDICTED BY IDOCK:   -4.34 KCAL/MOL
REMARK 923 INTER-LIGAND FREE ENERGY PREDICTED BY IDOCK:   -3.44 KCAL/MOL
REMARK 924 INTRA-LIGAND FREE ENERGY PREDICTED BY IDOCK:   -0.89 KCAL/MOL
REMARK 927      BINDING AFFINITY PREDICTED BY RF-SCORE:    0.00 PKD
ROOT
HETATM    1  C   UNL     1      -8.248   8.236  73.094  1.00  0.00    -0.233 C  
HETATM    2  C   UNL     1      -8.693   8.447  71.673  1.00  0.00    -0.240 C  
HETATM    3  C   UNL     1      -8.835   9.698  71.183  1.00  0.00     0.472 C  
ENDROOT
BRANCH   2   4
HETATM    4  C   UNL     1      -8.902   7.254  70.863  1.00  0.00    -0.149 C  
HETATM    5  C   UNL     1      -8.120   6.861  69.845  1.00  0.00    -0.125 C  
BRANCH   5   6
HETATM    6  C   UNL     1      -8.284   5.610  69.088  1.00  0.00    -0.100 C  
HETATM    7  C   UNL     1      -8.454   6.477  66.695  1.00  0.00    -0.116 C  
HETATM    8  C   UNL     1      -7.746   4.468  69.563  1.00  0.00    -0.055 C  
HETATM    9  C   UNL     1      -7.926   3.125  68.911  1.00  0.00    -0.064 C  
HETATM   10  C   UNL     1      -6.896   4.368  70.813  1.00  0.00    -0.036 C  
HETATM   11  C   UNL     1     -10.505   6.357  68.128  1.00  0.00    -0.267 C  
HETATM   12  C   UNL     1      -9.154   5.662  67.811  1.00  0.00    -0.106 C  
HETATM   13  C   UNL     1      -9.519   4.275  67.202  1.00  0.00    -0.204 C  
HETATM   14  C   UNL     1      -8.764   3.037  67.652  1.00  0.00    -0.140 C  
ENDBRANCH   5   6
ENDBRANCH   2   4
BRANCH   3  15
HETATM   15  C   UNL     1      -9.303  10.020  69.853  1.00  0.00    -0.207 C  
HETATM   16  C   UNL     1     -10.142  11.023  69.547  1.00  0.00     0.019 C  
BRANCH  16  17
HETATM   17  C   UNL     1     -10.621  11.237  68.185  1.00  0.00    -0.225 C  
HETATM   18  C   UNL     1     -11.507  12.824  66.458  1.00  0.00    -0.355 C  
HETATM   19  O   UNL     1     -11.678  12.043  65.539  1.00  0.00    -0.348 OA 
HETATM   20  C   UNL     1     -10.978  12.479  67.794  1.00  0.00    -0.270 C  
HETATM   21  C   UNL     1     -10.666  10.016  67.308  1.00  0.00    -0.309 C  
HETATM   22  O   UNL     1     -11.800  14.139  66.364  1.00  0.00    -0.386 OA 
ENDBRANCH  16  17
ENDBRANCH   3  15
TORSDOF 4
ENDMDL
MODEL      225
REMARK 921   NORMALIZED FREE ENERGY PREDICTED BY IDOCK:   -2.36 KCAL/MOL
REMARK 922        TOTAL FREE ENERGY PREDICTED BY IDOCK:   -4.31 KCAL/MOL
REMARK 923 INTER-LIGAND FREE ENERGY PREDICTED BY IDOCK:   -3.74 KCAL/MOL
REMARK 924 INTRA-LIGAND FREE ENERGY PREDICTED BY IDOCK:   -0.57 KCAL/MOL
REMARK 927      BINDING AFFINITY PREDICTED BY RF-SCORE:    0.00 PKD
ROOT
HETATM    1  C   UNL     1     -12.721  14.152  65.335  1.00  0.00    -0.453 C  
HETATM    2  C   UNL     1     -11.723  13.316  66.087  1.00  0.00    -0.416 C  
HETATM    3  C   UNL     1     -11.849  11.971  66.116  1.00  0.00    -0.225 C  
ENDROOT
BRANCH   2   4
HETATM    4  C   UNL     1     -10.614  14.018  66.718  1.00  0.00    -0.277 C  
HETATM    5  C   UNL     1      -9.339  13.991  66.297  1.00  0.00    -0.199 C  
BRANCH   5   6
HETATM    6  C   UNL     1      -8.239  14.773  66.883  1.00  0.00    -0.144 C  
HETATM    7  C   UNL     1      -9.512  16.630  68.082  1.00  0.00    -0.228 C  
HETATM    8  C   UNL     1      -7.084  14.158  67.211  1.00  0.00     0.057 C  
HETATM    9  C   UNL     1      -5.874  14.879  67.737  1.00  0.00    -0.112 C  
HETATM   10  C   UNL     1      -6.836  12.668  67.095  1.00  0.00    -0.028 C  
HETATM   11  C   UNL     1      -8.938  16.875  65.655  1.00  0.00     0.341 C  
HETATM   12  C   UNL     1      -8.444  16.300  67.010  1.00  0.00    -0.232 C  
HETATM   13  C   UNL     1      -7.165  17.112  67.377  1.00  0.00    -0.178 C  
HETATM   14  C   UNL     1      -5.941  16.383  67.904  1.00  0.00    -0.139 C  
ENDBRANCH   5   6
ENDBRANCH   2   4
BRANCH   3  15
HETATM   15  C   UNL     1     -10.981  11.072  66.846  1.00  0.00    -0.311 C  
HETATM   16  C   UNL     1     -11.390  10.126  67.706  1.00  0.00    -0.060 C  
BRANCH  16  17
HETATM   17  C   UNL     1     -10.444   9.305  68.456  1.00  0.00    -0.240 C  
HETATM   18  C   UNL     1      -9.894   8.066  70.564  1.00  0.00    -0.182 C  
HETATM   19  O   UNL     1      -8.775   7.678  70.282  1.00  0.00    -0.141 OA 
HETATM   20  C   UNL     1     -10.772   8.873  69.692  1.00  0.00    -0.222 C  
HETATM   21  C   UNL     1      -9.148   8.997  67.756  1.00  0.00    -0.143 C  
HETATM   22  O   UNL     1     -10.481   7.803  71.753  1.00  0.00    -0.208 OA 
ENDBRANCH  16  17
ENDBRANCH   3  15
TORSDOF 4
ENDMDL
MODEL      226
REMARK 921   NORMALIZED FREE ENERGY PREDICTED BY IDOCK:   -2.34 KCAL/MOL
REMARK 922        TOTAL FREE ENERGY PREDICTED BY IDOCK:   -4.29 KCAL/MOL
REMARK 923 INTER-LIGAND FREE ENERGY PREDICTED BY IDOCK:   -3.77 KCAL/MOL
REMARK 924 INTRA-LIGAND FREE ENERGY PREDICTED BY IDOCK:   -0.52 KCAL/MOL
REMARK 927      BINDING AFFINITY PREDICTED BY RF-SCORE:    0.00 PKD
ROOT
HETATM    1  C   UNL     1      -9.651   4.698  65.216  1.00  0.00    -0.161 C  
HETATM    2  C   UNL     1      -9.993   5.107  66.623  1.00  0.00    -0.235 C  
HETATM    3  C   UNL     1     -10.903   6.080  66.846  1.00  0.00    -0.396 C  
ENDROOT
BRANCH   2   4
HETATM    4  C   UNL     1      -9.341   4.374  67.700  1.00  0.00    -0.186 C  
HETATM    5  C   UNL     1      -8.029   4.415  67.983  1.00  0.00    -0.080 C  
BRANCH   5   6
HETATM    6  C   UNL     1      -7.391   3.744  69.127  1.00  0.00    -0.053 C  
HETATM    7  C   UNL     1      -6.289   1.741  67.996  1.00  0.00    -0.025 C  
HETATM    8  C   UNL     1      -6.990   4.473  70.188  1.00  0.00    -0.045 C  
HETATM    9  C   UNL     1      -6.404   3.876  71.438  1.00  0.00    -0.015 C  
HETATM   10  C   UNL     1      -7.074   5.983  70.281  1.00  0.00    -0.074 C  
HETATM   11  C   UNL     1      -8.681   1.602  68.726  1.00  0.00    -0.107 C  
HETATM   12  C   UNL     1      -7.294   2.202  69.081  1.00  0.00    -0.043 C  
HETATM   13  C   UNL     1      -6.864   1.525  70.417  1.00  0.00    -0.032 C  
HETATM   14  C   UNL     1      -6.259   2.370  71.524  1.00  0.00    -0.015 C  
ENDBRANCH   5   6
ENDBRANCH   2   4
BRANCH   3  15
HETATM   15  C   UNL     1     -11.272   6.589  68.149  1.00  0.00    -0.250 C  
HETATM   16  C   UNL     1     -10.442   6.714  69.197  1.00  0.00    -0.250 C  
BRANCH  16  17
HETATM   17  C   UNL     1     -10.912   7.172  70.501  1.00  0.00    -0.287 C  
HETATM   18  C   UNL     1     -11.911   9.006  71.888  1.00  0.00    -0.376 C  
HETATM   19  O   UNL     1     -11.912   8.456  72.974  1.00  0.00    -0.236 OA 
HETATM   20  C   UNL     1     -11.431   8.413  70.623  1.00  0.00    -0.235 C  
HETATM   21  C   UNL     1     -10.780   6.183  71.628  1.00  0.00    -0.294 C  
HETATM   22  O   UNL     1     -12.353  10.270  71.707  1.00  0.00    -0.377 OA 
ENDBRANCH  16  17
ENDBRANCH   3  15
TORSDOF 4
ENDMDL
MODEL      227
REMARK 921   NORMALIZED FREE ENERGY PREDICTED BY IDOCK:   -2.31 KCAL/MOL
REMARK 922        TOTAL FREE ENERGY PREDICTED BY IDOCK:   -4.24 KCAL/MOL
REMARK 923 INTER-LIGAND FREE ENERGY PREDICTED BY IDOCK:   -2.78 KCAL/MOL
REMARK 924 INTRA-LIGAND FREE ENERGY PREDICTED BY IDOCK:   -1.46 KCAL/MOL
REMARK 927      BINDING AFFINITY PREDICTED BY RF-SCORE:    0.00 PKD
ROOT
HETATM    1  C   UNL     1      -6.178   8.456  74.525  1.00  0.00    -0.143 C  
HETATM    2  C   UNL     1      -6.375   8.677  73.050  1.00  0.00    -0.071 C  
HETATM    3  C   UNL     1      -5.502   9.438  72.355  1.00  0.00    -0.040 C  
ENDROOT
BRANCH   2   4
HETATM    4  C   UNL     1      -7.500   7.995  72.424  1.00  0.00    -0.132 C  
HETATM    5  C   UNL     1      -8.516   8.599  71.789  1.00  0.00    -0.221 C  
BRANCH   5   6
HETATM    6  C   UNL     1      -9.603   7.904  71.081  1.00  0.00    -0.181 C  
HETATM    7  C   UNL     1      -8.322   6.696  69.236  1.00  0.00    -0.124 C  
HETATM    8  C   UNL     1     -10.710   7.534  71.757  1.00  0.00    -0.243 C  
HETATM    9  C   UNL     1     -11.908   6.895  71.111  1.00  0.00    -0.395 C  
HETATM   10  C   UNL     1     -10.911   7.711  73.248  1.00  0.00    -0.379 C  
HETATM   11  C   UNL     1      -9.064   9.065  68.895  1.00  0.00    -0.140 C  
HETATM   12  C   UNL     1      -9.446   7.712  69.555  1.00  0.00    -0.152 C  
HETATM   13  C   UNL     1     -10.727   7.222  68.814  1.00  0.00    -0.168 C  
HETATM   14  C   UNL     1     -11.885   6.655  69.616  1.00  0.00    -0.071 C  
ENDBRANCH   5   6
ENDBRANCH   2   4
BRANCH   3  15
HETATM   15  C   UNL     1      -5.617   9.760  70.949  1.00  0.00    -0.071 C  
HETATM   16  C   UNL     1      -5.240   8.963  69.937  1.00  0.00    -0.029 C  
BRANCH  16  17
HETATM   17  C   UNL     1      -5.327   9.392  68.544  1.00  0.00    -0.033 C  
HETATM   18  C   UNL     1      -5.459   8.767  66.120  1.00  0.00    -0.037 C  
HETATM   19  O   UNL     1      -5.463   9.880  65.627  1.00  0.00    -0.046 OA 
HETATM   20  C   UNL     1      -5.399   8.465  67.566  1.00  0.00    -0.034 C  
HETATM   21  C   UNL     1      -5.339  10.880  68.319  1.00  0.00    -0.039 C  
HETATM   22  O   UNL     1      -5.501   7.638  65.379  1.00  0.00    -0.032 OA 
ENDBRANCH  16  17
ENDBRANCH   3  15
TORSDOF 4
ENDMDL
MODEL      228
REMARK 921   NORMALIZED FREE ENERGY PREDICTED BY IDOCK:   -2.30 KCAL/MOL
REMARK 922        TOTAL FREE ENERGY PREDICTED BY IDOCK:   -4.23 KCAL/MOL
REMARK 923 INTER-LIGAND FREE ENERGY PREDICTED BY IDOCK:   -4.12 KCAL/MOL
REMARK 924 INTRA-LIGAND FREE ENERGY PREDICTED BY IDOCK:   -0.11 KCAL/MOL
REMARK 927      BINDING AFFINITY PREDICTED BY RF-SCORE:    0.00 PKD
ROOT
HETATM    1  C   UNL     1      -5.927  16.046  67.550  1.00  0.00    -0.181 C  
HETATM    2  C   UNL     1      -7.309  15.575  67.907  1.00  0.00    -0.155 C  
HETATM    3  C   UNL     1      -8.120  16.354  68.657  1.00  0.00    -0.218 C  
ENDROOT
BRANCH   2   4
HETATM    4  C   UNL     1      -7.729  14.289  67.367  1.00  0.00    -0.194 C  
HETATM    5  C   UNL     1      -9.000  13.926  67.126  1.00  0.00    -0.242 C  
BRANCH   5   6
HETATM    6  C   UNL     1      -9.413  12.662  66.497  1.00  0.00    -0.247 C  
HETATM    7  C   UNL     1      -9.553  11.108  68.514  1.00  0.00    -0.193 C  
HETATM    8  C   UNL     1     -10.148  12.688  65.367  1.00  0.00    -0.277 C  
HETATM    9  C   UNL     1     -10.549  11.458  64.602  1.00  0.00    -0.380 C  
HETATM   10  C   UNL     1     -10.667  13.948  64.703  1.00  0.00    -0.422 C  
HETATM   11  C   UNL     1      -7.361  11.446  67.349  1.00  0.00    -0.119 C  
HETATM   12  C   UNL     1      -8.896  11.351  67.134  1.00  0.00    -0.156 C  
HETATM   13  C   UNL     1      -9.130  10.066  66.284  1.00  0.00    -0.180 C  
HETATM   14  C   UNL     1     -10.101  10.105  65.117  1.00  0.00    -0.329 C  
ENDBRANCH   5   6
ENDBRANCH   2   4
BRANCH   3  15
HETATM   15  C   UNL     1      -9.446  15.984  69.102  1.00  0.00    -0.253 C  
HETATM   16  C   UNL     1      -9.780  15.664  70.362  1.00  0.00     0.522 C  
BRANCH  16  17
HETATM   17  C   UNL     1     -11.130  15.234  70.716  1.00  0.00    -0.340 C  
HETATM   18  C   UNL     1     -12.832  13.396  70.803  1.00  0.00    -0.150 C  
HETATM   19  O   UNL     1     -13.774  14.017  71.259  1.00  0.00    -0.280 OA 
HETATM   20  C   UNL     1     -11.491  13.949  70.518  1.00  0.00    -0.009 C  
HETATM   21  C   UNL     1     -12.023  16.297  71.297  1.00  0.00    -0.264 C  
HETATM   22  O   UNL     1     -12.906  12.085  70.483  1.00  0.00    -0.048 OA 
ENDBRANCH  16  17
ENDBRANCH   3  15
TORSDOF 4
ENDMDL
MODEL      229
REMARK 921   NORMALIZED FREE ENERGY PREDICTED BY IDOCK:   -2.27 KCAL/MOL
REMARK 922        TOTAL FREE ENERGY PREDICTED BY IDOCK:   -4.19 KCAL/MOL
REMARK 923 INTER-LIGAND FREE ENERGY PREDICTED BY IDOCK:   -3.56 KCAL/MOL
REMARK 924 INTRA-LIGAND FREE ENERGY PREDICTED BY IDOCK:   -0.64 KCAL/MOL
REMARK 927      BINDING AFFINITY PREDICTED BY RF-SCORE:    0.00 PKD
ROOT
HETATM    1  C   UNL     1      -8.438  10.560  67.770  1.00  0.00    -0.114 C  
HETATM    2  C   UNL     1      -8.651   9.093  68.021  1.00  0.00    -0.125 C  
HETATM    3  C   UNL     1      -8.674   8.222  66.988  1.00  0.00    -0.132 C  
ENDROOT
BRANCH   2   4
HETATM    4  C   UNL     1      -8.773   8.671  69.410  1.00  0.00    -0.139 C  
HETATM    5  C   UNL     1      -9.549   7.668  69.851  1.00  0.00    -0.160 C  
BRANCH   5   6
HETATM    6  C   UNL     1      -9.601   7.188  71.241  1.00  0.00    -0.163 C  
HETATM    7  C   UNL     1     -12.097   6.766  71.545  1.00  0.00    -0.410 C  
HETATM    8  C   UNL     1      -8.539   6.540  71.762  1.00  0.00    -0.124 C  
HETATM    9  C   UNL     1      -8.459   6.084  73.193  1.00  0.00    -0.118 C  
HETATM   10  C   UNL     1      -7.282   6.185  70.995  1.00  0.00    -0.075 C  
HETATM   11  C   UNL     1     -11.162   9.056  71.940  1.00  0.00    -0.438 C  
HETATM   12  C   UNL     1     -10.860   7.538  72.066  1.00  0.00    -0.273 C  
HETATM   13  C   UNL     1     -10.753   7.249  73.594  1.00  0.00    -0.282 C  
HETATM   14  C   UNL     1      -9.628   6.371  74.113  1.00  0.00    -0.242 C  
ENDBRANCH   5   6
ENDBRANCH   2   4
BRANCH   3  15
HETATM   15  C   UNL     1      -8.919   6.801  67.105  1.00  0.00    -0.116 C  
HETATM   16  C   UNL     1      -7.990   5.841  66.983  1.00  0.00    -0.102 C  
BRANCH  16  17
HETATM   17  C   UNL     1      -8.335   4.423  67.046  1.00  0.00    -0.101 C  
HETATM   18  C   UNL     1      -7.847   2.145  67.973  1.00  0.00    -0.058 C  
HETATM   19  O   UNL     1      -8.705   1.506  67.391  1.00  0.00    -0.090 OA 
HETATM   20  C   UNL     1      -7.622   3.600  67.843  1.00  0.00    -0.066 C  
HETATM   21  C   UNL     1      -9.500   3.995  66.195  1.00  0.00    -0.192 C  
HETATM   22  O   UNL     1      -6.965   1.580  68.825  1.00  0.00    -0.035 OA 
ENDBRANCH  16  17
ENDBRANCH   3  15
TORSDOF 4
ENDMDL
MODEL      230
REMARK 921   NORMALIZED FREE ENERGY PREDICTED BY IDOCK:   -2.12 KCAL/MOL
REMARK 922        TOTAL FREE ENERGY PREDICTED BY IDOCK:   -4.01 KCAL/MOL
REMARK 923 INTER-LIGAND FREE ENERGY PREDICTED BY IDOCK:   -3.04 KCAL/MOL
REMARK 924 INTRA-LIGAND FREE ENERGY PREDICTED BY IDOCK:   -0.97 KCAL/MOL
REMARK 927      BINDING AFFINITY PREDICTED BY RF-SCORE:    0.00 PKD
ROOT
HETATM    1  C   UNL     1     -11.316   8.249  71.038  1.00  0.00    -0.299 C  
HETATM    2  C   UNL     1     -10.564   7.181  70.293  1.00  0.00    -0.245 C  
HETATM    3  C   UNL     1     -10.657   7.098  68.947  1.00  0.00    -0.218 C  
ENDROOT
BRANCH   2   4
HETATM    4  C   UNL     1      -9.711   6.301  71.080  1.00  0.00    -0.194 C  
HETATM    5  C   UNL     1     -10.096   5.623  72.174  1.00  0.00    -0.227 C  
BRANCH   5   6
HETATM    6  C   UNL     1      -9.257   4.666  72.913  1.00  0.00    -0.137 C  
HETATM    7  C   UNL     1      -9.459   2.579  71.462  1.00  0.00    -0.211 C  
HETATM    8  C   UNL     1      -8.221   5.118  73.648  1.00  0.00    -0.109 C  
HETATM    9  C   UNL     1      -7.357   4.234  74.504  1.00  0.00    -0.072 C  
HETATM   10  C   UNL     1      -7.781   6.566  73.725  1.00  0.00    -0.086 C  
HETATM   11  C   UNL     1     -11.184   3.051  73.217  1.00  0.00    -0.189 C  
HETATM   12  C   UNL     1      -9.675   3.179  72.873  1.00  0.00    -0.173 C  
HETATM   13  C   UNL     1      -8.928   2.253  73.880  1.00  0.00    -0.074 C  
HETATM   14  C   UNL     1      -7.664   2.751  74.559  1.00  0.00    -0.051 C  
ENDBRANCH   5   6
ENDBRANCH   2   4
BRANCH   3  15
HETATM   15  C   UNL     1     -10.021   6.086  68.132  1.00  0.00    -0.168 C  
HETATM   16  C   UNL     1     -10.363   4.788  68.100  1.00  0.00     0.026 C  
BRANCH  16  17
HETATM   17  C   UNL     1      -9.623   3.817  67.300  1.00  0.00    -0.213 C  
HETATM   18  C   UNL     1      -8.228   3.340  65.272  1.00  0.00    -0.094 C  
HETATM   19  O   UNL     1      -8.076   2.140  65.412  1.00  0.00    -0.077 OA 
HETATM   20  C   UNL     1      -8.983   4.225  66.184  1.00  0.00    -0.123 C  
HETATM   21  C   UNL     1      -9.633   2.402  67.814  1.00  0.00    -0.025 C  
HETATM   22  O   UNL     1      -7.715   4.024  64.227  1.00  0.00    -0.081 OA 
ENDBRANCH  16  17
ENDBRANCH   3  15
TORSDOF 4
ENDMDL
MODEL      231
REMARK 921   NORMALIZED FREE ENERGY PREDICTED BY IDOCK:   -2.11 KCAL/MOL
REMARK 922        TOTAL FREE ENERGY PREDICTED BY IDOCK:   -4.00 KCAL/MOL
REMARK 923 INTER-LIGAND FREE ENERGY PREDICTED BY IDOCK:   -2.96 KCAL/MOL
REMARK 924 INTRA-LIGAND FREE ENERGY PREDICTED BY IDOCK:   -1.04 KCAL/MOL
REMARK 927      BINDING AFFINITY PREDICTED BY RF-SCORE:    0.00 PKD
ROOT
HETATM    1  C   UNL     1      -8.875   8.259  73.646  1.00  0.00    -0.228 C  
HETATM    2  C   UNL     1      -8.895   7.960  72.172  1.00  0.00    -0.196 C  
HETATM    3  C   UNL     1      -8.503   8.898  71.282  1.00  0.00    -0.239 C  
ENDROOT
BRANCH   2   4
HETATM    4  C   UNL     1      -9.298   6.616  71.776  1.00  0.00    -0.148 C  
HETATM    5  C   UNL     1      -8.511   5.723  71.156  1.00  0.00    -0.128 C  
BRANCH   5   6
HETATM    6  C   UNL     1      -8.894   4.338  70.839  1.00  0.00    -0.142 C  
HETATM    7  C   UNL     1      -7.485   3.879  68.763  1.00  0.00    -0.054 C  
HETATM    8  C   UNL     1      -9.278   3.508  71.831  1.00  0.00    -0.178 C  
HETATM    9  C   UNL     1      -9.766   2.104  71.604  1.00  0.00    -0.217 C  
HETATM   10  C   UNL     1      -9.279   3.865  73.303  1.00  0.00    -0.118 C  
HETATM   11  C   UNL     1      -9.723   4.982  68.534  1.00  0.00    -0.215 C  
HETATM   12  C   UNL     1      -8.918   3.932  69.347  1.00  0.00    -0.171 C  
HETATM   13  C   UNL     1      -9.585   2.556  69.046  1.00  0.00    -0.047 C  
HETATM   14  C   UNL     1      -9.844   1.584  70.183  1.00  0.00     0.064 C  
ENDBRANCH   5   6
ENDBRANCH   2   4
BRANCH   3  15
HETATM   15  C   UNL     1      -8.528   8.740  69.845  1.00  0.00    -0.131 C  
HETATM   16  C   UNL     1      -7.448   8.586  69.062  1.00  0.00    -0.089 C  
BRANCH  16  17
HETATM   17  C   UNL     1      -7.555   8.502  67.609  1.00  0.00    -0.098 C  
HETATM   18  C   UNL     1      -8.171   9.610  65.445  1.00  0.00    -0.128 C  
HETATM   19  O   UNL     1      -7.948   8.690  64.680  1.00  0.00    -0.125 OA 
HETATM   20  C   UNL     1      -7.988   9.574  66.912  1.00  0.00    -0.109 C  
HETATM   21  C   UNL     1      -7.152   7.188  66.997  1.00  0.00    -0.090 C  
HETATM   22  O   UNL     1      -8.639  10.808  65.032  1.00  0.00    -0.174 OA 
ENDBRANCH  16  17
ENDBRANCH   3  15
TORSDOF 4
ENDMDL
MODEL      232
REMARK 921   NORMALIZED FREE ENERGY PREDICTED BY IDOCK:   -2.10 KCAL/MOL
REMARK 922        TOTAL FREE ENERGY PREDICTED BY IDOCK:   -3.99 KCAL/MOL
REMARK 923 INTER-LIGAND FREE ENERGY PREDICTED BY IDOCK:   -3.61 KCAL/MOL
REMARK 924 INTRA-LIGAND FREE ENERGY PREDICTED BY IDOCK:   -0.38 KCAL/MOL
REMARK 927      BINDING AFFINITY PREDICTED BY RF-SCORE:    0.00 PKD
ROOT
HETATM    1  C   UNL     1      -9.642  12.617  67.306  1.00  0.00    -0.203 C  
HETATM    2  C   UNL     1      -8.870  11.346  67.082  1.00  0.00    -0.156 C  
HETATM    3  C   UNL     1      -8.366  11.063  65.860  1.00  0.00    -0.119 C  
ENDROOT
BRANCH   2   4
HETATM    4  C   UNL     1      -8.657  10.489  68.240  1.00  0.00    -0.127 C  
HETATM    5  C   UNL     1      -9.483  10.391  69.294  1.00  0.00    -0.214 C  
BRANCH   5   6
HETATM    6  C   UNL     1      -9.310   9.458  70.419  1.00  0.00    -0.317 C  
HETATM    7  C   UNL     1     -11.235   7.831  70.038  1.00  0.00    -0.126 C  
HETATM    8  C   UNL     1      -8.077   9.245  70.925  1.00  0.00    -0.168 C  
HETATM    9  C   UNL     1      -7.804   8.379  72.123  1.00  0.00    -0.167 C  
HETATM   10  C   UNL     1      -6.801   9.844  70.371  1.00  0.00    -0.141 C  
HETATM   11  C   UNL     1     -11.626   9.948  71.319  1.00  0.00    -0.456 C  
HETATM   12  C   UNL     1     -10.587   8.832  71.025  1.00  0.00    -0.293 C  
HETATM   13  C   UNL     1     -10.379   8.075  72.372  1.00  0.00    -0.355 C  
HETATM   14  C   UNL     1      -8.974   7.709  72.816  1.00  0.00    -0.212 C  
ENDBRANCH   5   6
ENDBRANCH   2   4
BRANCH   3  15
HETATM   15  C   UNL     1      -7.654   9.852  65.516  1.00  0.00    -0.125 C  
HETATM   16  C   UNL     1      -8.004   8.995  64.545  1.00  0.00    -0.131 C  
BRANCH  16  17
HETATM   17  C   UNL     1      -7.267   7.757  64.308  1.00  0.00    -0.079 C  
HETATM   18  C   UNL     1      -6.327   5.622  65.226  1.00  0.00    -0.038 C  
HETATM   19  O   UNL     1      -5.793   5.191  64.221  1.00  0.00    -0.017 OA 
HETATM   20  C   UNL     1      -7.080   6.890  65.326  1.00  0.00    -0.067 C  
HETATM   21  C   UNL     1      -6.776   7.547  62.901  1.00  0.00    -0.066 C  
HETATM   22  O   UNL     1      -6.285   4.975  66.412  1.00  0.00    -0.033 OA 
ENDBRANCH  16  17
ENDBRANCH   3  15
TORSDOF 4
ENDMDL
MODEL      233
REMARK 921   NORMALIZED FREE ENERGY PREDICTED BY IDOCK:   -2.06 KCAL/MOL
REMARK 922        TOTAL FREE ENERGY PREDICTED BY IDOCK:   -3.94 KCAL/MOL
REMARK 923 INTER-LIGAND FREE ENERGY PREDICTED BY IDOCK:   -4.02 KCAL/MOL
REMARK 924 INTRA-LIGAND FREE ENERGY PREDICTED BY IDOCK:    0.08 KCAL/MOL
REMARK 927      BINDING AFFINITY PREDICTED BY RF-SCORE:    0.00 PKD
ROOT
HETATM    1  C   UNL     1      -8.005  17.306  66.291  1.00  0.00    -0.330 C  
HETATM    2  C   UNL     1      -7.652  16.329  67.378  1.00  0.00    -0.183 C  
HETATM    3  C   UNL     1      -6.359  16.011  67.613  1.00  0.00    -0.187 C  
ENDROOT
BRANCH   2   4
HETATM    4  C   UNL     1      -8.751  15.801  68.175  1.00  0.00    -0.173 C  
HETATM    5  C   UNL     1      -9.522  14.755  67.837  1.00  0.00    -0.201 C  
BRANCH   5   6
HETATM    6  C   UNL     1     -10.572  14.171  68.686  1.00  0.00    -0.253 C  
HETATM    7  C   UNL     1      -9.821  11.738  68.828  1.00  0.00    -0.100 C  
HETATM    8  C   UNL     1     -11.199  14.942  69.598  1.00  0.00    -0.300 C  
HETATM    9  C   UNL     1     -12.339  14.464  70.454  1.00  0.00    -0.406 C  
HETATM   10  C   UNL     1     -10.856  16.389  69.887  1.00  0.00    -0.333 C  
HETATM   11  C   UNL     1     -11.231  12.498  66.902  1.00  0.00    -0.354 C  
HETATM   12  C   UNL     1     -10.963  12.699  68.418  1.00  0.00    -0.284 C  
HETATM   13  C   UNL     1     -12.252  12.213  69.148  1.00  0.00    -0.086 C  
HETATM   14  C   UNL     1     -12.825  13.039  70.286  1.00  0.00     0.168 C  
ENDBRANCH   5   6
ENDBRANCH   2   4
BRANCH   3  15
HETATM   15  C   UNL     1      -5.906  15.050  68.594  1.00  0.00    -0.089 C  
HETATM   16  C   UNL     1      -6.551  13.923  68.932  1.00  0.00    -0.103 C  
BRANCH  16  17
HETATM   17  C   UNL     1      -6.058  13.039  69.985  1.00  0.00    -0.112 C  
HETATM   18  C   UNL     1      -5.444  10.721  70.715  1.00  0.00    -0.112 C  
HETATM   19  O   UNL     1      -5.139  10.950  71.871  1.00  0.00    -0.248 OA 
HETATM   20  C   UNL     1      -5.902  11.723  69.730  1.00  0.00    -0.114 C  
HETATM   21  C   UNL     1      -5.750  13.700  71.301  1.00  0.00    -0.184 C  
HETATM   22  O   UNL     1      -5.408   9.480  70.181  1.00  0.00    -0.031 OA 
ENDBRANCH  16  17
ENDBRANCH   3  15
TORSDOF 4
ENDMDL
MODEL      234
REMARK 921   NORMALIZED FREE ENERGY PREDICTED BY IDOCK:   -2.04 KCAL/MOL
REMARK 922        TOTAL FREE ENERGY PREDICTED BY IDOCK:   -3.92 KCAL/MOL
REMARK 923 INTER-LIGAND FREE ENERGY PREDICTED BY IDOCK:   -2.83 KCAL/MOL
REMARK 924 INTRA-LIGAND FREE ENERGY PREDICTED BY IDOCK:   -1.09 KCAL/MOL
REMARK 927      BINDING AFFINITY PREDICTED BY RF-SCORE:    0.00 PKD
ROOT
HETATM    1  C   UNL     1     -10.958  13.060  66.385  1.00  0.00    -0.301 C  
HETATM    2  C   UNL     1     -10.319  11.721  66.634  1.00  0.00    -0.251 C  
HETATM    3  C   UNL     1      -9.271  11.318  65.883  1.00  0.00    -0.229 C  
ENDROOT
BRANCH   2   4
HETATM    4  C   UNL     1     -10.848  10.932  67.739  1.00  0.00    -0.309 C  
HETATM    5  C   UNL     1     -10.546  11.113  69.035  1.00  0.00    -0.251 C  
BRANCH   5   6
HETATM    6  C   UNL     1     -11.151  10.373  70.154  1.00  0.00    -0.383 C  
HETATM    7  C   UNL     1     -13.608  10.329  69.471  1.00  0.00     2.396 C  
HETATM    8  C   UNL     1     -10.417   9.460  70.823  1.00  0.00    -0.372 C  
HETATM    9  C   UNL     1     -10.913   8.713  72.030  1.00  0.00    -0.432 C  
HETATM   10  C   UNL     1      -9.000   9.061  70.467  1.00  0.00    -0.249 C  
HETATM   11  C   UNL     1     -12.696  12.295  70.728  1.00  0.00    -0.212 C  
HETATM   12  C   UNL     1     -12.592  10.755  70.560  1.00  0.00    -0.421 C  
HETATM   13  C   UNL     1     -13.085  10.144  71.907  1.00  0.00    -0.571 C  
HETATM   14  C   UNL     1     -12.312   8.999  72.537  1.00  0.00    -0.276 C  
ENDBRANCH   5   6
ENDBRANCH   2   4
BRANCH   3  15
HETATM   15  C   UNL     1      -8.611  10.036  65.999  1.00  0.00    -0.148 C  
HETATM   16  C   UNL     1      -8.892   8.949  65.262  1.00  0.00    -0.227 C  
BRANCH  16  17
HETATM   17  C   UNL     1      -8.225   7.671  65.491  1.00  0.00    -0.135 C  
HETATM   18  C   UNL     1      -7.733   5.766  67.045  1.00  0.00    -0.101 C  
HETATM   19  O   UNL     1      -6.997   5.111  66.330  1.00  0.00    -0.064 OA 
HETATM   20  C   UNL     1      -8.377   7.044  66.677  1.00  0.00    -0.118 C  
HETATM   21  C   UNL     1      -7.410   7.144  64.341  1.00  0.00    -0.082 C  
HETATM   22  O   UNL     1      -8.050   5.395  68.305  1.00  0.00    -0.094 OA 
ENDBRANCH  16  17
ENDBRANCH   3  15
TORSDOF 4
ENDMDL
MODEL      235
REMARK 921   NORMALIZED FREE ENERGY PREDICTED BY IDOCK:   -2.02 KCAL/MOL
REMARK 922        TOTAL FREE ENERGY PREDICTED BY IDOCK:   -3.88 KCAL/MOL
REMARK 923 INTER-LIGAND FREE ENERGY PREDICTED BY IDOCK:   -2.93 KCAL/MOL
REMARK 924 INTRA-LIGAND FREE ENERGY PREDICTED BY IDOCK:   -0.96 KCAL/MOL
REMARK 927      BINDING AFFINITY PREDICTED BY RF-SCORE:    0.00 PKD
ROOT
HETATM    1  C   UNL     1     -10.985  10.969  64.750  1.00  0.00    -0.142 C  
HETATM    2  C   UNL     1     -10.532  10.049  65.849  1.00  0.00    -0.115 C  
HETATM    3  C   UNL     1     -10.896  10.286  67.129  1.00  0.00    -0.278 C  
ENDROOT
BRANCH   2   4
HETATM    4  C   UNL     1      -9.743   8.888  65.456  1.00  0.00     0.010 C  
HETATM    5  C   UNL     1      -8.476   8.650  65.828  1.00  0.00    -0.165 C  
BRANCH   5   6
HETATM    6  C   UNL     1      -7.714   7.434  65.502  1.00  0.00    -0.107 C  
HETATM    7  C   UNL     1      -5.636   8.412  64.394  1.00  0.00    -0.059 C  
HETATM    8  C   UNL     1      -7.855   6.333  66.269  1.00  0.00    -0.104 C  
HETATM    9  C   UNL     1      -7.188   5.019  65.974  1.00  0.00    -0.076 C  
HETATM   10  C   UNL     1      -8.700   6.257  67.525  1.00  0.00    -0.105 C  
HETATM   11  C   UNL     1      -7.693   7.982  63.030  1.00  0.00    -0.136 C  
HETATM   12  C   UNL     1      -6.847   7.462  64.223  1.00  0.00    -0.051 C  
HETATM   13  C   UNL     1      -6.282   6.079  63.776  1.00  0.00    -0.025 C  
HETATM   14  C   UNL     1      -6.312   4.909  64.743  1.00  0.00    -0.034 C  
ENDBRANCH   5   6
ENDBRANCH   2   4
BRANCH   3  15
HETATM   15  C   UNL     1     -10.480   9.500  68.270  1.00  0.00    -0.265 C  
HETATM   16  C   UNL     1     -10.255   9.981  69.503  1.00  0.00    -0.255 C  
BRANCH  16  17
HETATM   17  C   UNL     1      -9.768   9.129  70.584  1.00  0.00    -0.314 C  
HETATM   18  C   UNL     1      -8.085   7.457  71.394  1.00  0.00    -0.097 C  
HETATM   19  O   UNL     1      -8.523   7.259  72.512  1.00  0.00    -0.106 OA 
HETATM   20  C   UNL     1      -8.661   8.381  70.394  1.00  0.00    -0.136 C  
HETATM   21  C   UNL     1     -10.567   9.171  71.859  1.00  0.00    -0.303 C  
HETATM   22  O   UNL     1      -6.991   6.826  70.914  1.00  0.00    -0.064 OA 
ENDBRANCH  16  17
ENDBRANCH   3  15
TORSDOF 4
ENDMDL
MODEL      236
REMARK 921   NORMALIZED FREE ENERGY PREDICTED BY IDOCK:   -1.91 KCAL/MOL
REMARK 922        TOTAL FREE ENERGY PREDICTED BY IDOCK:   -3.75 KCAL/MOL
REMARK 923 INTER-LIGAND FREE ENERGY PREDICTED BY IDOCK:   -4.11 KCAL/MOL
REMARK 924 INTRA-LIGAND FREE ENERGY PREDICTED BY IDOCK:    0.36 KCAL/MOL
REMARK 927      BINDING AFFINITY PREDICTED BY RF-SCORE:    0.00 PKD
ROOT
HETATM    1  C   UNL     1      -7.665  17.331  66.132  1.00  0.00    -0.317 C  
HETATM    2  C   UNL     1      -7.444  16.271  67.175  1.00  0.00    -0.238 C  
HETATM    3  C   UNL     1      -6.189  15.910  67.522  1.00  0.00    -0.188 C  
ENDROOT
BRANCH   2   4
HETATM    4  C   UNL     1      -8.630  15.710  67.809  1.00  0.00    -0.168 C  
HETATM    5  C   UNL     1      -9.158  14.506  67.539  1.00  0.00    -0.193 C  
BRANCH   5   6
HETATM    6  C   UNL     1     -10.302  13.907  68.245  1.00  0.00    -0.249 C  
HETATM    7  C   UNL     1     -11.899  15.889  68.407  1.00  0.00    -0.129 C  
HETATM    8  C   UNL     1     -10.560  12.591  68.101  1.00  0.00    -0.239 C  
HETATM    9  C   UNL     1     -11.650  11.868  68.841  1.00  0.00    -0.370 C  
HETATM   10  C   UNL     1      -9.795  11.656  67.186  1.00  0.00    -0.205 C  
HETATM   11  C   UNL     1     -10.129  15.567  70.151  1.00  0.00    -0.161 C  
HETATM   12  C   UNL     1     -11.104  14.822  69.199  1.00  0.00    -0.278 C  
HETATM   13  C   UNL     1     -12.123  14.086  70.121  1.00  0.00    -0.419 C  
HETATM   14  C   UNL     1     -12.509  12.650  69.814  1.00  0.00     0.062 C  
ENDBRANCH   5   6
ENDBRANCH   2   4
BRANCH   3  15
HETATM   15  C   UNL     1      -5.857  14.871  68.472  1.00  0.00    -0.097 C  
HETATM   16  C   UNL     1      -6.472  13.682  68.568  1.00  0.00    -0.090 C  
BRANCH  16  17
HETATM   17  C   UNL     1      -6.121  12.714  69.604  1.00  0.00    -0.128 C  
HETATM   18  C   UNL     1      -6.176  10.344  70.419  1.00  0.00    -0.126 C  
HETATM   19  O   UNL     1      -5.621  10.490  71.493  1.00  0.00    -0.279 OA 
HETATM   20  C   UNL     1      -6.446  11.414  69.437  1.00  0.00    -0.108 C  
HETATM   21  C   UNL     1      -5.395  13.270  70.799  1.00  0.00    -0.155 C  
HETATM   22  O   UNL     1      -6.635   9.148  69.990  1.00  0.00    -0.040 OA 
ENDBRANCH  16  17
ENDBRANCH   3  15
TORSDOF 4
ENDMDL
MODEL      237
REMARK 921   NORMALIZED FREE ENERGY PREDICTED BY IDOCK:   -1.87 KCAL/MOL
REMARK 922        TOTAL FREE ENERGY PREDICTED BY IDOCK:   -3.71 KCAL/MOL
REMARK 923 INTER-LIGAND FREE ENERGY PREDICTED BY IDOCK:   -3.74 KCAL/MOL
REMARK 924 INTRA-LIGAND FREE ENERGY PREDICTED BY IDOCK:    0.03 KCAL/MOL
REMARK 927      BINDING AFFINITY PREDICTED BY RF-SCORE:    0.00 PKD
ROOT
HETATM    1  C   UNL     1      -6.342  18.910  65.953  1.00  0.00    -0.252 C  
HETATM    2  C   UNL     1      -6.378  17.785  66.951  1.00  0.00    -0.196 C  
HETATM    3  C   UNL     1      -5.233  17.332  67.506  1.00  0.00    -0.132 C  
ENDROOT
BRANCH   2   4
HETATM    4  C   UNL     1      -7.691  17.267  67.315  1.00  0.00    -0.211 C  
HETATM    5  C   UNL     1      -8.554  16.683  66.469  1.00  0.00    -0.320 C  
BRANCH   5   6
HETATM    6  C   UNL     1      -9.839  16.080  66.857  1.00  0.00    -0.252 C  
HETATM    7  C   UNL     1     -10.826  17.895  68.352  1.00  0.00    -0.043 C  
HETATM    8  C   UNL     1     -10.449  15.214  66.022  1.00  0.00    -0.330 C  
HETATM    9  C   UNL     1     -11.719  14.482  66.359  1.00  0.00    -0.372 C  
HETATM   10  C   UNL     1      -9.949  14.849  64.639  1.00  0.00     0.408 C  
HETATM   11  C   UNL     1      -9.268  16.191  69.322  1.00  0.00    -0.223 C  
HETATM   12  C   UNL     1     -10.383  16.414  68.265  1.00  0.00    -0.279 C  
HETATM   13  C   UNL     1     -11.593  15.549  68.731  1.00  0.00    -0.390 C  
HETATM   14  C   UNL     1     -12.354  14.716  67.714  1.00  0.00     0.100 C  
ENDBRANCH   5   6
ENDBRANCH   2   4
BRANCH   3  15
HETATM   15  C   UNL     1      -5.142  16.227  68.436  1.00  0.00    -0.098 C  
HETATM   16  C   UNL     1      -5.881  15.108  68.386  1.00  0.00    -0.107 C  
BRANCH  16  17
HETATM   17  C   UNL     1      -5.775  14.069  69.406  1.00  0.00    -0.088 C  
HETATM   18  C   UNL     1      -5.571  13.471  71.832  1.00  0.00    -0.032 C  
HETATM   19  O   UNL     1      -5.507  12.259  71.734  1.00  0.00    -0.384 OA 
HETATM   20  C   UNL     1      -5.711  14.420  70.708  1.00  0.00    -0.184 C  
HETATM   21  C   UNL     1      -5.756  12.653  68.898  1.00  0.00    -0.068 C  
HETATM   22  O   UNL     1      -5.509  14.113  73.020  1.00  0.00    -0.284 OA 
ENDBRANCH  16  17
ENDBRANCH   3  15
TORSDOF 4
ENDMDL
MODEL      238
REMARK 921   NORMALIZED FREE ENERGY PREDICTED BY IDOCK:   -1.72 KCAL/MOL
REMARK 922        TOTAL FREE ENERGY PREDICTED BY IDOCK:   -3.52 KCAL/MOL
REMARK 923 INTER-LIGAND FREE ENERGY PREDICTED BY IDOCK:   -2.79 KCAL/MOL
REMARK 924 INTRA-LIGAND FREE ENERGY PREDICTED BY IDOCK:   -0.73 KCAL/MOL
REMARK 927      BINDING AFFINITY PREDICTED BY RF-SCORE:    0.00 PKD
ROOT
HETATM    1  C   UNL     1     -10.394   7.866  72.019  1.00  0.00    -0.283 C  
HETATM    2  C   UNL     1      -9.777   7.084  70.892  1.00  0.00    -0.176 C  
HETATM    3  C   UNL     1     -10.219   7.252  69.626  1.00  0.00    -0.214 C  
ENDROOT
BRANCH   2   4
HETATM    4  C   UNL     1      -8.670   6.200  71.230  1.00  0.00    -0.132 C  
HETATM    5  C   UNL     1      -8.723   5.197  72.121  1.00  0.00    -0.132 C  
BRANCH   5   6
HETATM    6  C   UNL     1      -7.629   4.251  72.394  1.00  0.00    -0.074 C  
HETATM    7  C   UNL     1      -7.992   2.509  70.567  1.00  0.00    -0.050 C  
HETATM    8  C   UNL     1      -6.487   4.695  72.958  1.00  0.00    -0.043 C  
HETATM    9  C   UNL     1      -5.347   3.799  73.352  1.00  0.00     0.000 C  
HETATM   10  C   UNL     1      -6.190   6.146  73.280  1.00  0.00    -0.063 C  
HETATM   11  C   UNL     1      -9.239   2.325  72.732  1.00  0.00    -0.108 C  
HETATM   12  C   UNL     1      -7.892   2.757  72.092  1.00  0.00    -0.054 C  
HETATM   13  C   UNL     1      -6.820   1.771  72.646  1.00  0.00    -0.019 C  
HETATM   14  C   UNL     1      -5.479   2.308  73.115  1.00  0.00     0.000 C  
ENDBRANCH   5   6
ENDBRANCH   2   4
BRANCH   3  15
HETATM   15  C   UNL     1      -9.737   6.521  68.475  1.00  0.00    -0.129 C  
HETATM   16  C   UNL     1     -10.481   6.160  67.418  1.00  0.00    -0.309 C  
BRANCH  16  17
HETATM   17  C   UNL     1      -9.932   5.360  66.326  1.00  0.00    -0.199 C  
HETATM   18  C   UNL     1     -10.345   3.878  64.347  1.00  0.00    -0.231 C  
HETATM   19  O   UNL     1      -9.194   3.627  64.043  1.00  0.00    -0.119 OA 
HETATM   20  C   UNL     1     -10.771   4.739  65.470  1.00  0.00    -0.140 C  
HETATM   21  C   UNL     1      -8.431   5.306  66.246  1.00  0.00    -0.115 C  
HETATM   22  O   UNL     1     -11.405   3.374  63.678  1.00  0.00    -0.201 OA 
ENDBRANCH  16  17
ENDBRANCH   3  15
TORSDOF 4
ENDMDL
MODEL      239
REMARK 921   NORMALIZED FREE ENERGY PREDICTED BY IDOCK:   -1.55 KCAL/MOL
REMARK 922        TOTAL FREE ENERGY PREDICTED BY IDOCK:   -3.31 KCAL/MOL
REMARK 923 INTER-LIGAND FREE ENERGY PREDICTED BY IDOCK:   -3.15 KCAL/MOL
REMARK 924 INTRA-LIGAND FREE ENERGY PREDICTED BY IDOCK:   -0.16 KCAL/MOL
REMARK 927      BINDING AFFINITY PREDICTED BY RF-SCORE:    0.00 PKD
ROOT
HETATM    1  C   UNL     1     -12.359   9.952  71.016  1.00  0.00    -0.451 C  
HETATM    2  C   UNL     1     -11.421   9.629  69.886  1.00  0.00    -0.144 C  
HETATM    3  C   UNL     1     -11.686  10.066  68.636  1.00  0.00     0.231 C  
ENDROOT
BRANCH   2   4
HETATM    4  C   UNL     1     -10.215   8.883  70.222  1.00  0.00    -0.230 C  
HETATM    5  C   UNL     1     -10.178   7.759  70.956  1.00  0.00    -0.210 C  
BRANCH   5   6
HETATM    6  C   UNL     1      -8.971   6.960  71.217  1.00  0.00    -0.142 C  
HETATM    7  C   UNL     1      -7.164   8.759  71.254  1.00  0.00    -0.105 C  
HETATM    8  C   UNL     1      -9.069   5.811  71.917  1.00  0.00    -0.145 C  
HETATM    9  C   UNL     1      -7.913   4.883  72.166  1.00  0.00    -0.110 C  
HETATM   10  C   UNL     1     -10.346   5.289  72.545  1.00  0.00    -0.249 C  
HETATM   11  C   UNL     1      -7.864   7.739  69.076  1.00  0.00    -0.118 C  
HETATM   12  C   UNL     1      -7.647   7.449  70.586  1.00  0.00    -0.086 C  
HETATM   13  C   UNL     1      -6.464   6.436  70.660  1.00  0.00    -0.044 C  
HETATM   14  C   UNL     1      -6.557   5.243  71.595  1.00  0.00    -0.040 C  
ENDBRANCH   5   6
ENDBRANCH   2   4
BRANCH   3  15
HETATM   15  C   UNL     1     -10.885   9.775  67.467  1.00  0.00    -0.286 C  
HETATM   16  C   UNL     1      -9.704  10.343  67.175  1.00  0.00    -0.206 C  
BRANCH  16  17
HETATM   17  C   UNL     1      -8.991  10.042  65.936  1.00  0.00    -0.182 C  
HETATM   18  C   UNL     1      -7.204   8.731  64.765  1.00  0.00    -0.091 C  
HETATM   19  O   UNL     1      -7.307   9.206  63.649  1.00  0.00    -0.098 OA 
HETATM   20  C   UNL     1      -8.020   9.105  65.939  1.00  0.00    -0.106 C  
HETATM   21  C   UNL     1      -9.424  10.825  64.726  1.00  0.00    -0.292 C  
HETATM   22  O   UNL     1      -6.295   7.781  65.074  1.00  0.00    -0.041 OA 
ENDBRANCH  16  17
ENDBRANCH   3  15
TORSDOF 4
ENDMDL
MODEL      240
REMARK 921   NORMALIZED FREE ENERGY PREDICTED BY IDOCK:   -1.51 KCAL/MOL
REMARK 922        TOTAL FREE ENERGY PREDICTED BY IDOCK:   -3.25 KCAL/MOL
REMARK 923 INTER-LIGAND FREE ENERGY PREDICTED BY IDOCK:   -2.95 KCAL/MOL
REMARK 924 INTRA-LIGAND FREE ENERGY PREDICTED BY IDOCK:   -0.30 KCAL/MOL
REMARK 927      BINDING AFFINITY PREDICTED BY RF-SCORE:    0.00 PKD
ROOT
HETATM    1  C   UNL     1     -10.822   8.833  71.547  1.00  0.00    -0.374 C  
HETATM    2  C   UNL     1     -10.062   8.011  70.543  1.00  0.00    -0.195 C  
HETATM    3  C   UNL     1     -10.413   8.037  69.238  1.00  0.00    -0.221 C  
ENDROOT
BRANCH   2   4
HETATM    4  C   UNL     1      -8.924   7.249  71.039  1.00  0.00    -0.149 C  
HETATM    5  C   UNL     1      -8.961   6.374  72.056  1.00  0.00    -0.137 C  
BRANCH   5   6
HETATM    6  C   UNL     1      -7.831   5.540  72.495  1.00  0.00    -0.103 C  
HETATM    7  C   UNL     1      -8.622   3.210  71.826  1.00  0.00    -0.100 C  
HETATM    8  C   UNL     1      -6.587   6.063  72.521  1.00  0.00    -0.068 C  
HETATM    9  C   UNL     1      -5.381   5.324  73.030  1.00  0.00    -0.017 C  
HETATM   10  C   UNL     1      -6.227   7.458  72.052  1.00  0.00    -0.040 C  
HETATM   11  C   UNL     1      -9.301   4.172  74.037  1.00  0.00    -0.111 C  
HETATM   12  C   UNL     1      -8.153   4.113  72.994  1.00  0.00    -0.090 C  
HETATM   13  C   UNL     1      -6.974   3.375  73.696  1.00  0.00    -0.045 C  
HETATM   14  C   UNL     1      -5.562   3.914  73.555  1.00  0.00    -0.004 C  
ENDBRANCH   5   6
ENDBRANCH   2   4
BRANCH   3  15
HETATM   15  C   UNL     1      -9.789   7.253  68.195  1.00  0.00    -0.165 C  
HETATM   16  C   UNL     1     -10.438   6.628  67.200  1.00  0.00    -0.358 C  
BRANCH  16  17
HETATM   17  C   UNL     1      -9.737   5.797  66.226  1.00  0.00    -0.148 C  
HETATM   18  C   UNL     1      -7.706   5.426  64.803  1.00  0.00    -0.090 C  
HETATM   19  O   UNL     1      -8.044   4.402  64.238  1.00  0.00    -0.091 OA 
HETATM   20  C   UNL     1      -8.506   6.160  65.806  1.00  0.00    -0.147 C  
HETATM   21  C   UNL     1     -10.470   4.566  65.769  1.00  0.00    -0.268 C  
HETATM   22  O   UNL     1      -6.526   6.038  64.565  1.00  0.00    -0.032 OA 
ENDBRANCH  16  17
ENDBRANCH   3  15
TORSDOF 4
ENDMDL
MODEL      241
REMARK 921   NORMALIZED FREE ENERGY PREDICTED BY IDOCK:   -1.37 KCAL/MOL
REMARK 922        TOTAL FREE ENERGY PREDICTED BY IDOCK:   -3.08 KCAL/MOL
REMARK 923 INTER-LIGAND FREE ENERGY PREDICTED BY IDOCK:   -2.37 KCAL/MOL
REMARK 924 INTRA-LIGAND FREE ENERGY PREDICTED BY IDOCK:   -0.71 KCAL/MOL
REMARK 927      BINDING AFFINITY PREDICTED BY RF-SCORE:    0.00 PKD
ROOT
HETATM    1  C   UNL     1     -12.993  10.890  71.536  1.00  0.00    -0.556 C  
HETATM    2  C   UNL     1     -11.717  10.922  70.741  1.00  0.00    -0.355 C  
HETATM    3  C   UNL     1     -11.585  11.777  69.703  1.00  0.00    -0.393 C  
ENDROOT
BRANCH   2   4
HETATM    4  C   UNL     1     -10.644  10.039  71.178  1.00  0.00     0.130 C  
HETATM    5  C   UNL     1     -10.593   8.715  70.964  1.00  0.00    -0.278 C  
BRANCH   5   6
HETATM    6  C   UNL     1      -9.466   7.843  71.328  1.00  0.00    -0.184 C  
HETATM    7  C   UNL     1     -10.595   5.559  71.430  1.00  0.00    -0.310 C  
HETATM    8  C   UNL     1      -8.214   8.179  70.953  1.00  0.00    -0.110 C  
HETATM    9  C   UNL     1      -6.988   7.402  71.344  1.00  0.00    -0.055 C  
HETATM   10  C   UNL     1      -7.862   9.377  70.095  1.00  0.00    -0.148 C  
HETATM   11  C   UNL     1     -10.620   7.054  73.440  1.00  0.00    -0.399 C  
HETATM   12  C   UNL     1      -9.776   6.614  72.213  1.00  0.00    -0.155 C  
HETATM   13  C   UNL     1      -8.528   5.883  72.793  1.00  0.00    -0.122 C  
HETATM   14  C   UNL     1      -7.154   6.175  72.217  1.00  0.00    -0.084 C  
ENDBRANCH   5   6
ENDBRANCH   2   4
BRANCH   3  15
HETATM   15  C   UNL     1     -10.428  11.860  68.839  1.00  0.00    -0.164 C  
HETATM   16  C   UNL     1      -9.229  12.351  69.192  1.00  0.00     0.630 C  
BRANCH  16  17
HETATM   17  C   UNL     1      -8.131  12.464  68.236  1.00  0.00    -0.166 C  
HETATM   18  C   UNL     1      -6.000  13.595  67.555  1.00  0.00     0.017 C  
HETATM   19  O   UNL     1      -5.788  13.008  66.510  1.00  0.00     0.721 OA 
HETATM   20  C   UNL     1      -7.147  13.361  68.458  1.00  0.00    -0.108 C  
HETATM   21  C   UNL     1      -8.193  11.532  67.056  1.00  0.00    -0.167 C  
HETATM   22  O   UNL     1      -5.190  14.569  68.025  1.00  0.00    -0.114 OA 
ENDBRANCH  16  17
ENDBRANCH   3  15
TORSDOF 4
ENDMDL
MODEL      242
REMARK 921   NORMALIZED FREE ENERGY PREDICTED BY IDOCK:   -1.12 KCAL/MOL
REMARK 922        TOTAL FREE ENERGY PREDICTED BY IDOCK:   -2.77 KCAL/MOL
REMARK 923 INTER-LIGAND FREE ENERGY PREDICTED BY IDOCK:   -3.26 KCAL/MOL
REMARK 924 INTRA-LIGAND FREE ENERGY PREDICTED BY IDOCK:    0.49 KCAL/MOL
REMARK 927      BINDING AFFINITY PREDICTED BY RF-SCORE:    0.00 PKD
ROOT
HETATM    1  C   UNL     1      -8.353  12.579  67.480  1.00  0.00    -0.175 C  
HETATM    2  C   UNL     1      -9.353  13.326  68.319  1.00  0.00    -0.205 C  
HETATM    3  C   UNL     1     -10.014  12.693  69.313  1.00  0.00     0.563 C  
ENDROOT
BRANCH   2   4
HETATM    4  C   UNL     1      -9.520  14.746  68.040  1.00  0.00    -0.204 C  
HETATM    5  C   UNL     1      -8.614  15.701  68.305  1.00  0.00    -0.158 C  
BRANCH   5   6
HETATM    6  C   UNL     1      -8.750  17.119  67.940  1.00  0.00    -0.222 C  
HETATM    7  C   UNL     1      -8.133  17.073  65.466  1.00  0.00     1.092 C  
HETATM    8  C   UNL     1      -9.631  17.898  68.602  1.00  0.00    -0.331 C  
HETATM    9  C   UNL     1      -9.786  19.374  68.363  1.00  0.00    -0.488 C  
HETATM   10  C   UNL     1     -10.578  17.407  69.678  1.00  0.00     0.209 C  
HETATM   11  C   UNL     1      -6.333  17.269  67.197  1.00  0.00    -0.195 C  
HETATM   12  C   UNL     1      -7.795  17.667  66.855  1.00  0.00    -0.252 C  
HETATM   13  C   UNL     1      -7.789  19.218  66.698  1.00  0.00    -0.284 C  
HETATM   14  C   UNL     1      -8.903  20.038  67.327  1.00  0.00    -0.428 C  
ENDBRANCH   5   6
ENDBRANCH   2   4
BRANCH   3  15
HETATM   15  C   UNL     1     -11.031  13.295  70.148  1.00  0.00     0.679 C  
HETATM   16  C   UNL     1     -11.299  14.608  70.220  1.00  0.00    -0.253 C  
BRANCH  16  17
HETATM   17  C   UNL     1     -12.297  15.141  71.143  1.00  0.00    -0.404 C  
HETATM   18  C   UNL     1     -12.812  16.170  73.370  1.00  0.00    -0.517 C  
HETATM   19  O   UNL     1     -14.024  16.249  73.277  1.00  0.00    -0.511 OA 
HETATM   20  C   UNL     1     -11.903  15.633  72.336  1.00  0.00    -0.584 C  
HETATM   21  C   UNL     1     -13.722  15.101  70.660  1.00  0.00    -0.100 C  
HETATM   22  O   UNL     1     -12.135  16.568  74.469  1.00  0.00    -0.492 OA 
ENDBRANCH  16  17
ENDBRANCH   3  15
TORSDOF 4
ENDMDL
MODEL      243
REMARK 921   NORMALIZED FREE ENERGY PREDICTED BY IDOCK:    0.86 KCAL/MOL
REMARK 922        TOTAL FREE ENERGY PREDICTED BY IDOCK:   -0.33 KCAL/MOL
REMARK 923 INTER-LIGAND FREE ENERGY PREDICTED BY IDOCK:   -0.53 KCAL/MOL
REMARK 924 INTRA-LIGAND FREE ENERGY PREDICTED BY IDOCK:    0.20 KCAL/MOL
REMARK 927      BINDING AFFINITY PREDICTED BY RF-SCORE:    0.00 PKD
ROOT
HETATM    1  C   UNL     1     -11.732  16.430  71.067  1.00  0.00    -0.162 C  
HETATM    2  C   UNL     1     -10.727  15.694  70.225  1.00  0.00    -0.354 C  
HETATM    3  C   UNL     1      -9.414  15.733  70.543  1.00  0.00     1.130 C  
ENDROOT
BRANCH   2   4
HETATM    4  C   UNL     1     -11.245  14.913  69.109  1.00  0.00    -0.293 C  
HETATM    5  C   UNL     1     -10.878  15.057  67.826  1.00  0.00    -0.284 C  
BRANCH   5   6
HETATM    6  C   UNL     1     -11.337  14.207  66.716  1.00  0.00    -0.353 C  
HETATM    7  C   UNL     1      -9.758  14.915  64.842  1.00  0.00     0.297 C  
HETATM    8  C   UNL     1     -11.889  13.005  66.980  1.00  0.00    -0.437 C  
HETATM    9  C   UNL     1     -12.464  12.100  65.926  1.00  0.00     0.626 C  
HETATM   10  C   UNL     1     -12.017  12.399  68.363  1.00  0.00    -0.269 C  
HETATM   11  C   UNL     1     -11.862  16.211  65.259  1.00  0.00     0.736 C  
HETATM   12  C   UNL     1     -11.236  14.790  65.288  1.00  0.00    -0.366 C  
HETATM   13  C   UNL     1     -11.977  13.974  64.185  1.00  0.00    -0.439 C  
HETATM   14  C   UNL     1     -12.433  12.556  64.482  1.00  0.00    -0.539 C  
ENDBRANCH   5   6
ENDBRANCH   2   4
BRANCH   3  15
HETATM   15  C   UNL     1      -8.356  15.108  69.780  1.00  0.00     0.041 C  
HETATM   16  C   UNL     1      -8.335  13.824  69.390  1.00  0.00     0.682 C  
BRANCH  16  17
HETATM   17  C   UNL     1      -7.194  13.253  68.680  1.00  0.00    -0.106 C  
HETATM   18  C   UNL     1      -6.343  11.802  66.822  1.00  0.00    -0.083 C  
HETATM   19  O   UNL     1      -5.147  11.888  67.033  1.00  0.00    -0.099 OA 
HETATM   20  C   UNL     1      -7.406  12.464  67.606  1.00  0.00    -0.132 C  
HETATM   21  C   UNL     1      -5.838  13.616  69.223  1.00  0.00    -0.085 C  
HETATM   22  O   UNL     1      -6.856  11.056  65.819  1.00  0.00    -0.045 OA 
ENDBRANCH  16  17
ENDBRANCH   3  15
TORSDOF 4
ENDMDL
MODEL      244
REMARK 921   NORMALIZED FREE ENERGY PREDICTED BY IDOCK:    2.90 KCAL/MOL
REMARK 922        TOTAL FREE ENERGY PREDICTED BY IDOCK:    2.18 KCAL/MOL
REMARK 923 INTER-LIGAND FREE ENERGY PREDICTED BY IDOCK:   -0.73 KCAL/MOL
REMARK 924 INTRA-LIGAND FREE ENERGY PREDICTED BY IDOCK:    2.91 KCAL/MOL
REMARK 927      BINDING AFFINITY PREDICTED BY RF-SCORE:    0.00 PKD
ROOT
HETATM    1  C   UNL     1     -11.726  16.423  71.058  1.00  0.00    -0.162 C  
HETATM    2  C   UNL     1     -10.721  15.684  70.218  1.00  0.00    -0.354 C  
HETATM    3  C   UNL     1      -9.409  15.720  70.538  1.00  0.00     1.260 C  
ENDROOT
BRANCH   2   4
HETATM    4  C   UNL     1     -11.240  14.903  69.102  1.00  0.00    -0.293 C  
HETATM    5  C   UNL     1     -10.862  15.037  67.821  1.00  0.00    -0.284 C  
BRANCH   5   6
HETATM    6  C   UNL     1     -11.322  14.186  66.712  1.00  0.00    -0.353 C  
HETATM    7  C   UNL     1     -11.995  12.057  67.944  1.00  0.00    -0.204 C  
HETATM    8  C   UNL     1     -11.848  14.755  65.608  1.00  0.00    -0.212 C  
HETATM    9  C   UNL     1     -12.268  13.982  64.389  1.00  0.00    -0.457 C  
HETATM   10  C   UNL     1     -12.084  16.241  65.431  1.00  0.00     1.517 C  
HETATM   11  C   UNL     1      -9.614  12.392  67.241  1.00  0.00    -0.199 C  
HETATM   12  C   UNL     1     -11.090  12.663  66.843  1.00  0.00    -0.315 C  
HETATM   13  C   UNL     1     -11.341  11.840  65.543  1.00  0.00    -0.283 C  
HETATM   14  C   UNL     1     -12.089  12.478  64.386  1.00  0.00    -0.500 C  
ENDBRANCH   5   6
ENDBRANCH   2   4
BRANCH   3  15
HETATM   15  C   UNL     1      -8.351  15.091  69.777  1.00  0.00     0.095 C  
HETATM   16  C   UNL     1      -8.329  13.804  69.397  1.00  0.00     0.682 C  
BRANCH  16  17
HETATM   17  C   UNL     1      -7.188  13.230  68.690  1.00  0.00    -0.106 C  
HETATM   18  C   UNL     1      -6.338  11.719  66.879  1.00  0.00    -0.131 C  
HETATM   19  O   UNL     1      -5.141  11.843  67.061  1.00  0.00    -0.099 OA 
HETATM   20  C   UNL     1      -7.402  12.390  67.655  1.00  0.00    -0.132 C  
HETATM   21  C   UNL     1      -5.831  13.648  69.189  1.00  0.00    -0.084 C  
HETATM   22  O   UNL     1      -6.853  10.919  65.919  1.00  0.00    -0.113 OA 
ENDBRANCH  16  17
ENDBRANCH   3  15
TORSDOF 4
ENDMDL
MODEL      245
REMARK 921   NORMALIZED FREE ENERGY PREDICTED BY IDOCK:    2.96 KCAL/MOL
REMARK 922        TOTAL FREE ENERGY PREDICTED BY IDOCK:    2.26 KCAL/MOL
REMARK 923 INTER-LIGAND FREE ENERGY PREDICTED BY IDOCK:    1.91 KCAL/MOL
REMARK 924 INTRA-LIGAND FREE ENERGY PREDICTED BY IDOCK:    0.35 KCAL/MOL
REMARK 927      BINDING AFFINITY PREDICTED BY RF-SCORE:    0.00 PKD
ROOT
HETATM    1  C   UNL     1     -12.535  16.000  71.359  1.00  0.00    -0.343 C  
HETATM    2  C   UNL     1     -11.450  15.673  70.371  1.00  0.00    -0.369 C  
HETATM    3  C   UNL     1     -10.457  16.559  70.134  1.00  0.00     0.035 C  
ENDROOT
BRANCH   2   4
HETATM    4  C   UNL     1     -11.502  14.360  69.742  1.00  0.00    -0.328 C  
HETATM    5  C   UNL     1     -11.092  14.081  68.494  1.00  0.00    -0.279 C  
BRANCH   5   6
HETATM    6  C   UNL     1     -11.063  12.738  67.895  1.00  0.00    -0.281 C  
HETATM    7  C   UNL     1     -11.664  11.272  69.893  1.00  0.00    -0.430 C  
HETATM    8  C   UNL     1     -11.351  12.584  66.586  1.00  0.00    -0.389 C  
HETATM    9  C   UNL     1     -11.269  11.270  65.861  1.00  0.00    -0.096 C  
HETATM   10  C   UNL     1     -11.789  13.702  65.661  1.00  0.00    -0.387 C  
HETATM   11  C   UNL     1      -9.281  11.942  69.508  1.00  0.00     1.206 C  
HETATM   12  C   UNL     1     -10.610  11.568  68.798  1.00  0.00    -0.241 C  
HETATM   13  C   UNL     1     -10.335  10.226  68.055  1.00  0.00    -0.215 C  
HETATM   14  C   UNL     1     -10.830  10.042  66.632  1.00  0.00    -0.058 C  
ENDBRANCH   5   6
ENDBRANCH   2   4
BRANCH   3  15
HETATM   15  C   UNL     1      -9.392  16.375  69.173  1.00  0.00    -0.224 C  
HETATM   16  C   UNL     1      -8.509  15.363  69.176  1.00  0.00    -0.241 C  
BRANCH  16  17
HETATM   17  C   UNL     1      -7.419  15.289  68.208  1.00  0.00    -0.112 C  
HETATM   18  C   UNL     1      -5.961  13.876  66.738  1.00  0.00     2.149 C  
HETATM   19  O   UNL     1      -5.243  14.744  66.276  1.00  0.00     2.615 OA 
HETATM   20  C   UNL     1      -7.064  14.091  67.698  1.00  0.00    -0.193 C  
HETATM   21  C   UNL     1      -6.776  16.600  67.846  1.00  0.00    -0.155 C  
HETATM   22  O   UNL     1      -5.823  12.569  66.424  1.00  0.00     0.242 OA 
ENDBRANCH  16  17
ENDBRANCH   3  15
TORSDOF 4
ENDMDL
MODEL      246
REMARK 921   NORMALIZED FREE ENERGY PREDICTED BY IDOCK:    3.88 KCAL/MOL
REMARK 922        TOTAL FREE ENERGY PREDICTED BY IDOCK:    3.39 KCAL/MOL
REMARK 923 INTER-LIGAND FREE ENERGY PREDICTED BY IDOCK:    3.85 KCAL/MOL
REMARK 924 INTRA-LIGAND FREE ENERGY PREDICTED BY IDOCK:   -0.46 KCAL/MOL
REMARK 927      BINDING AFFINITY PREDICTED BY RF-SCORE:    0.00 PKD
ROOT
HETATM    1  C   UNL     1      -5.193  15.499  66.481  1.00  0.00     1.975 C  
HETATM    2  C   UNL     1      -6.518  14.926  66.903  1.00  0.00     1.089 C  
HETATM    3  C   UNL     1      -7.666  15.565  66.589  1.00  0.00     0.011 C  
ENDROOT
BRANCH   2   4
HETATM    4  C   UNL     1      -6.492  13.648  67.603  1.00  0.00    -0.164 C  
HETATM    5  C   UNL     1      -6.864  12.470  67.078  1.00  0.00     0.045 C  
BRANCH   5   6
HETATM    6  C   UNL     1      -6.752  11.170  67.758  1.00  0.00    -0.065 C  
HETATM    7  C   UNL     1      -8.991  11.031  68.972  1.00  0.00    -0.071 C  
HETATM    8  C   UNL     1      -5.996  10.194  67.212  1.00  0.00    -0.054 C  
HETATM    9  C   UNL     1      -5.750   8.864  67.866  1.00  0.00    -0.035 C  
HETATM   10  C   UNL     1      -5.287  10.296  65.877  1.00  0.00    -0.057 C  
HETATM   11  C   UNL     1      -7.062  12.218  70.042  1.00  0.00     0.892 C  
HETATM   12  C   UNL     1      -7.450  11.024  69.129  1.00  0.00    -0.121 C  
HETATM   13  C   UNL     1      -7.080   9.737  69.928  1.00  0.00    -0.108 C  
HETATM   14  C   UNL     1      -6.374   8.594  69.220  1.00  0.00    -0.042 C  
ENDBRANCH   5   6
ENDBRANCH   2   4
BRANCH   3  15
HETATM   15  C   UNL     1      -8.990  15.136  66.984  1.00  0.00    -0.255 C  
HETATM   16  C   UNL     1      -9.553  15.358  68.182  1.00  0.00    -0.203 C  
BRANCH  16  17
HETATM   17  C   UNL     1     -10.870  14.829  68.524  1.00  0.00    -0.255 C  
HETATM   18  C   UNL     1     -12.342  12.831  68.882  1.00  0.00     0.217 C  
HETATM   19  O   UNL     1     -13.390  13.398  69.129  1.00  0.00     1.932 OA 
HETATM   20  C   UNL     1     -11.055  13.493  68.580  1.00  0.00    -0.300 C  
HETATM   21  C   UNL     1     -11.935  15.855  68.801  1.00  0.00    -0.167 C  
HETATM   22  O   UNL     1     -12.229  11.486  68.845  1.00  0.00    -0.415 OA 
ENDBRANCH  16  17
ENDBRANCH   3  15
TORSDOF 4
ENDMDL
MODEL      247
REMARK 921   NORMALIZED FREE ENERGY PREDICTED BY IDOCK:    4.07 KCAL/MOL
REMARK 922        TOTAL FREE ENERGY PREDICTED BY IDOCK:    3.63 KCAL/MOL
REMARK 923 INTER-LIGAND FREE ENERGY PREDICTED BY IDOCK:    3.37 KCAL/MOL
REMARK 924 INTRA-LIGAND FREE ENERGY PREDICTED BY IDOCK:    0.26 KCAL/MOL
REMARK 927      BINDING AFFINITY PREDICTED BY RF-SCORE:    0.00 PKD
ROOT
HETATM    1  C   UNL     1      -6.409  12.768  70.423  1.00  0.00     0.240 C  
HETATM    2  C   UNL     1      -6.802  13.960  69.594  1.00  0.00     0.011 C  
HETATM    3  C   UNL     1      -5.888  14.574  68.811  1.00  0.00    -0.085 C  
ENDROOT
BRANCH   2   4
HETATM    4  C   UNL     1      -8.199  14.367  69.644  1.00  0.00     0.433 C  
HETATM    5  C   UNL     1      -8.853  15.017  68.668  1.00  0.00    -0.185 C  
BRANCH   5   6
HETATM    6  C   UNL     1     -10.287  15.347  68.685  1.00  0.00    -0.234 C  
HETATM    7  C   UNL     1     -10.882  14.917  71.127  1.00  0.00     0.135 C  
HETATM    8  C   UNL     1     -10.771  16.261  67.819  1.00  0.00    -0.325 C  
HETATM    9  C   UNL     1     -12.229  16.607  67.700  1.00  0.00     1.767 C  
HETATM   10  C   UNL     1      -9.929  17.060  66.846  1.00  0.00    -0.289 C  
HETATM   11  C   UNL     1     -10.918  13.028  69.482  1.00  0.00     0.035 C  
HETATM   12  C   UNL     1     -11.187  14.547  69.655  1.00  0.00    -0.292 C  
HETATM   13  C   UNL     1     -12.719  14.737  69.445  1.00  0.00     0.179 C  
HETATM   14  C   UNL     1     -13.221  15.889  68.592  1.00  0.00     3.038 C  
ENDBRANCH   5   6
ENDBRANCH   2   4
BRANCH   3  15
HETATM   15  C   UNL     1      -6.138  15.754  68.013  1.00  0.00    -0.149 C  
HETATM   16  C   UNL     1      -5.196  16.504  67.419  1.00  0.00    -0.163 C  
BRANCH  16  17
HETATM   17  C   UNL     1      -5.530  17.722  66.687  1.00  0.00    -0.200 C  
HETATM   18  C   UNL     1      -6.359  20.088  66.742  1.00  0.00    -0.191 C  
HETATM   19  O   UNL     1      -6.341  20.333  65.550  1.00  0.00    -0.211 OA 
HETATM   20  C   UNL     1      -5.960  18.808  67.365  1.00  0.00    -0.170 C  
HETATM   21  C   UNL     1      -5.349  17.659  65.195  1.00  0.00     0.368 C  
HETATM   22  O   UNL     1      -6.768  20.983  67.667  1.00  0.00    -0.343 OA 
ENDBRANCH  16  17
ENDBRANCH   3  15
TORSDOF 4
ENDMDL
MODEL      248
REMARK 921   NORMALIZED FREE ENERGY PREDICTED BY IDOCK:    7.48 KCAL/MOL
REMARK 922        TOTAL FREE ENERGY PREDICTED BY IDOCK:    7.83 KCAL/MOL
REMARK 923 INTER-LIGAND FREE ENERGY PREDICTED BY IDOCK:    7.90 KCAL/MOL
REMARK 924 INTRA-LIGAND FREE ENERGY PREDICTED BY IDOCK:   -0.07 KCAL/MOL
REMARK 927      BINDING AFFINITY PREDICTED BY RF-SCORE:    0.00 PKD
ROOT
HETATM    1  C   UNL     1      -6.458  12.750  70.421  1.00  0.00     0.431 C  
HETATM    2  C   UNL     1      -7.001  13.808  69.500  1.00  0.00     0.058 C  
HETATM    3  C   UNL     1      -6.182  14.435  68.628  1.00  0.00    -0.087 C  
ENDROOT
BRANCH   2   4
HETATM    4  C   UNL     1      -8.433  14.068  69.564  1.00  0.00     0.708 C  
HETATM    5  C   UNL     1      -9.397  13.146  69.410  1.00  0.00     1.102 C  
BRANCH   5   6
HETATM    6  C   UNL     1     -10.838  13.397  69.565  1.00  0.00     0.084 C  
HETATM    7  C   UNL     1     -10.917  15.946  69.575  1.00  0.00    -0.311 C  
HETATM    8  C   UNL     1     -11.726  12.501  69.087  1.00  0.00    -0.375 C  
HETATM    9  C   UNL     1     -13.214  12.622  69.267  1.00  0.00     2.458 C  
HETATM   10  C   UNL     1     -11.360  11.251  68.312  1.00  0.00    -0.359 C  
HETATM   11  C   UNL     1     -10.489  14.702  71.707  1.00  0.00     2.152 C  
HETATM   12  C   UNL     1     -11.258  14.655  70.359  1.00  0.00    -0.170 C  
HETATM   13  C   UNL     1     -12.771  14.731  70.728  1.00  0.00    -0.422 C  
HETATM   14  C   UNL     1     -13.758  13.809  70.034  1.00  0.00     2.076 C  
ENDBRANCH   5   6
ENDBRANCH   2   4
BRANCH   3  15
HETATM   15  C   UNL     1      -6.581  15.499  67.733  1.00  0.00    -0.181 C  
HETATM   16  C   UNL     1      -5.743  16.268  67.019  1.00  0.00     0.003 C  
BRANCH  16  17
HETATM   17  C   UNL     1      -6.226  17.369  66.190  1.00  0.00    -0.204 C  
HETATM   18  C   UNL     1      -5.965  19.743  65.430  1.00  0.00    -0.196 C  
HETATM   19  O   UNL     1      -6.929  19.823  64.691  1.00  0.00    -0.273 OA 
HETATM   20  C   UNL     1      -5.564  18.545  66.196  1.00  0.00    -0.193 C  
HETATM   21  C   UNL     1      -7.453  17.080  65.369  1.00  0.00     1.770 C  
HETATM   22  O   UNL     1      -5.126  20.779  65.652  1.00  0.00    -0.175 OA 
ENDBRANCH  16  17
ENDBRANCH   3  15
TORSDOF 4
ENDMDL
MODEL      249
REMARK 921   NORMALIZED FREE ENERGY PREDICTED BY IDOCK:   16.32 KCAL/MOL
REMARK 922        TOTAL FREE ENERGY PREDICTED BY IDOCK:   18.75 KCAL/MOL
REMARK 923 INTER-LIGAND FREE ENERGY PREDICTED BY IDOCK:   15.20 KCAL/MOL
REMARK 924 INTRA-LIGAND FREE ENERGY PREDICTED BY IDOCK:    3.55 KCAL/MOL
REMARK 927      BINDING AFFINITY PREDICTED BY RF-SCORE:    0.00 PKD
ROOT
HETATM    1  C   UNL     1      -7.732  19.796  65.161  1.00  0.00     0.533 C  
HETATM    2  C   UNL     1      -7.641  18.797  66.281  1.00  0.00    -0.287 C  
HETATM    3  C   UNL     1      -6.890  19.066  67.372  1.00  0.00    -0.214 C  
ENDROOT
BRANCH   2   4
HETATM    4  C   UNL     1      -8.432  17.581  66.148  1.00  0.00    -0.177 C  
HETATM    5  C   UNL     1      -7.949  16.330  66.218  1.00  0.00    -0.208 C  
BRANCH   5   6
HETATM    6  C   UNL     1      -8.764  15.106  66.173  1.00  0.00     0.014 C  
HETATM    7  C   UNL     1      -8.193  14.027  68.412  1.00  0.00    -0.150 C  
HETATM    8  C   UNL     1      -9.917  15.098  65.472  1.00  0.00    -0.384 C  
HETATM    9  C   UNL     1     -10.778  13.879  65.295  1.00  0.00    -0.352 C  
HETATM   10  C   UNL     1     -10.505  16.301  64.763  1.00  0.00     0.179 C  
HETATM   11  C   UNL     1      -6.731  13.617  66.419  1.00  0.00     3.228 C  
HETATM   12  C   UNL     1      -8.197  13.850  66.873  1.00  0.00     0.039 C  
HETATM   13  C   UNL     1      -8.956  12.523  66.569  1.00  0.00    -0.133 C  
HETATM   14  C   UNL     1     -10.331  12.577  65.928  1.00  0.00    -0.284 C  
ENDBRANCH   5   6
ENDBRANCH   2   4
BRANCH   3  15
HETATM   15  C   UNL     1      -6.689  18.162  68.484  1.00  0.00    -0.230 C  
HETATM   16  C   UNL     1      -7.423  17.067  68.737  1.00  0.00    -0.242 C  
BRANCH  16  17
HETATM   17  C   UNL     1      -7.197  16.246  69.922  1.00  0.00     0.348 C  
HETATM   18  C   UNL     1      -8.135  14.703  71.662  1.00  0.00     4.589 C  
HETATM   19  O   UNL     1      -7.133  14.525  72.331  1.00  0.00     1.736 OA 
HETATM   20  C   UNL     1      -8.223  15.545  70.450  1.00  0.00     1.201 C  
HETATM   21  C   UNL     1      -5.793  16.248  70.462  1.00  0.00     0.021 C  
HETATM   22  O   UNL     1      -9.326  14.143  71.965  1.00  0.00     5.974 OA 
ENDBRANCH  16  17
ENDBRANCH   3  15
TORSDOF 4
ENDMDL
MODEL      250
REMARK 921   NORMALIZED FREE ENERGY PREDICTED BY IDOCK:   18.53 KCAL/MOL
REMARK 922        TOTAL FREE ENERGY PREDICTED BY IDOCK:   21.46 KCAL/MOL
REMARK 923 INTER-LIGAND FREE ENERGY PREDICTED BY IDOCK:   16.34 KCAL/MOL
REMARK 924 INTRA-LIGAND FREE ENERGY PREDICTED BY IDOCK:    5.12 KCAL/MOL
REMARK 927      BINDING AFFINITY PREDICTED BY RF-SCORE:    0.00 PKD
ROOT
HETATM    1  C   UNL     1      -7.733  19.790  65.168  1.00  0.00     0.533 C  
HETATM    2  C   UNL     1      -7.688  18.789  66.289  1.00  0.00    -0.295 C  
HETATM    3  C   UNL     1      -7.047  19.086  67.441  1.00  0.00    -0.226 C  
ENDROOT
BRANCH   2   4
HETATM    4  C   UNL     1      -8.405  17.537  66.085  1.00  0.00    -0.200 C  
HETATM    5  C   UNL     1      -9.101  16.880  67.027  1.00  0.00    -0.240 C  
BRANCH   5   6
HETATM    6  C   UNL     1      -9.897  15.665  66.795  1.00  0.00    -0.255 C  
HETATM    7  C   UNL     1     -10.889  16.132  64.493  1.00  0.00     0.002 C  
HETATM    8  C   UNL     1      -9.515  14.500  67.358  1.00  0.00    -0.202 C  
HETATM    9  C   UNL     1     -10.301  13.223  67.252  1.00  0.00    -0.247 C  
HETATM   10  C   UNL     1      -8.253  14.308  68.175  1.00  0.00    -0.146 C  
HETATM   11  C   UNL     1     -12.042  16.989  66.545  1.00  0.00     3.106 C  
HETATM   12  C   UNL     1     -11.199  15.815  65.976  1.00  0.00     0.018 C  
HETATM   13  C   UNL     1     -12.137  14.570  65.989  1.00  0.00    -0.298 C  
HETATM   14  C   UNL     1     -11.604  13.235  66.478  1.00  0.00    -0.392 C  
ENDBRANCH   5   6
ENDBRANCH   2   4
BRANCH   3  15
HETATM   15  C   UNL     1      -6.897  18.186  68.563  1.00  0.00    -0.240 C  
HETATM   16  C   UNL     1      -7.596  17.055  68.750  1.00  0.00    -0.243 C  
BRANCH  16  17
HETATM   17  C   UNL     1      -7.432  16.238  69.948  1.00  0.00     0.509 C  
HETATM   18  C   UNL     1      -8.431  14.624  71.586  1.00  0.00     5.094 C  
HETATM   19  O   UNL     1      -7.488  14.501  72.345  1.00  0.00     2.695 OA 
HETATM   20  C   UNL     1      -8.457  15.470  70.374  1.00  0.00     1.235 C  
HETATM   21  C   UNL     1      -6.087  16.320  70.617  1.00  0.00     0.365 C  
HETATM   22  O   UNL     1      -9.609  13.989  71.773  1.00  0.00     5.767 OA 
ENDBRANCH  16  17
ENDBRANCH   3  15
TORSDOF 4
ENDMDL
