MODEL        1
REMARK 921   NORMALIZED FREE ENERGY PREDICTED BY IDOCK:   -5.51 KCAL/MOL
REMARK 922        TOTAL FREE ENERGY PREDICTED BY IDOCK:   -6.49 KCAL/MOL
REMARK 923 INTER-LIGAND FREE ENERGY PREDICTED BY IDOCK:   -6.16 KCAL/MOL
REMARK 924 INTRA-LIGAND FREE ENERGY PREDICTED BY IDOCK:   -0.33 KCAL/MOL
REMARK 927      BINDING AFFINITY PREDICTED BY RF-SCORE:    0.00 PKD
ROOT
HETATM    1  N   UNL     1     -10.820  12.256  63.113  1.00  0.00    -0.643 N  
HETATM    2  H1  UNL     1     -10.049  12.916  63.002  1.00  0.00     0.000 HD 
HETATM    3  C   UNL     1     -12.082  12.669  63.387  1.00  0.00    -0.525 C  
HETATM    4  H2  UNL     1     -10.635  11.258  63.015  1.00  0.00     0.000 HD 
HETATM    5  O   UNL     1     -13.003  11.879  63.520  1.00  0.00    -0.724 OA 
ENDROOT
BRANCH   3   6
HETATM    6  N   UNL     1     -12.172  14.019  63.523  1.00  0.00    -1.079 N  
HETATM    7  H   UNL     1     -12.430  14.610  62.732  1.00  0.00     0.000 HD 
BRANCH   6   8
HETATM    8  C   UNL     1     -11.897  14.589  64.805  1.00  0.00    -0.441 C  
HETATM    9  N   UNL     1     -11.032  13.753  65.576  1.00  0.00    -0.293 NA 
HETATM   10  C   UNL     1     -10.045  14.482  66.195  1.00  0.00    -0.305 C  
HETATM   11  O   UNL     1      -9.286  14.049  67.042  1.00  0.00    -0.233 OA 
HETATM   12  N   UNL     1     -10.057  15.742  65.701  1.00  0.00    -0.355 NA 
HETATM   13  C   UNL     1     -11.053  15.884  64.782  1.00  0.00    -0.384 C  
HETATM   14  O   UNL     1     -11.220  16.871  64.081  1.00  0.00    -1.176 OA 
ENDBRANCH   6   8
ENDBRANCH   3   6
TORSDOF 2
ENDMDL
MODEL        2
REMARK 921   NORMALIZED FREE ENERGY PREDICTED BY IDOCK:   -5.26 KCAL/MOL
REMARK 922        TOTAL FREE ENERGY PREDICTED BY IDOCK:   -6.20 KCAL/MOL
REMARK 923 INTER-LIGAND FREE ENERGY PREDICTED BY IDOCK:   -5.81 KCAL/MOL
REMARK 924 INTRA-LIGAND FREE ENERGY PREDICTED BY IDOCK:   -0.40 KCAL/MOL
REMARK 927      BINDING AFFINITY PREDICTED BY RF-SCORE:    0.00 PKD
ROOT
HETATM    1  N   UNL     1     -12.776  11.766  63.038  1.00  0.00    -0.866 N  
HETATM    2  H1  UNL     1     -13.761  12.023  62.982  1.00  0.00     0.000 HD 
HETATM    3  C   UNL     1     -11.803  12.693  63.218  1.00  0.00    -0.425 C  
HETATM    4  H2  UNL     1     -12.515  10.783  62.955  1.00  0.00     0.000 HD 
HETATM    5  O   UNL     1     -10.624  12.384  63.285  1.00  0.00    -0.410 OA 
ENDROOT
BRANCH   3   6
HETATM    6  N   UNL     1     -12.293  13.960  63.277  1.00  0.00    -1.148 N  
HETATM    7  H   UNL     1     -12.510  14.479  62.426  1.00  0.00     0.000 HD 
BRANCH   6   8
HETATM    8  C   UNL     1     -12.496  14.547  64.565  1.00  0.00    -0.324 C  
HETATM    9  N   UNL     1     -12.671  13.550  65.574  1.00  0.00    -0.552 NA 
HETATM   10  C   UNL     1     -11.946  13.842  66.704  1.00  0.00    -0.442 C  
HETATM   11  O   UNL     1     -12.047  13.259  67.768  1.00  0.00    -0.331 OA 
HETATM   12  N   UNL     1     -11.108  14.869  66.432  1.00  0.00    -0.341 NA 
HETATM   13  C   UNL     1     -11.274  15.294  65.148  1.00  0.00    -0.370 C  
HETATM   14  O   UNL     1     -10.567  16.117  64.588  1.00  0.00    -0.597 OA 
ENDBRANCH   6   8
ENDBRANCH   3   6
TORSDOF 2
ENDMDL
MODEL        3
REMARK 921   NORMALIZED FREE ENERGY PREDICTED BY IDOCK:   -5.09 KCAL/MOL
REMARK 922        TOTAL FREE ENERGY PREDICTED BY IDOCK:   -6.01 KCAL/MOL
REMARK 923 INTER-LIGAND FREE ENERGY PREDICTED BY IDOCK:   -5.76 KCAL/MOL
REMARK 924 INTRA-LIGAND FREE ENERGY PREDICTED BY IDOCK:   -0.25 KCAL/MOL
REMARK 927      BINDING AFFINITY PREDICTED BY RF-SCORE:    0.00 PKD
ROOT
HETATM    1  N   UNL     1     -10.736  15.918  66.386  1.00  0.00    -0.291 N  
HETATM    2  H1  UNL     1     -10.232  15.265  66.985  1.00  0.00     0.000 HD 
HETATM    3  C   UNL     1     -10.733  15.798  65.035  1.00  0.00    -0.421 C  
HETATM    4  H2  UNL     1     -11.257  16.683  66.814  1.00  0.00     0.000 HD 
HETATM    5  O   UNL     1     -11.336  16.580  64.317  1.00  0.00    -1.020 OA 
ENDROOT
BRANCH   3   6
HETATM    6  N   UNL     1      -9.972  14.755  64.605  1.00  0.00    -0.394 N  
HETATM    7  H   UNL     1      -9.026  14.906  64.253  1.00  0.00     0.000 HD 
BRANCH   6   8
HETATM    8  C   UNL     1     -10.534  13.441  64.658  1.00  0.00    -0.411 C  
HETATM    9  N   UNL     1     -10.637  12.970  66.003  1.00  0.00    -0.275 NA 
HETATM   10  C   UNL     1     -11.852  12.372  66.237  1.00  0.00    -0.364 C  
HETATM   11  O   UNL     1     -12.136  11.736  67.235  1.00  0.00    -0.595 OA 
HETATM   12  N   UNL     1     -12.669  12.617  65.186  1.00  0.00    -0.732 NA 
HETATM   13  C   UNL     1     -12.018  13.343  64.235  1.00  0.00    -0.430 C  
HETATM   14  O   UNL     1     -12.542  13.818  63.238  1.00  0.00    -0.830 OA 
ENDBRANCH   6   8
ENDBRANCH   3   6
TORSDOF 2
ENDMDL
MODEL        4
REMARK 921   NORMALIZED FREE ENERGY PREDICTED BY IDOCK:   -5.05 KCAL/MOL
REMARK 922        TOTAL FREE ENERGY PREDICTED BY IDOCK:   -5.98 KCAL/MOL
REMARK 923 INTER-LIGAND FREE ENERGY PREDICTED BY IDOCK:   -5.84 KCAL/MOL
REMARK 924 INTRA-LIGAND FREE ENERGY PREDICTED BY IDOCK:   -0.14 KCAL/MOL
REMARK 927      BINDING AFFINITY PREDICTED BY RF-SCORE:    0.00 PKD
ROOT
HETATM    1  N   UNL     1     -10.318  10.756  62.674  1.00  0.00    -0.759 N  
HETATM    2  H1  UNL     1     -10.459  11.377  61.877  1.00  0.00     0.000 HD 
HETATM    3  C   UNL     1      -9.959  11.227  63.893  1.00  0.00    -0.321 C  
HETATM    4  H2  UNL     1     -10.450   9.752  62.549  1.00  0.00     0.000 HD 
HETATM    5  O   UNL     1      -9.790  10.484  64.847  1.00  0.00    -0.265 OA 
ENDROOT
BRANCH   3   6
HETATM    6  N   UNL     1      -9.786  12.577  63.902  1.00  0.00    -0.596 N  
HETATM    7  H   UNL     1      -9.012  13.010  63.399  1.00  0.00     0.000 HD 
BRANCH   6   8
HETATM    8  C   UNL     1     -10.721  13.372  64.637  1.00  0.00    -0.411 C  
HETATM    9  N   UNL     1     -10.384  14.760  64.584  1.00  0.00    -0.215 NA 
HETATM   10  C   UNL     1     -11.491  15.538  64.348  1.00  0.00    -0.259 C  
HETATM   11  O   UNL     1     -11.519  16.753  64.426  1.00  0.00    -1.024 OA 
HETATM   12  N   UNL     1     -12.527  14.736  64.010  1.00  0.00    -0.809 NA 
HETATM   13  C   UNL     1     -12.147  13.428  64.042  1.00  0.00    -0.449 C  
HETATM   14  O   UNL     1     -12.833  12.491  63.662  1.00  0.00    -0.731 OA 
ENDBRANCH   6   8
ENDBRANCH   3   6
TORSDOF 2
ENDMDL
MODEL        5
REMARK 921   NORMALIZED FREE ENERGY PREDICTED BY IDOCK:   -5.02 KCAL/MOL
REMARK 922        TOTAL FREE ENERGY PREDICTED BY IDOCK:   -5.93 KCAL/MOL
REMARK 923 INTER-LIGAND FREE ENERGY PREDICTED BY IDOCK:   -5.71 KCAL/MOL
REMARK 924 INTRA-LIGAND FREE ENERGY PREDICTED BY IDOCK:   -0.22 KCAL/MOL
REMARK 927      BINDING AFFINITY PREDICTED BY RF-SCORE:    0.00 PKD
ROOT
HETATM    1  N   UNL     1     -12.528  13.869  63.103  1.00  0.00    -1.079 N  
HETATM    2  H1  UNL     1     -11.895  14.575  62.727  1.00  0.00     0.000 HD 
HETATM    3  C   UNL     1     -12.344  13.324  64.331  1.00  0.00    -0.348 C  
HETATM    4  H2  UNL     1     -13.321  13.564  62.539  1.00  0.00     0.000 HD 
HETATM    5  O   UNL     1     -13.100  12.479  64.781  1.00  0.00    -0.853 OA 
ENDROOT
BRANCH   3   6
HETATM    6  N   UNL     1     -11.231  13.800  64.952  1.00  0.00    -0.334 N  
HETATM    7  H   UNL     1     -10.336  13.317  64.869  1.00  0.00     0.000 HD 
BRANCH   6   8
HETATM    8  C   UNL     1     -11.349  14.998  65.725  1.00  0.00    -0.279 C  
HETATM    9  N   UNL     1     -10.309  15.097  66.700  1.00  0.00    -0.268 NA 
HETATM   10  C   UNL     1      -9.773  16.361  66.739  1.00  0.00    -0.251 C  
HETATM   11  O   UNL     1      -9.001  16.765  67.589  1.00  0.00    -0.207 OA 
HETATM   12  N   UNL     1     -10.238  17.066  65.682  1.00  0.00    -0.599 NA 
HETATM   13  C   UNL     1     -11.101  16.310  64.946  1.00  0.00    -0.290 C  
HETATM   14  O   UNL     1     -11.574  16.639  63.870  1.00  0.00    -1.204 OA 
ENDBRANCH   6   8
ENDBRANCH   3   6
TORSDOF 2
ENDMDL
MODEL        6
REMARK 921   NORMALIZED FREE ENERGY PREDICTED BY IDOCK:   -4.95 KCAL/MOL
REMARK 922        TOTAL FREE ENERGY PREDICTED BY IDOCK:   -5.85 KCAL/MOL
REMARK 923 INTER-LIGAND FREE ENERGY PREDICTED BY IDOCK:   -5.57 KCAL/MOL
REMARK 924 INTRA-LIGAND FREE ENERGY PREDICTED BY IDOCK:   -0.29 KCAL/MOL
REMARK 927      BINDING AFFINITY PREDICTED BY RF-SCORE:    0.00 PKD
ROOT
HETATM    1  N   UNL     1     -12.448  14.802  63.718  1.00  0.00    -1.063 N  
HETATM    2  H1  UNL     1     -12.620  13.840  64.009  1.00  0.00     0.000 HD 
HETATM    3  C   UNL     1     -11.631  15.627  64.418  1.00  0.00    -0.249 C  
HETATM    4  H2  UNL     1     -12.905  15.154  62.877  1.00  0.00     0.000 HD 
HETATM    5  O   UNL     1     -11.426  16.779  64.069  1.00  0.00    -1.198 OA 
ENDROOT
BRANCH   3   6
HETATM    6  N   UNL     1     -11.119  15.035  65.531  1.00  0.00    -0.346 N  
HETATM    7  H   UNL     1     -10.127  15.109  65.755  1.00  0.00     0.000 HD 
BRANCH   6   8
HETATM    8  C   UNL     1     -12.011  14.307  66.379  1.00  0.00    -0.419 C  
HETATM    9  N   UNL     1     -11.818  12.896  66.255  1.00  0.00    -0.398 NA 
HETATM   10  C   UNL     1     -11.807  12.279  67.482  1.00  0.00    -0.261 C  
HETATM   11  O   UNL     1     -11.833  11.074  67.657  1.00  0.00    -0.599 OA 
HETATM   12  N   UNL     1     -11.753  13.225  68.448  1.00  0.00    -0.334 NA 
HETATM   13  C   UNL     1     -11.758  14.471  67.895  1.00  0.00    -0.351 C  
HETATM   14  O   UNL     1     -11.589  15.510  68.515  1.00  0.00    -0.348 OA 
ENDBRANCH   6   8
ENDBRANCH   3   6
TORSDOF 2
ENDMDL
MODEL        7
REMARK 921   NORMALIZED FREE ENERGY PREDICTED BY IDOCK:   -4.80 KCAL/MOL
REMARK 922        TOTAL FREE ENERGY PREDICTED BY IDOCK:   -5.69 KCAL/MOL
REMARK 923 INTER-LIGAND FREE ENERGY PREDICTED BY IDOCK:   -5.48 KCAL/MOL
REMARK 924 INTRA-LIGAND FREE ENERGY PREDICTED BY IDOCK:   -0.22 KCAL/MOL
REMARK 927      BINDING AFFINITY PREDICTED BY RF-SCORE:    0.00 PKD
ROOT
HETATM    1  N   UNL     1     -12.393  14.058  63.089  1.00  0.00    -1.094 N  
HETATM    2  H1  UNL     1     -11.663  14.770  63.123  1.00  0.00     0.000 HD 
HETATM    3  C   UNL     1     -12.159  12.775  63.458  1.00  0.00    -0.559 C  
HETATM    4  H2  UNL     1     -13.325  14.320  62.769  1.00  0.00     0.000 HD 
HETATM    5  O   UNL     1     -13.032  11.923  63.417  1.00  0.00    -0.730 OA 
ENDROOT
BRANCH   3   6
HETATM    6  N   UNL     1     -10.867  12.565  63.830  1.00  0.00    -0.398 N  
HETATM    7  H   UNL     1     -10.221  12.062  63.222  1.00  0.00     0.000 HD 
BRANCH   6   8
HETATM    8  C   UNL     1     -10.439  13.070  65.098  1.00  0.00    -0.320 C  
HETATM    9  N   UNL     1     -10.264  14.488  65.065  1.00  0.00    -0.402 NA 
HETATM   10  C   UNL     1     -10.805  15.088  66.177  1.00  0.00    -0.329 C  
HETATM   11  O   UNL     1     -10.646  16.255  66.486  1.00  0.00    -0.308 OA 
HETATM   12  N   UNL     1     -11.539  14.175  66.853  1.00  0.00    -0.371 NA 
HETATM   13  C   UNL     1     -11.481  12.963  66.235  1.00  0.00    -0.348 C  
HETATM   14  O   UNL     1     -12.146  11.987  66.547  1.00  0.00    -0.617 OA 
ENDBRANCH   6   8
ENDBRANCH   3   6
TORSDOF 2
ENDMDL
MODEL        8
REMARK 921   NORMALIZED FREE ENERGY PREDICTED BY IDOCK:   -4.75 KCAL/MOL
REMARK 922        TOTAL FREE ENERGY PREDICTED BY IDOCK:   -5.64 KCAL/MOL
REMARK 923 INTER-LIGAND FREE ENERGY PREDICTED BY IDOCK:   -5.33 KCAL/MOL
REMARK 924 INTRA-LIGAND FREE ENERGY PREDICTED BY IDOCK:   -0.31 KCAL/MOL
REMARK 927      BINDING AFFINITY PREDICTED BY RF-SCORE:    0.00 PKD
ROOT
HETATM    1  N   UNL     1      -9.845  14.422  68.266  1.00  0.00    -0.222 N  
HETATM    2  H1  UNL     1      -9.061  14.253  67.635  1.00  0.00     0.000 HD 
HETATM    3  C   UNL     1     -10.874  15.237  67.925  1.00  0.00    -0.288 C  
HETATM    4  H2  UNL     1      -9.854  13.966  69.178  1.00  0.00     0.000 HD 
HETATM    5  O   UNL     1     -11.812  15.440  68.680  1.00  0.00    -0.346 OA 
ENDROOT
BRANCH   3   6
HETATM    6  N   UNL     1     -10.710  15.801  66.698  1.00  0.00    -0.310 N  
HETATM    7  H   UNL     1     -10.501  16.794  66.601  1.00  0.00     0.000 HD 
BRANCH   6   8
HETATM    8  C   UNL     1     -10.839  14.962  65.547  1.00  0.00    -0.356 C  
HETATM    9  N   UNL     1     -11.583  13.778  65.841  1.00  0.00    -0.323 NA 
HETATM   10  C   UNL     1     -12.503  13.503  64.859  1.00  0.00    -0.384 C  
HETATM   11  O   UNL     1     -13.142  12.470  64.771  1.00  0.00    -0.853 OA 
HETATM   12  N   UNL     1     -12.582  14.564  64.023  1.00  0.00    -0.799 NA 
HETATM   13  C   UNL     1     -11.710  15.539  64.407  1.00  0.00    -0.242 C  
HETATM   14  O   UNL     1     -11.654  16.657  63.918  1.00  0.00    -1.204 OA 
ENDBRANCH   6   8
ENDBRANCH   3   6
TORSDOF 2
ENDMDL
MODEL        9
REMARK 921   NORMALIZED FREE ENERGY PREDICTED BY IDOCK:   -4.73 KCAL/MOL
REMARK 922        TOTAL FREE ENERGY PREDICTED BY IDOCK:   -5.62 KCAL/MOL
REMARK 923 INTER-LIGAND FREE ENERGY PREDICTED BY IDOCK:   -5.50 KCAL/MOL
REMARK 924 INTRA-LIGAND FREE ENERGY PREDICTED BY IDOCK:   -0.12 KCAL/MOL
REMARK 927      BINDING AFFINITY PREDICTED BY RF-SCORE:    0.00 PKD
ROOT
HETATM    1  N   UNL     1     -11.608  12.797  63.191  1.00  0.00    -0.817 N  
HETATM    2  H1  UNL     1     -11.161  13.472  62.570  1.00  0.00     0.000 HD 
HETATM    3  C   UNL     1     -12.349  13.186  64.258  1.00  0.00    -0.351 C  
HETATM    4  H2  UNL     1     -11.494  11.801  63.003  1.00  0.00     0.000 HD 
HETATM    5  O   UNL     1     -12.884  12.378  65.000  1.00  0.00    -0.673 OA 
ENDROOT
BRANCH   3   6
HETATM    6  N   UNL     1     -12.385  14.538  64.404  1.00  0.00    -0.635 N  
HETATM    7  H   UNL     1     -13.254  15.056  64.274  1.00  0.00     0.000 HD 
BRANCH   6   8
HETATM    8  C   UNL     1     -11.171  15.214  64.743  1.00  0.00    -0.388 C  
HETATM    9  N   UNL     1     -11.282  16.624  64.542  1.00  0.00    -0.982 NA 
HETATM   10  C   UNL     1     -10.749  17.327  65.595  1.00  0.00    -0.120 C  
HETATM   11  O   UNL     1     -10.556  18.529  65.605  1.00  0.00    -0.616 OA 
HETATM   12  N   UNL     1     -10.486  16.468  66.607  1.00  0.00    -0.290 NA 
HETATM   13  C   UNL     1     -10.806  15.193  66.246  1.00  0.00    -0.333 C  
HETATM   14  O   UNL     1     -10.796  14.231  66.998  1.00  0.00    -0.290 OA 
ENDBRANCH   6   8
ENDBRANCH   3   6
TORSDOF 2
ENDMDL
MODEL       10
REMARK 921   NORMALIZED FREE ENERGY PREDICTED BY IDOCK:   -4.73 KCAL/MOL
REMARK 922        TOTAL FREE ENERGY PREDICTED BY IDOCK:   -5.61 KCAL/MOL
REMARK 923 INTER-LIGAND FREE ENERGY PREDICTED BY IDOCK:   -5.47 KCAL/MOL
REMARK 924 INTRA-LIGAND FREE ENERGY PREDICTED BY IDOCK:   -0.15 KCAL/MOL
REMARK 927      BINDING AFFINITY PREDICTED BY RF-SCORE:    0.00 PKD
ROOT
HETATM    1  N   UNL     1      -8.300  11.622  66.035  1.00  0.00    -0.384 N  
HETATM    2  H1  UNL     1      -7.637  12.255  65.586  1.00  0.00     0.000 HD 
HETATM    3  C   UNL     1      -9.628  11.670  65.768  1.00  0.00    -0.232 C  
HETATM    4  H2  UNL     1      -7.952  10.934  66.703  1.00  0.00     0.000 HD 
HETATM    5  O   UNL     1     -10.421  10.913  66.306  1.00  0.00    -0.252 OA 
ENDROOT
BRANCH   3   6
HETATM    6  N   UNL     1      -9.949  12.655  64.886  1.00  0.00    -0.471 N  
HETATM    7  H   UNL     1      -9.516  12.694  63.964  1.00  0.00     0.000 HD 
BRANCH   6   8
HETATM    8  C   UNL     1     -10.911  13.634  65.288  1.00  0.00    -0.322 C  
HETATM    9  N   UNL     1     -10.452  14.961  65.021  1.00  0.00    -0.409 NA 
HETATM   10  C   UNL     1     -11.439  15.733  64.460  1.00  0.00    -0.289 C  
HETATM   11  O   UNL     1     -11.374  16.937  64.293  1.00  0.00    -1.202 OA 
HETATM   12  N   UNL     1     -12.479  14.935  64.120  1.00  0.00    -0.786 NA 
HETATM   13  C   UNL     1     -12.222  13.643  64.469  1.00  0.00    -0.401 C  
HETATM   14  O   UNL     1     -12.922  12.687  64.172  1.00  0.00    -0.717 OA 
ENDBRANCH   6   8
ENDBRANCH   3   6
TORSDOF 2
ENDMDL
MODEL       11
REMARK 921   NORMALIZED FREE ENERGY PREDICTED BY IDOCK:   -4.69 KCAL/MOL
REMARK 922        TOTAL FREE ENERGY PREDICTED BY IDOCK:   -5.57 KCAL/MOL
REMARK 923 INTER-LIGAND FREE ENERGY PREDICTED BY IDOCK:   -5.15 KCAL/MOL
REMARK 924 INTRA-LIGAND FREE ENERGY PREDICTED BY IDOCK:   -0.41 KCAL/MOL
REMARK 927      BINDING AFFINITY PREDICTED BY RF-SCORE:    0.00 PKD
ROOT
HETATM    1  N   UNL     1     -11.912  15.585  63.896  1.00  0.00    -0.986 N  
HETATM    2  H1  UNL     1     -12.471  15.350  63.076  1.00  0.00     0.000 HD 
HETATM    3  C   UNL     1     -12.013  14.887  65.054  1.00  0.00    -0.258 C  
HETATM    4  H2  UNL     1     -11.260  16.367  63.844  1.00  0.00     0.000 HD 
HETATM    5  O   UNL     1     -11.344  15.168  66.036  1.00  0.00    -0.318 OA 
ENDROOT
BRANCH   3   6
HETATM    6  N   UNL     1     -12.943  13.897  64.989  1.00  0.00    -0.752 N  
HETATM    7  H   UNL     1     -13.925  14.085  65.191  1.00  0.00     0.000 HD 
BRANCH   6   8
HETATM    8  C   UNL     1     -12.507  12.583  64.628  1.00  0.00    -0.463 C  
HETATM    9  N   UNL     1     -11.614  12.614  63.514  1.00  0.00    -0.499 NA 
HETATM   10  C   UNL     1     -10.531  11.792  63.712  1.00  0.00    -0.416 C  
HETATM   11  O   UNL     1      -9.713  11.499  62.860  1.00  0.00    -0.372 OA 
HETATM   12  N   UNL     1     -10.526  11.378  65.000  1.00  0.00    -0.290 NA 
HETATM   13  C   UNL     1     -11.602  11.883  65.668  1.00  0.00    -0.210 C  
HETATM   14  O   UNL     1     -11.787  11.782  66.871  1.00  0.00    -0.591 OA 
ENDBRANCH   6   8
ENDBRANCH   3   6
TORSDOF 2
ENDMDL
MODEL       12
REMARK 921   NORMALIZED FREE ENERGY PREDICTED BY IDOCK:   -4.66 KCAL/MOL
REMARK 922        TOTAL FREE ENERGY PREDICTED BY IDOCK:   -5.54 KCAL/MOL
REMARK 923 INTER-LIGAND FREE ENERGY PREDICTED BY IDOCK:   -5.19 KCAL/MOL
REMARK 924 INTRA-LIGAND FREE ENERGY PREDICTED BY IDOCK:   -0.34 KCAL/MOL
REMARK 927      BINDING AFFINITY PREDICTED BY RF-SCORE:    0.00 PKD
ROOT
HETATM    1  N   UNL     1     -10.039  15.223  70.164  1.00  0.00    -0.500 N  
HETATM    2  H1  UNL     1      -9.868  14.908  71.119  1.00  0.00     0.000 HD 
HETATM    3  C   UNL     1     -11.126  15.966  69.839  1.00  0.00    -0.343 C  
HETATM    4  H2  UNL     1      -9.373  14.972  69.433  1.00  0.00     0.000 HD 
HETATM    5  O   UNL     1     -11.330  16.343  68.696  1.00  0.00    -0.355 OA 
ENDROOT
BRANCH   3   6
HETATM    6  N   UNL     1     -11.940  16.195  70.904  1.00  0.00    -0.548 N  
HETATM    7  H   UNL     1     -11.747  16.954  71.558  1.00  0.00     0.000 HD 
BRANCH   6   8
HETATM    8  C   UNL     1     -13.075  15.344  71.082  1.00  0.00    -0.498 C  
HETATM    9  N   UNL     1     -12.740  13.972  70.868  1.00  0.00    -0.345 NA 
HETATM   10  C   UNL     1     -13.286  13.162  71.834  1.00  0.00    -0.431 C  
HETATM   11  O   UNL     1     -13.304  11.945  71.797  1.00  0.00    -0.403 OA 
HETATM   12  N   UNL     1     -13.785  13.938  72.825  1.00  0.00    -0.702 NA 
HETATM   13  C   UNL     1     -13.612  15.257  72.530  1.00  0.00    -0.510 C  
HETATM   14  O   UNL     1     -13.847  16.180  73.295  1.00  0.00    -0.559 OA 
ENDBRANCH   6   8
ENDBRANCH   3   6
TORSDOF 2
ENDMDL
MODEL       13
REMARK 921   NORMALIZED FREE ENERGY PREDICTED BY IDOCK:   -4.65 KCAL/MOL
REMARK 922        TOTAL FREE ENERGY PREDICTED BY IDOCK:   -5.52 KCAL/MOL
REMARK 923 INTER-LIGAND FREE ENERGY PREDICTED BY IDOCK:   -5.23 KCAL/MOL
REMARK 924 INTRA-LIGAND FREE ENERGY PREDICTED BY IDOCK:   -0.29 KCAL/MOL
REMARK 927      BINDING AFFINITY PREDICTED BY RF-SCORE:    0.00 PKD
ROOT
HETATM    1  N   UNL     1     -12.241  14.171  63.446  1.00  0.00    -1.099 N  
HETATM    2  H1  UNL     1     -12.119  14.937  64.109  1.00  0.00     0.000 HD 
HETATM    3  C   UNL     1     -12.648  12.940  63.843  1.00  0.00    -0.247 C  
HETATM    4  H2  UNL     1     -12.052  14.336  62.458  1.00  0.00     0.000 HD 
HETATM    5  O   UNL     1     -12.794  12.023  63.050  1.00  0.00    -0.537 OA 
ENDROOT
BRANCH   3   6
HETATM    6  N   UNL     1     -12.829  12.857  65.189  1.00  0.00    -0.619 N  
HETATM    7  H   UNL     1     -13.720  12.552  65.580  1.00  0.00     0.000 HD 
BRANCH   6   8
HETATM    8  C   UNL     1     -11.736  13.211  66.040  1.00  0.00    -0.379 C  
HETATM    9  N   UNL     1     -11.820  14.573  66.463  1.00  0.00    -0.377 NA 
HETATM   10  C   UNL     1     -11.553  14.702  67.805  1.00  0.00    -0.359 C  
HETATM   11  O   UNL     1     -11.386  15.760  68.384  1.00  0.00    -0.344 OA 
HETATM   12  N   UNL     1     -11.516  13.471  68.364  1.00  0.00    -0.289 NA 
HETATM   13  C   UNL     1     -11.724  12.511  67.419  1.00  0.00    -0.366 C  
HETATM   14  O   UNL     1     -11.872  11.321  67.653  1.00  0.00    -0.614 OA 
ENDBRANCH   6   8
ENDBRANCH   3   6
TORSDOF 2
ENDMDL
MODEL       14
REMARK 921   NORMALIZED FREE ENERGY PREDICTED BY IDOCK:   -4.62 KCAL/MOL
REMARK 922        TOTAL FREE ENERGY PREDICTED BY IDOCK:   -5.49 KCAL/MOL
REMARK 923 INTER-LIGAND FREE ENERGY PREDICTED BY IDOCK:   -5.34 KCAL/MOL
REMARK 924 INTRA-LIGAND FREE ENERGY PREDICTED BY IDOCK:   -0.15 KCAL/MOL
REMARK 927      BINDING AFFINITY PREDICTED BY RF-SCORE:    0.00 PKD
ROOT
HETATM    1  N   UNL     1     -11.725  12.593  68.887  1.00  0.00    -0.311 N  
HETATM    2  H1  UNL     1     -11.567  13.583  69.073  1.00  0.00     0.000 HD 
HETATM    3  C   UNL     1     -11.475  12.044  67.672  1.00  0.00    -0.322 C  
HETATM    4  H2  UNL     1     -12.081  11.999  69.635  1.00  0.00     0.000 HD 
HETATM    5  O   UNL     1     -11.664  10.858  67.450  1.00  0.00    -0.510 OA 
ENDROOT
BRANCH   3   6
HETATM    6  N   UNL     1     -11.037  12.958  66.765  1.00  0.00    -0.273 N  
HETATM    7  H   UNL     1     -10.048  13.025  66.524  1.00  0.00     0.000 HD 
BRANCH   6   8
HETATM    8  C   UNL     1     -12.001  13.823  66.159  1.00  0.00    -0.418 C  
HETATM    9  N   UNL     1     -11.393  15.012  65.651  1.00  0.00    -0.330 NA 
HETATM   10  C   UNL     1     -11.862  15.322  64.397  1.00  0.00    -0.281 C  
HETATM   11  O   UNL     1     -11.644  16.366  63.810  1.00  0.00    -1.055 OA 
HETATM   12  N   UNL     1     -12.589  14.280  63.931  1.00  0.00    -0.787 NA 
HETATM   13  C   UNL     1     -12.643  13.284  64.860  1.00  0.00    -0.384 C  
HETATM   14  O   UNL     1     -13.120  12.176  64.668  1.00  0.00    -0.673 OA 
ENDBRANCH   6   8
ENDBRANCH   3   6
TORSDOF 2
ENDMDL
MODEL       15
REMARK 921   NORMALIZED FREE ENERGY PREDICTED BY IDOCK:   -4.60 KCAL/MOL
REMARK 922        TOTAL FREE ENERGY PREDICTED BY IDOCK:   -5.46 KCAL/MOL
REMARK 923 INTER-LIGAND FREE ENERGY PREDICTED BY IDOCK:   -5.03 KCAL/MOL
REMARK 924 INTRA-LIGAND FREE ENERGY PREDICTED BY IDOCK:   -0.43 KCAL/MOL
REMARK 927      BINDING AFFINITY PREDICTED BY RF-SCORE:    0.00 PKD
ROOT
HETATM    1  N   UNL     1     -12.390  14.243  63.331  1.00  0.00    -1.126 N  
HETATM    2  H1  UNL     1     -11.730  15.000  63.509  1.00  0.00     0.000 HD 
HETATM    3  C   UNL     1     -12.027  12.940  63.424  1.00  0.00    -0.537 C  
HETATM    4  H2  UNL     1     -13.350  14.473  63.075  1.00  0.00     0.000 HD 
HETATM    5  O   UNL     1     -12.817  12.034  63.211  1.00  0.00    -0.732 OA 
ENDROOT
BRANCH   3   6
HETATM    6  N   UNL     1     -10.712  12.785  63.740  1.00  0.00    -0.478 N  
HETATM    7  H   UNL     1      -9.998  12.761  63.012  1.00  0.00     0.000 HD 
BRANCH   6   8
HETATM    8  C   UNL     1     -10.360  12.658  65.120  1.00  0.00    -0.292 C  
HETATM    9  N   UNL     1     -11.189  13.474  65.950  1.00  0.00    -0.299 NA 
HETATM   10  C   UNL     1     -11.608  12.793  67.067  1.00  0.00    -0.360 C  
HETATM   11  O   UNL     1     -12.176  13.298  68.019  1.00  0.00    -0.275 OA 
HETATM   12  N   UNL     1     -11.296  11.484  66.926  1.00  0.00    -0.420 NA 
HETATM   13  C   UNL     1     -10.646  11.274  65.747  1.00  0.00    -0.248 C  
HETATM   14  O   UNL     1     -10.357  10.177  65.295  1.00  0.00    -0.266 OA 
ENDBRANCH   6   8
ENDBRANCH   3   6
TORSDOF 2
ENDMDL
MODEL       16
REMARK 921   NORMALIZED FREE ENERGY PREDICTED BY IDOCK:   -4.56 KCAL/MOL
REMARK 922        TOTAL FREE ENERGY PREDICTED BY IDOCK:   -5.43 KCAL/MOL
REMARK 923 INTER-LIGAND FREE ENERGY PREDICTED BY IDOCK:   -5.45 KCAL/MOL
REMARK 924 INTRA-LIGAND FREE ENERGY PREDICTED BY IDOCK:    0.02 KCAL/MOL
REMARK 927      BINDING AFFINITY PREDICTED BY RF-SCORE:    0.00 PKD
ROOT
HETATM    1  N   UNL     1     -12.633  14.719  63.873  1.00  0.00    -0.973 N  
HETATM    2  H1  UNL     1     -12.576  13.701  63.914  1.00  0.00     0.000 HD 
HETATM    3  C   UNL     1     -11.589  15.510  64.221  1.00  0.00    -0.194 C  
HETATM    4  H2  UNL     1     -13.502  15.153  63.562  1.00  0.00     0.000 HD 
HETATM    5  O   UNL     1     -11.658  16.728  64.173  1.00  0.00    -1.106 OA 
ENDROOT
BRANCH   3   6
HETATM    6  N   UNL     1     -10.512  14.796  64.647  1.00  0.00    -0.555 N  
HETATM    7  H   UNL     1      -9.755  14.557  64.007  1.00  0.00     0.000 HD 
BRANCH   6   8
HETATM    8  C   UNL     1     -10.469  14.390  66.018  1.00  0.00    -0.301 C  
HETATM    9  N   UNL     1     -10.591  15.507  66.900  1.00  0.00    -0.304 NA 
HETATM   10  C   UNL     1     -11.462  15.245  67.929  1.00  0.00    -0.316 C  
HETATM   11  O   UNL     1     -11.616  15.951  68.909  1.00  0.00    -0.371 OA 
HETATM   12  N   UNL     1     -12.115  14.090  67.667  1.00  0.00    -0.363 NA 
HETATM   13  C   UNL     1     -11.679  13.552  66.493  1.00  0.00    -0.371 C  
HETATM   14  O   UNL     1     -12.177  12.582  65.942  1.00  0.00    -0.593 OA 
ENDBRANCH   6   8
ENDBRANCH   3   6
TORSDOF 2
ENDMDL
MODEL       17
REMARK 921   NORMALIZED FREE ENERGY PREDICTED BY IDOCK:   -4.53 KCAL/MOL
REMARK 922        TOTAL FREE ENERGY PREDICTED BY IDOCK:   -5.39 KCAL/MOL
REMARK 923 INTER-LIGAND FREE ENERGY PREDICTED BY IDOCK:   -5.06 KCAL/MOL
REMARK 924 INTRA-LIGAND FREE ENERGY PREDICTED BY IDOCK:   -0.34 KCAL/MOL
REMARK 927      BINDING AFFINITY PREDICTED BY RF-SCORE:    0.00 PKD
ROOT
HETATM    1  N   UNL     1      -9.543  11.762  63.455  1.00  0.00    -0.537 N  
HETATM    2  H1  UNL     1      -9.204  12.689  63.199  1.00  0.00     0.000 HD 
HETATM    3  C   UNL     1      -9.799  11.425  64.743  1.00  0.00    -0.259 C  
HETATM    4  H2  UNL     1      -9.694  11.069  62.722  1.00  0.00     0.000 HD 
HETATM    5  O   UNL     1     -10.204  10.315  65.051  1.00  0.00    -0.320 OA 
ENDROOT
BRANCH   3   6
HETATM    6  N   UNL     1      -9.522  12.434  65.613  1.00  0.00    -0.435 N  
HETATM    7  H   UNL     1      -8.629  12.472  66.105  1.00  0.00     0.000 HD 
BRANCH   6   8
HETATM    8  C   UNL     1     -10.517  13.440  65.819  1.00  0.00    -0.290 C  
HETATM    9  N   UNL     1     -10.794  14.158  64.616  1.00  0.00    -0.405 NA 
HETATM   10  C   UNL     1     -12.144  14.331  64.431  1.00  0.00    -0.468 C  
HETATM   11  O   UNL     1     -12.646  15.051  63.587  1.00  0.00    -0.680 OA 
HETATM   12  N   UNL     1     -12.811  13.570  65.330  1.00  0.00    -0.704 NA 
HETATM   13  C   UNL     1     -11.934  12.908  66.136  1.00  0.00    -0.429 C  
HETATM   14  O   UNL     1     -12.244  12.053  66.952  1.00  0.00    -0.529 OA 
ENDBRANCH   6   8
ENDBRANCH   3   6
TORSDOF 2
ENDMDL
MODEL       18
REMARK 921   NORMALIZED FREE ENERGY PREDICTED BY IDOCK:   -4.53 KCAL/MOL
REMARK 922        TOTAL FREE ENERGY PREDICTED BY IDOCK:   -5.39 KCAL/MOL
REMARK 923 INTER-LIGAND FREE ENERGY PREDICTED BY IDOCK:   -5.14 KCAL/MOL
REMARK 924 INTRA-LIGAND FREE ENERGY PREDICTED BY IDOCK:   -0.25 KCAL/MOL
REMARK 927      BINDING AFFINITY PREDICTED BY RF-SCORE:    0.00 PKD
ROOT
HETATM    1  N   UNL     1     -12.341  14.027  63.265  1.00  0.00    -1.145 N  
HETATM    2  H1  UNL     1     -11.806  14.744  63.756  1.00  0.00     0.000 HD 
HETATM    3  C   UNL     1     -12.387  12.744  63.701  1.00  0.00    -0.463 C  
HETATM    4  H2  UNL     1     -12.855  14.284  62.423  1.00  0.00     0.000 HD 
HETATM    5  O   UNL     1     -13.027  11.886  63.113  1.00  0.00    -0.640 OA 
ENDROOT
BRANCH   3   6
HETATM    6  N   UNL     1     -11.629  12.542  64.812  1.00  0.00    -0.324 N  
HETATM    7  H   UNL     1     -10.720  12.084  64.751  1.00  0.00     0.000 HD 
BRANCH   6   8
HETATM    8  C   UNL     1     -12.142  12.989  66.070  1.00  0.00    -0.432 C  
HETATM    9  N   UNL     1     -11.890  12.039  67.107  1.00  0.00    -0.604 NA 
HETATM   10  C   UNL     1     -11.437  12.649  68.252  1.00  0.00    -0.313 C  
HETATM   11  O   UNL     1     -11.313  12.101  69.332  1.00  0.00    -0.264 OA 
HETATM   12  N   UNL     1     -11.150  13.942  67.974  1.00  0.00    -0.251 NA 
HETATM   13  C   UNL     1     -11.428  14.223  66.670  1.00  0.00    -0.364 C  
HETATM   14  O   UNL     1     -11.150  15.270  66.107  1.00  0.00    -0.336 OA 
ENDBRANCH   6   8
ENDBRANCH   3   6
TORSDOF 2
ENDMDL
MODEL       19
REMARK 921   NORMALIZED FREE ENERGY PREDICTED BY IDOCK:   -4.47 KCAL/MOL
REMARK 922        TOTAL FREE ENERGY PREDICTED BY IDOCK:   -5.32 KCAL/MOL
REMARK 923 INTER-LIGAND FREE ENERGY PREDICTED BY IDOCK:   -5.17 KCAL/MOL
REMARK 924 INTRA-LIGAND FREE ENERGY PREDICTED BY IDOCK:   -0.15 KCAL/MOL
REMARK 927      BINDING AFFINITY PREDICTED BY RF-SCORE:    0.00 PKD
ROOT
HETATM    1  N   UNL     1     -11.419  13.027  69.763  1.00  0.00    -0.496 N  
HETATM    2  H1  UNL     1     -11.459  12.795  70.755  1.00  0.00     0.000 HD 
HETATM    3  C   UNL     1     -12.014  14.138  69.262  1.00  0.00    -0.340 C  
HETATM    4  H2  UNL     1     -10.918  12.405  69.129  1.00  0.00     0.000 HD 
HETATM    5  O   UNL     1     -11.966  14.415  68.074  1.00  0.00    -0.334 OA 
ENDROOT
BRANCH   3   6
HETATM    6  N   UNL     1     -12.671  14.853  70.215  1.00  0.00    -0.541 N  
HETATM    7  H   UNL     1     -13.463  15.448  69.971  1.00  0.00     0.000 HD 
BRANCH   6   8
HETATM    8  C   UNL     1     -12.223  14.747  71.569  1.00  0.00    -0.347 C  
HETATM    9  N   UNL     1     -11.932  16.030  72.127  1.00  0.00    -0.498 NA 
HETATM   10  C   UNL     1     -12.439  16.154  73.398  1.00  0.00    -0.555 C  
HETATM   11  O   UNL     1     -12.190  17.068  74.162  1.00  0.00    -0.445 OA 
HETATM   12  N   UNL     1     -13.257  15.105  73.647  1.00  0.00    -0.406 NA 
HETATM   13  C   UNL     1     -13.289  14.260  72.578  1.00  0.00    -0.500 C  
HETATM   14  O   UNL     1     -14.036  13.301  72.468  1.00  0.00    -0.709 OA 
ENDBRANCH   6   8
ENDBRANCH   3   6
TORSDOF 2
ENDMDL
MODEL       20
REMARK 921   NORMALIZED FREE ENERGY PREDICTED BY IDOCK:   -4.46 KCAL/MOL
REMARK 922        TOTAL FREE ENERGY PREDICTED BY IDOCK:   -5.31 KCAL/MOL
REMARK 923 INTER-LIGAND FREE ENERGY PREDICTED BY IDOCK:   -4.95 KCAL/MOL
REMARK 924 INTRA-LIGAND FREE ENERGY PREDICTED BY IDOCK:   -0.36 KCAL/MOL
REMARK 927      BINDING AFFINITY PREDICTED BY RF-SCORE:    0.00 PKD
ROOT
HETATM    1  N   UNL     1     -12.303  13.798  63.111  1.00  0.00    -1.106 N  
HETATM    2  H1  UNL     1     -12.504  12.805  63.236  1.00  0.00     0.000 HD 
HETATM    3  C   UNL     1     -12.512  14.700  64.102  1.00  0.00    -0.147 C  
HETATM    4  H2  UNL     1     -11.935  14.120  62.216  1.00  0.00     0.000 HD 
HETATM    5  O   UNL     1     -12.271  15.887  63.953  1.00  0.00    -0.785 OA 
ENDROOT
BRANCH   3   6
HETATM    6  N   UNL     1     -13.035  14.134  65.223  1.00  0.00    -0.735 N  
HETATM    7  H   UNL     1     -14.037  14.170  65.410  1.00  0.00     0.000 HD 
BRANCH   6   8
HETATM    8  C   UNL     1     -12.141  13.486  66.132  1.00  0.00    -0.436 C  
HETATM    9  N   UNL     1     -11.450  12.403  65.507  1.00  0.00    -0.346 NA 
HETATM   10  C   UNL     1     -10.114  12.407  65.824  1.00  0.00    -0.253 C  
HETATM   11  O   UNL     1      -9.334  11.506  65.571  1.00  0.00    -0.223 OA 
HETATM   12  N   UNL     1      -9.815  13.569  66.449  1.00  0.00    -0.289 NA 
HETATM   13  C   UNL     1     -10.933  14.338  66.586  1.00  0.00    -0.310 C  
HETATM   14  O   UNL     1     -10.943  15.488  66.995  1.00  0.00    -0.321 OA 
ENDBRANCH   6   8
ENDBRANCH   3   6
TORSDOF 2
ENDMDL
MODEL       21
REMARK 921   NORMALIZED FREE ENERGY PREDICTED BY IDOCK:   -4.45 KCAL/MOL
REMARK 922        TOTAL FREE ENERGY PREDICTED BY IDOCK:   -5.30 KCAL/MOL
REMARK 923 INTER-LIGAND FREE ENERGY PREDICTED BY IDOCK:   -5.03 KCAL/MOL
REMARK 924 INTRA-LIGAND FREE ENERGY PREDICTED BY IDOCK:   -0.27 KCAL/MOL
REMARK 927      BINDING AFFINITY PREDICTED BY RF-SCORE:    0.00 PKD
ROOT
HETATM    1  N   UNL     1      -9.661  17.765  66.250  1.00  0.00    -0.274 N  
HETATM    2  H1  UNL     1     -10.551  18.085  65.868  1.00  0.00     0.000 HD 
HETATM    3  C   UNL     1      -9.498  16.506  66.726  1.00  0.00    -0.249 C  
HETATM    4  H2  UNL     1      -8.872  18.410  66.273  1.00  0.00     0.000 HD 
HETATM    5  O   UNL     1      -8.433  16.123  67.183  1.00  0.00    -0.170 OA 
ENDROOT
BRANCH   3   6
HETATM    6  N   UNL     1     -10.641  15.771  66.662  1.00  0.00    -0.310 N  
HETATM    7  H   UNL     1     -11.360  15.855  67.380  1.00  0.00     0.000 HD 
BRANCH   6   8
HETATM    8  C   UNL     1     -10.806  14.875  65.559  1.00  0.00    -0.356 C  
HETATM    9  N   UNL     1     -11.603  13.744  65.917  1.00  0.00    -0.323 NA 
HETATM   10  C   UNL     1     -12.533  13.456  64.948  1.00  0.00    -0.396 C  
HETATM   11  O   UNL     1     -13.218  12.449  64.916  1.00  0.00    -0.714 OA 
HETATM   12  N   UNL     1     -12.563  14.471  64.054  1.00  0.00    -0.799 NA 
HETATM   13  C   UNL     1     -11.649  15.425  64.385  1.00  0.00    -0.264 C  
HETATM   14  O   UNL     1     -11.541  16.510  63.835  1.00  0.00    -1.175 OA 
ENDBRANCH   6   8
ENDBRANCH   3   6
TORSDOF 2
ENDMDL
MODEL       22
REMARK 921   NORMALIZED FREE ENERGY PREDICTED BY IDOCK:   -4.44 KCAL/MOL
REMARK 922        TOTAL FREE ENERGY PREDICTED BY IDOCK:   -5.29 KCAL/MOL
REMARK 923 INTER-LIGAND FREE ENERGY PREDICTED BY IDOCK:   -4.95 KCAL/MOL
REMARK 924 INTRA-LIGAND FREE ENERGY PREDICTED BY IDOCK:   -0.34 KCAL/MOL
REMARK 927      BINDING AFFINITY PREDICTED BY RF-SCORE:    0.00 PKD
ROOT
HETATM    1  N   UNL     1     -11.945  16.610  73.175  1.00  0.00    -0.423 N  
HETATM    2  H1  UNL     1     -12.224  17.219  72.405  1.00  0.00     0.000 HD 
HETATM    3  C   UNL     1     -12.744  15.613  73.625  1.00  0.00    -0.596 C  
HETATM    4  H2  UNL     1     -11.038  16.758  73.618  1.00  0.00     0.000 HD 
HETATM    5  O   UNL     1     -12.409  14.885  74.547  1.00  0.00    -0.526 OA 
ENDROOT
BRANCH   3   6
HETATM    6  N   UNL     1     -13.932  15.556  72.965  1.00  0.00    -0.537 N  
HETATM    7  H   UNL     1     -14.780  15.946  73.376  1.00  0.00     0.000 HD 
BRANCH   6   8
HETATM    8  C   UNL     1     -13.960  14.934  71.677  1.00  0.00    -0.485 C  
HETATM    9  N   UNL     1     -13.164  15.650  70.732  1.00  0.00    -0.512 NA 
HETATM   10  C   UNL     1     -12.393  14.800  69.975  1.00  0.00    -0.316 C  
HETATM   11  O   UNL     1     -11.758  15.127  68.989  1.00  0.00    -0.308 OA 
HETATM   12  N   UNL     1     -12.453  13.560  70.512  1.00  0.00    -0.325 NA 
HETATM   13  C   UNL     1     -13.273  13.550  71.601  1.00  0.00    -0.366 C  
HETATM   14  O   UNL     1     -13.417  12.603  72.358  1.00  0.00    -0.550 OA 
ENDBRANCH   6   8
ENDBRANCH   3   6
TORSDOF 2
ENDMDL
MODEL       23
REMARK 921   NORMALIZED FREE ENERGY PREDICTED BY IDOCK:   -4.43 KCAL/MOL
REMARK 922        TOTAL FREE ENERGY PREDICTED BY IDOCK:   -5.28 KCAL/MOL
REMARK 923 INTER-LIGAND FREE ENERGY PREDICTED BY IDOCK:   -4.99 KCAL/MOL
REMARK 924 INTRA-LIGAND FREE ENERGY PREDICTED BY IDOCK:   -0.29 KCAL/MOL
REMARK 927      BINDING AFFINITY PREDICTED BY RF-SCORE:    0.00 PKD
ROOT
HETATM    1  N   UNL     1     -12.362  14.045  63.267  1.00  0.00    -1.145 N  
HETATM    2  H1  UNL     1     -12.104  15.031  63.306  1.00  0.00     0.000 HD 
HETATM    3  C   UNL     1     -12.743  13.360  64.373  1.00  0.00    -0.088 C  
HETATM    4  H2  UNL     1     -12.332  13.560  62.370  1.00  0.00     0.000 HD 
HETATM    5  O   UNL     1     -13.051  12.180  64.327  1.00  0.00    -0.723 OA 
ENDROOT
BRANCH   3   6
HETATM    6  N   UNL     1     -12.703  14.123  65.500  1.00  0.00    -0.572 N  
HETATM    7  H   UNL     1     -13.559  14.500  65.908  1.00  0.00     0.000 HD 
BRANCH   6   8
HETATM    8  C   UNL     1     -11.429  14.381  66.096  1.00  0.00    -0.357 C  
HETATM    9  N   UNL     1     -10.755  15.460  65.446  1.00  0.00    -0.373 NA 
HETATM   10  C   UNL     1     -10.194  16.324  66.355  1.00  0.00    -0.313 C  
HETATM   11  O   UNL     1      -9.422  17.224  66.077  1.00  0.00    -0.462 OA 
HETATM   12  N   UNL     1     -10.645  16.013  67.592  1.00  0.00    -0.304 NA 
HETATM   13  C   UNL     1     -11.479  14.936  67.538  1.00  0.00    -0.348 C  
HETATM   14  O   UNL     1     -12.134  14.512  68.478  1.00  0.00    -0.304 OA 
ENDBRANCH   6   8
ENDBRANCH   3   6
TORSDOF 2
ENDMDL
MODEL       24
REMARK 921   NORMALIZED FREE ENERGY PREDICTED BY IDOCK:   -4.39 KCAL/MOL
REMARK 922        TOTAL FREE ENERGY PREDICTED BY IDOCK:   -5.23 KCAL/MOL
REMARK 923 INTER-LIGAND FREE ENERGY PREDICTED BY IDOCK:   -5.06 KCAL/MOL
REMARK 924 INTRA-LIGAND FREE ENERGY PREDICTED BY IDOCK:   -0.17 KCAL/MOL
REMARK 927      BINDING AFFINITY PREDICTED BY RF-SCORE:    0.00 PKD
ROOT
HETATM    1  N   UNL     1     -11.206  11.317  63.178  1.00  0.00    -0.845 N  
HETATM    2  H1  UNL     1     -12.086  11.631  63.588  1.00  0.00     0.000 HD 
HETATM    3  C   UNL     1     -10.061  12.032  63.306  1.00  0.00    -0.345 C  
HETATM    4  H2  UNL     1     -11.188  10.441  62.657  1.00  0.00     0.000 HD 
HETATM    5  O   UNL     1      -9.008  11.656  62.815  1.00  0.00    -0.283 OA 
ENDROOT
BRANCH   3   6
HETATM    6  N   UNL     1     -10.243  13.191  63.995  1.00  0.00    -0.627 N  
HETATM    7  H   UNL     1     -10.069  14.095  63.555  1.00  0.00     0.000 HD 
BRANCH   6   8
HETATM    8  C   UNL     1     -10.684  13.108  65.353  1.00  0.00    -0.294 C  
HETATM    9  N   UNL     1     -10.184  14.195  66.134  1.00  0.00    -0.295 NA 
HETATM   10  C   UNL     1     -11.160  14.728  66.940  1.00  0.00    -0.339 C  
HETATM   11  O   UNL     1     -10.967  15.541  67.825  1.00  0.00    -0.301 OA 
HETATM   12  N   UNL     1     -12.357  14.209  66.580  1.00  0.00    -0.442 NA 
HETATM   13  C   UNL     1     -12.202  13.312  65.565  1.00  0.00    -0.457 C  
HETATM   14  O   UNL     1     -13.118  12.784  64.953  1.00  0.00    -0.833 OA 
ENDBRANCH   6   8
ENDBRANCH   3   6
TORSDOF 2
ENDMDL
MODEL       25
REMARK 921   NORMALIZED FREE ENERGY PREDICTED BY IDOCK:   -4.37 KCAL/MOL
REMARK 922        TOTAL FREE ENERGY PREDICTED BY IDOCK:   -5.21 KCAL/MOL
REMARK 923 INTER-LIGAND FREE ENERGY PREDICTED BY IDOCK:   -5.38 KCAL/MOL
REMARK 924 INTRA-LIGAND FREE ENERGY PREDICTED BY IDOCK:    0.17 KCAL/MOL
REMARK 927      BINDING AFFINITY PREDICTED BY RF-SCORE:    0.00 PKD
ROOT
HETATM    1  N   UNL     1      -9.790  13.981  65.024  1.00  0.00    -0.588 N  
HETATM    2  H1  UNL     1     -10.199  13.385  64.304  1.00  0.00     0.000 HD 
HETATM    3  C   UNL     1     -10.241  15.238  65.254  1.00  0.00    -0.364 C  
HETATM    4  H2  UNL     1      -9.019  13.620  65.586  1.00  0.00     0.000 HD 
HETATM    5  O   UNL     1      -9.751  15.952  66.115  1.00  0.00    -0.274 OA 
ENDROOT
BRANCH   3   6
HETATM    6  N   UNL     1     -11.247  15.595  64.409  1.00  0.00    -0.748 N  
HETATM    7  H   UNL     1     -11.168  16.425  63.821  1.00  0.00     0.000 HD 
BRANCH   6   8
HETATM    8  C   UNL     1     -12.418  14.776  64.369  1.00  0.00    -0.252 C  
HETATM    9  N   UNL     1     -12.337  13.796  63.332  1.00  0.00    -0.765 NA 
HETATM   10  C   UNL     1     -12.752  12.562  63.770  1.00  0.00    -0.311 C  
HETATM   11  O   UNL     1     -12.948  11.597  63.054  1.00  0.00    -0.423 OA 
HETATM   12  N   UNL     1     -12.896  12.601  65.115  1.00  0.00    -0.743 NA 
HETATM   13  C   UNL     1     -12.612  13.847  65.590  1.00  0.00    -0.517 C  
HETATM   14  O   UNL     1     -12.534  14.142  66.772  1.00  0.00    -0.396 OA 
ENDBRANCH   6   8
ENDBRANCH   3   6
TORSDOF 2
ENDMDL
MODEL       26
REMARK 921   NORMALIZED FREE ENERGY PREDICTED BY IDOCK:   -4.31 KCAL/MOL
REMARK 922        TOTAL FREE ENERGY PREDICTED BY IDOCK:   -5.15 KCAL/MOL
REMARK 923 INTER-LIGAND FREE ENERGY PREDICTED BY IDOCK:   -4.87 KCAL/MOL
REMARK 924 INTRA-LIGAND FREE ENERGY PREDICTED BY IDOCK:   -0.28 KCAL/MOL
REMARK 927      BINDING AFFINITY PREDICTED BY RF-SCORE:    0.00 PKD
ROOT
HETATM    1  N   UNL     1      -9.570  12.315  64.117  1.00  0.00    -0.533 N  
HETATM    2  H1  UNL     1      -9.777  13.282  63.863  1.00  0.00     0.000 HD 
HETATM    3  C   UNL     1     -10.522  11.351  64.099  1.00  0.00    -0.363 C  
HETATM    4  H2  UNL     1      -8.619  12.069  64.391  1.00  0.00     0.000 HD 
HETATM    5  O   UNL     1     -10.275  10.195  64.402  1.00  0.00    -0.221 OA 
ENDROOT
BRANCH   3   6
HETATM    6  N   UNL     1     -11.746  11.831  63.747  1.00  0.00    -0.430 N  
HETATM    7  H   UNL     1     -12.091  11.737  62.792  1.00  0.00     0.000 HD 
BRANCH   6   8
HETATM    8  C   UNL     1     -12.535  12.471  64.753  1.00  0.00    -0.457 C  
HETATM    9  N   UNL     1     -12.019  12.223  66.062  1.00  0.00    -0.609 NA 
HETATM   10  C   UNL     1     -11.998  13.367  66.821  1.00  0.00    -0.394 C  
HETATM   11  O   UNL     1     -11.771  13.407  68.017  1.00  0.00    -0.315 OA 
HETATM   12  N   UNL     1     -12.260  14.428  66.023  1.00  0.00    -0.373 NA 
HETATM   13  C   UNL     1     -12.486  14.017  64.743  1.00  0.00    -0.365 C  
HETATM   14  O   UNL     1     -12.620  14.761  63.784  1.00  0.00    -0.806 OA 
ENDBRANCH   6   8
ENDBRANCH   3   6
TORSDOF 2
ENDMDL
MODEL       27
REMARK 921   NORMALIZED FREE ENERGY PREDICTED BY IDOCK:   -4.31 KCAL/MOL
REMARK 922        TOTAL FREE ENERGY PREDICTED BY IDOCK:   -5.14 KCAL/MOL
REMARK 923 INTER-LIGAND FREE ENERGY PREDICTED BY IDOCK:   -4.83 KCAL/MOL
REMARK 924 INTRA-LIGAND FREE ENERGY PREDICTED BY IDOCK:   -0.31 KCAL/MOL
REMARK 927      BINDING AFFINITY PREDICTED BY RF-SCORE:    0.00 PKD
ROOT
HETATM    1  N   UNL     1     -10.070  14.181  68.971  1.00  0.00    -0.401 N  
HETATM    2  H1  UNL     1      -9.581  13.880  68.127  1.00  0.00     0.000 HD 
HETATM    3  C   UNL     1     -11.057  15.109  68.933  1.00  0.00    -0.270 C  
HETATM    4  H2  UNL     1      -9.808  13.772  69.867  1.00  0.00     0.000 HD 
HETATM    5  O   UNL     1     -11.643  15.469  69.942  1.00  0.00    -0.284 OA 
ENDROOT
BRANCH   3   6
HETATM    6  N   UNL     1     -11.275  15.590  67.679  1.00  0.00    -0.316 N  
HETATM    7  H   UNL     1     -11.595  16.548  67.533  1.00  0.00     0.000 HD 
BRANCH   6   8
HETATM    8  C   UNL     1     -11.043  14.717  66.570  1.00  0.00    -0.329 C  
HETATM    9  N   UNL     1     -12.046  13.703  66.483  1.00  0.00    -0.421 NA 
HETATM   10  C   UNL     1     -12.480  13.532  65.191  1.00  0.00    -0.451 C  
HETATM   11  O   UNL     1     -13.196  12.624  64.810  1.00  0.00    -0.846 OA 
HETATM   12  N   UNL     1     -11.989  14.536  64.428  1.00  0.00    -0.463 NA 
HETATM   13  C   UNL     1     -11.208  15.365  65.176  1.00  0.00    -0.350 C  
HETATM   14  O   UNL     1     -10.739  16.423  64.786  1.00  0.00    -0.700 OA 
ENDBRANCH   6   8
ENDBRANCH   3   6
TORSDOF 2
ENDMDL
MODEL       28
REMARK 921   NORMALIZED FREE ENERGY PREDICTED BY IDOCK:   -4.28 KCAL/MOL
REMARK 922        TOTAL FREE ENERGY PREDICTED BY IDOCK:   -5.11 KCAL/MOL
REMARK 923 INTER-LIGAND FREE ENERGY PREDICTED BY IDOCK:   -4.95 KCAL/MOL
REMARK 924 INTRA-LIGAND FREE ENERGY PREDICTED BY IDOCK:   -0.16 KCAL/MOL
REMARK 927      BINDING AFFINITY PREDICTED BY RF-SCORE:    0.00 PKD
ROOT
HETATM    1  N   UNL     1      -8.374  11.376  62.824  1.00  0.00    -0.467 N  
HETATM    2  H1  UNL     1      -8.512  12.343  63.121  1.00  0.00     0.000 HD 
HETATM    3  C   UNL     1      -9.412  10.514  62.690  1.00  0.00    -0.296 C  
HETATM    4  H2  UNL     1      -7.429  11.050  62.623  1.00  0.00     0.000 HD 
HETATM    5  O   UNL     1      -9.247   9.357  62.335  1.00  0.00    -0.258 OA 
ENDROOT
BRANCH   3   6
HETATM    6  N   UNL     1     -10.605  11.076  63.024  1.00  0.00    -0.805 N  
HETATM    7  H   UNL     1     -11.468  10.789  62.560  1.00  0.00     0.000 HD 
BRANCH   6   8
HETATM    8  C   UNL     1     -10.618  12.080  64.042  1.00  0.00    -0.377 C  
HETATM    9  N   UNL     1     -11.744  12.949  63.908  1.00  0.00    -0.424 NA 
HETATM   10  C   UNL     1     -12.346  13.186  65.120  1.00  0.00    -0.473 C  
HETATM   11  O   UNL     1     -13.211  14.020  65.318  1.00  0.00    -0.782 OA 
HETATM   12  N   UNL     1     -11.826  12.341  66.040  1.00  0.00    -0.562 NA 
HETATM   13  C   UNL     1     -10.863  11.558  65.477  1.00  0.00    -0.254 C  
HETATM   14  O   UNL     1     -10.313  10.620  66.033  1.00  0.00    -0.250 OA 
ENDBRANCH   6   8
ENDBRANCH   3   6
TORSDOF 2
ENDMDL
MODEL       29
REMARK 921   NORMALIZED FREE ENERGY PREDICTED BY IDOCK:   -4.22 KCAL/MOL
REMARK 922        TOTAL FREE ENERGY PREDICTED BY IDOCK:   -5.04 KCAL/MOL
REMARK 923 INTER-LIGAND FREE ENERGY PREDICTED BY IDOCK:   -5.00 KCAL/MOL
REMARK 924 INTRA-LIGAND FREE ENERGY PREDICTED BY IDOCK:   -0.04 KCAL/MOL
REMARK 927      BINDING AFFINITY PREDICTED BY RF-SCORE:    0.00 PKD
ROOT
HETATM    1  N   UNL     1     -11.928  15.410  63.861  1.00  0.00    -0.972 N  
HETATM    2  H1  UNL     1     -12.098  14.973  62.955  1.00  0.00     0.000 HD 
HETATM    3  C   UNL     1     -10.995  14.934  64.722  1.00  0.00    -0.375 C  
HETATM    4  H2  UNL     1     -12.477  16.227  64.127  1.00  0.00     0.000 HD 
HETATM    5  O   UNL     1     -10.792  15.458  65.806  1.00  0.00    -0.329 OA 
ENDROOT
BRANCH   3   6
HETATM    6  N   UNL     1     -10.366  13.824  64.250  1.00  0.00    -0.617 N  
HETATM    7  H   UNL     1      -9.772  13.869  63.423  1.00  0.00     0.000 HD 
BRANCH   6   8
HETATM    8  C   UNL     1     -10.561  12.590  64.947  1.00  0.00    -0.301 C  
HETATM    9  N   UNL     1      -9.874  12.581  66.200  1.00  0.00    -0.255 NA 
HETATM   10  C   UNL     1     -10.662  12.073  67.204  1.00  0.00    -0.239 C  
HETATM   11  O   UNL     1     -10.271  11.792  68.322  1.00  0.00    -0.192 OA 
HETATM   12  N   UNL     1     -11.929  11.948  66.745  1.00  0.00    -0.583 NA 
HETATM   13  C   UNL     1     -12.004  12.335  65.441  1.00  0.00    -0.332 C  
HETATM   14  O   UNL     1     -13.041  12.450  64.805  1.00  0.00    -0.806 OA 
ENDBRANCH   6   8
ENDBRANCH   3   6
TORSDOF 2
ENDMDL
MODEL       30
REMARK 921   NORMALIZED FREE ENERGY PREDICTED BY IDOCK:   -4.16 KCAL/MOL
REMARK 922        TOTAL FREE ENERGY PREDICTED BY IDOCK:   -4.98 KCAL/MOL
REMARK 923 INTER-LIGAND FREE ENERGY PREDICTED BY IDOCK:   -4.86 KCAL/MOL
REMARK 924 INTRA-LIGAND FREE ENERGY PREDICTED BY IDOCK:   -0.11 KCAL/MOL
REMARK 927      BINDING AFFINITY PREDICTED BY RF-SCORE:    0.00 PKD
ROOT
HETATM    1  N   UNL     1     -11.132  10.062  68.059  1.00  0.00    -0.465 N  
HETATM    2  H1  UNL     1     -10.722   9.579  67.259  1.00  0.00     0.000 HD 
HETATM    3  C   UNL     1     -11.466  11.375  68.008  1.00  0.00    -0.307 C  
HETATM    4  H2  UNL     1     -11.295   9.542  68.921  1.00  0.00     0.000 HD 
HETATM    5  O   UNL     1     -11.956  11.953  68.965  1.00  0.00    -0.299 OA 
ENDROOT
BRANCH   3   6
HETATM    6  N   UNL     1     -11.162  11.946  66.811  1.00  0.00    -0.311 N  
HETATM    7  H   UNL     1     -10.499  11.505  66.173  1.00  0.00     0.000 HD 
BRANCH   6   8
HETATM    8  C   UNL     1     -11.796  13.181  66.471  1.00  0.00    -0.400 C  
HETATM    9  N   UNL     1     -10.840  14.221  66.257  1.00  0.00    -0.305 NA 
HETATM   10  C   UNL     1     -11.138  14.958  65.137  1.00  0.00    -0.393 C  
HETATM   11  O   UNL     1     -10.594  16.000  64.822  1.00  0.00    -0.600 OA 
HETATM   12  N   UNL     1     -12.120  14.331  64.449  1.00  0.00    -0.479 NA 
HETATM   13  C   UNL     1     -12.510  13.199  65.100  1.00  0.00    -0.483 C  
HETATM   14  O   UNL     1     -13.286  12.368  64.652  1.00  0.00    -0.822 OA 
ENDBRANCH   6   8
ENDBRANCH   3   6
TORSDOF 2
ENDMDL
MODEL       31
REMARK 921   NORMALIZED FREE ENERGY PREDICTED BY IDOCK:   -4.10 KCAL/MOL
REMARK 922        TOTAL FREE ENERGY PREDICTED BY IDOCK:   -4.91 KCAL/MOL
REMARK 923 INTER-LIGAND FREE ENERGY PREDICTED BY IDOCK:   -4.67 KCAL/MOL
REMARK 924 INTRA-LIGAND FREE ENERGY PREDICTED BY IDOCK:   -0.25 KCAL/MOL
REMARK 927      BINDING AFFINITY PREDICTED BY RF-SCORE:    0.00 PKD
ROOT
HETATM    1  N   UNL     1     -11.070  12.588  69.411  1.00  0.00    -0.452 N  
HETATM    2  H1  UNL     1     -10.828  13.530  69.718  1.00  0.00     0.000 HD 
HETATM    3  C   UNL     1     -11.669  12.357  68.217  1.00  0.00    -0.345 C  
HETATM    4  H2  UNL     1     -10.855  11.798  70.019  1.00  0.00     0.000 HD 
HETATM    5  O   UNL     1     -11.959  11.230  67.849  1.00  0.00    -0.630 OA 
ENDROOT
BRANCH   3   6
HETATM    6  N   UNL     1     -11.925  13.503  67.530  1.00  0.00    -0.362 N  
HETATM    7  H   UNL     1     -12.665  14.139  67.827  1.00  0.00     0.000 HD 
BRANCH   6   8
HETATM    8  C   UNL     1     -11.128  13.792  66.378  1.00  0.00    -0.308 C  
HETATM    9  N   UNL     1     -11.784  14.712  65.503  1.00  0.00    -0.341 NA 
HETATM   10  C   UNL     1     -10.923  15.686  65.058  1.00  0.00    -0.431 C  
HETATM   11  O   UNL     1     -11.172  16.486  64.175  1.00  0.00    -1.004 OA 
HETATM   12  N   UNL     1      -9.771  15.609  65.765  1.00  0.00    -0.345 NA 
HETATM   13  C   UNL     1      -9.828  14.582  66.659  1.00  0.00    -0.273 C  
HETATM   14  O   UNL     1      -8.988  14.355  67.516  1.00  0.00    -0.175 OA 
ENDBRANCH   6   8
ENDBRANCH   3   6
TORSDOF 2
ENDMDL
MODEL       32
REMARK 921   NORMALIZED FREE ENERGY PREDICTED BY IDOCK:   -4.10 KCAL/MOL
REMARK 922        TOTAL FREE ENERGY PREDICTED BY IDOCK:   -4.91 KCAL/MOL
REMARK 923 INTER-LIGAND FREE ENERGY PREDICTED BY IDOCK:   -4.76 KCAL/MOL
REMARK 924 INTRA-LIGAND FREE ENERGY PREDICTED BY IDOCK:   -0.15 KCAL/MOL
REMARK 927      BINDING AFFINITY PREDICTED BY RF-SCORE:    0.00 PKD
ROOT
HETATM    1  N   UNL     1      -7.357  13.008  66.958  1.00  0.00    -0.361 N  
HETATM    2  H1  UNL     1      -7.029  13.438  66.093  1.00  0.00     0.000 HD 
HETATM    3  C   UNL     1      -8.619  12.529  67.086  1.00  0.00    -0.200 C  
HETATM    4  H2  UNL     1      -6.717  12.937  67.750  1.00  0.00     0.000 HD 
HETATM    5  O   UNL     1      -9.012  12.015  68.121  1.00  0.00    -0.179 OA 
ENDROOT
BRANCH   3   6
HETATM    6  N   UNL     1      -9.367  12.721  65.966  1.00  0.00    -0.446 N  
HETATM    7  H   UNL     1      -9.109  12.284  65.081  1.00  0.00     0.000 HD 
BRANCH   6   8
HETATM    8  C   UNL     1     -10.527  13.553  66.063  1.00  0.00    -0.299 C  
HETATM    9  N   UNL     1     -10.772  14.255  64.843  1.00  0.00    -0.413 NA 
HETATM   10  C   UNL     1     -12.102  14.221  64.500  1.00  0.00    -0.480 C  
HETATM   11  O   UNL     1     -12.610  14.879  63.611  1.00  0.00    -0.724 OA 
HETATM   12  N   UNL     1     -12.739  13.338  65.304  1.00  0.00    -0.629 NA 
HETATM   13  C   UNL     1     -11.868  12.797  66.202  1.00  0.00    -0.425 C  
HETATM   14  O   UNL     1     -12.132  11.880  66.965  1.00  0.00    -0.600 OA 
ENDBRANCH   6   8
ENDBRANCH   3   6
TORSDOF 2
ENDMDL
MODEL       33
REMARK 921   NORMALIZED FREE ENERGY PREDICTED BY IDOCK:   -4.09 KCAL/MOL
REMARK 922        TOTAL FREE ENERGY PREDICTED BY IDOCK:   -4.90 KCAL/MOL
REMARK 923 INTER-LIGAND FREE ENERGY PREDICTED BY IDOCK:   -4.60 KCAL/MOL
REMARK 924 INTRA-LIGAND FREE ENERGY PREDICTED BY IDOCK:   -0.29 KCAL/MOL
REMARK 927      BINDING AFFINITY PREDICTED BY RF-SCORE:    0.00 PKD
ROOT
HETATM    1  N   UNL     1      -8.406  13.024  66.707  1.00  0.00    -0.417 N  
HETATM    2  H1  UNL     1      -7.892  13.680  66.120  1.00  0.00     0.000 HD 
HETATM    3  C   UNL     1      -9.709  12.726  66.477  1.00  0.00    -0.255 C  
HETATM    4  H2  UNL     1      -7.927  12.579  67.490  1.00  0.00     0.000 HD 
HETATM    5  O   UNL     1     -10.325  11.941  67.180  1.00  0.00    -0.206 OA 
ENDROOT
BRANCH   3   6
HETATM    6  N   UNL     1     -10.225  13.417  65.425  1.00  0.00    -0.355 N  
HETATM    7  H   UNL     1     -10.097  13.087  64.468  1.00  0.00     0.000 HD 
BRANCH   6   8
HETATM    8  C   UNL     1     -10.951  14.619  65.696  1.00  0.00    -0.335 C  
HETATM    9  N   UNL     1     -10.074  15.701  66.013  1.00  0.00    -0.307 NA 
HETATM   10  C   UNL     1     -10.444  16.856  65.367  1.00  0.00    -0.154 C  
HETATM   11  O   UNL     1      -9.980  17.959  65.590  1.00  0.00    -0.539 OA 
HETATM   12  N   UNL     1     -11.392  16.559  64.448  1.00  0.00    -0.976 NA 
HETATM   13  C   UNL     1     -11.689  15.229  64.482  1.00  0.00    -0.305 C  
HETATM   14  O   UNL     1     -12.412  14.654  63.683  1.00  0.00    -0.754 OA 
ENDBRANCH   6   8
ENDBRANCH   3   6
TORSDOF 2
ENDMDL
MODEL       34
REMARK 921   NORMALIZED FREE ENERGY PREDICTED BY IDOCK:   -4.08 KCAL/MOL
REMARK 922        TOTAL FREE ENERGY PREDICTED BY IDOCK:   -4.88 KCAL/MOL
REMARK 923 INTER-LIGAND FREE ENERGY PREDICTED BY IDOCK:   -4.50 KCAL/MOL
REMARK 924 INTRA-LIGAND FREE ENERGY PREDICTED BY IDOCK:   -0.38 KCAL/MOL
REMARK 927      BINDING AFFINITY PREDICTED BY RF-SCORE:    0.00 PKD
ROOT
HETATM    1  N   UNL     1     -12.423  14.599  68.933  1.00  0.00    -0.574 N  
HETATM    2  H1  UNL     1     -13.337  14.152  69.020  1.00  0.00     0.000 HD 
HETATM    3  C   UNL     1     -11.414  14.032  68.228  1.00  0.00    -0.304 C  
HETATM    4  H2  UNL     1     -12.266  15.497  69.390  1.00  0.00     0.000 HD 
HETATM    5  O   UNL     1     -10.321  14.566  68.123  1.00  0.00    -0.226 OA 
ENDROOT
BRANCH   3   6
HETATM    6  N   UNL     1     -11.757  12.824  67.703  1.00  0.00    -0.360 N  
HETATM    7  H   UNL     1     -11.824  11.996  68.295  1.00  0.00     0.000 HD 
BRANCH   6   8
HETATM    8  C   UNL     1     -12.021  12.747  66.300  1.00  0.00    -0.395 C  
HETATM    9  N   UNL     1     -12.664  13.930  65.822  1.00  0.00    -0.499 NA 
HETATM   10  C   UNL     1     -12.112  14.361  64.640  1.00  0.00    -0.471 C  
HETATM   11  O   UNL     1     -12.577  15.236  63.932  1.00  0.00    -0.765 OA 
HETATM   12  N   UNL     1     -10.977  13.664  64.406  1.00  0.00    -0.387 NA 
HETATM   13  C   UNL     1     -10.767  12.749  65.394  1.00  0.00    -0.284 C  
HETATM   14  O   UNL     1      -9.759  12.070  65.515  1.00  0.00    -0.238 OA 
ENDBRANCH   6   8
ENDBRANCH   3   6
TORSDOF 2
ENDMDL
MODEL       35
REMARK 921   NORMALIZED FREE ENERGY PREDICTED BY IDOCK:   -4.04 KCAL/MOL
REMARK 922        TOTAL FREE ENERGY PREDICTED BY IDOCK:   -4.84 KCAL/MOL
REMARK 923 INTER-LIGAND FREE ENERGY PREDICTED BY IDOCK:   -4.57 KCAL/MOL
REMARK 924 INTRA-LIGAND FREE ENERGY PREDICTED BY IDOCK:   -0.27 KCAL/MOL
REMARK 927      BINDING AFFINITY PREDICTED BY RF-SCORE:    0.00 PKD
ROOT
HETATM    1  N   UNL     1     -11.224  13.985  69.996  1.00  0.00    -0.477 N  
HETATM    2  H1  UNL     1     -11.388  12.997  69.803  1.00  0.00     0.000 HD 
HETATM    3  C   UNL     1     -11.706  14.962  69.190  1.00  0.00    -0.309 C  
HETATM    4  H2  UNL     1     -10.680  14.244  70.819  1.00  0.00     0.000 HD 
HETATM    5  O   UNL     1     -11.509  16.144  69.422  1.00  0.00    -0.328 OA 
ENDROOT
BRANCH   3   6
HETATM    6  N   UNL     1     -12.381  14.469  68.117  1.00  0.00    -0.588 N  
HETATM    7  H   UNL     1     -13.400  14.491  68.082  1.00  0.00     0.000 HD 
BRANCH   6   8
HETATM    8  C   UNL     1     -11.622  13.918  67.037  1.00  0.00    -0.369 C  
HETATM    9  N   UNL     1     -11.058  12.652  67.385  1.00  0.00    -0.261 NA 
HETATM   10  C   UNL     1     -11.212  11.736  66.373  1.00  0.00    -0.323 C  
HETATM   11  O   UNL     1     -10.677  10.642  66.335  1.00  0.00    -0.214 OA 
HETATM   12  N   UNL     1     -12.053  12.246  65.445  1.00  0.00    -0.518 NA 
HETATM   13  C   UNL     1     -12.448  13.502  65.798  1.00  0.00    -0.462 C  
HETATM   14  O   UNL     1     -13.302  14.154  65.218  1.00  0.00    -0.715 OA 
ENDBRANCH   6   8
ENDBRANCH   3   6
TORSDOF 2
ENDMDL
MODEL       36
REMARK 921   NORMALIZED FREE ENERGY PREDICTED BY IDOCK:   -3.97 KCAL/MOL
REMARK 922        TOTAL FREE ENERGY PREDICTED BY IDOCK:   -4.76 KCAL/MOL
REMARK 923 INTER-LIGAND FREE ENERGY PREDICTED BY IDOCK:   -4.64 KCAL/MOL
REMARK 924 INTRA-LIGAND FREE ENERGY PREDICTED BY IDOCK:   -0.12 KCAL/MOL
REMARK 927      BINDING AFFINITY PREDICTED BY RF-SCORE:    0.00 PKD
ROOT
HETATM    1  N   UNL     1     -13.724  15.349  71.067  1.00  0.00    -0.763 N  
HETATM    2  H1  UNL     1     -14.495  14.999  70.499  1.00  0.00     0.000 HD 
HETATM    3  C   UNL     1     -12.511  15.630  70.532  1.00  0.00    -0.398 C  
HETATM    4  H2  UNL     1     -13.871  15.492  72.066  1.00  0.00     0.000 HD 
HETATM    5  O   UNL     1     -11.588  16.049  71.213  1.00  0.00    -0.408 OA 
ENDROOT
BRANCH   3   6
HETATM    6  N   UNL     1     -12.451  15.360  69.200  1.00  0.00    -0.605 N  
HETATM    7  H   UNL     1     -13.099  15.801  68.547  1.00  0.00     0.000 HD 
BRANCH   6   8
HETATM    8  C   UNL     1     -11.455  14.442  68.740  1.00  0.00    -0.289 C  
HETATM    9  N   UNL     1     -11.954  13.104  68.700  1.00  0.00    -0.323 NA 
HETATM   10  C   UNL     1     -11.592  12.466  67.539  1.00  0.00    -0.365 C  
HETATM   11  O   UNL     1     -11.735  11.276  67.324  1.00  0.00    -0.566 OA 
HETATM   12  N   UNL     1     -11.066  13.374  66.685  1.00  0.00    -0.291 NA 
HETATM   13  C   UNL     1     -11.040  14.610  67.260  1.00  0.00    -0.328 C  
HETATM   14  O   UNL     1     -10.739  15.643  66.683  1.00  0.00    -0.308 OA 
ENDBRANCH   6   8
ENDBRANCH   3   6
TORSDOF 2
ENDMDL
MODEL       37
REMARK 921   NORMALIZED FREE ENERGY PREDICTED BY IDOCK:   -3.96 KCAL/MOL
REMARK 922        TOTAL FREE ENERGY PREDICTED BY IDOCK:   -4.76 KCAL/MOL
REMARK 923 INTER-LIGAND FREE ENERGY PREDICTED BY IDOCK:   -4.46 KCAL/MOL
REMARK 924 INTRA-LIGAND FREE ENERGY PREDICTED BY IDOCK:   -0.30 KCAL/MOL
REMARK 927      BINDING AFFINITY PREDICTED BY RF-SCORE:    0.00 PKD
ROOT
HETATM    1  N   UNL     1     -12.044  10.493  69.660  1.00  0.00    -0.494 N  
HETATM    2  H1  UNL     1     -11.789  10.515  70.647  1.00  0.00     0.000 HD 
HETATM    3  C   UNL     1     -11.825  11.550  68.840  1.00  0.00    -0.341 C  
HETATM    4  H2  UNL     1     -12.477   9.651  69.279  1.00  0.00     0.000 HD 
HETATM    5  O   UNL     1     -12.131  11.524  67.659  1.00  0.00    -0.623 OA 
ENDROOT
BRANCH   3   6
HETATM    6  N   UNL     1     -11.275  12.611  69.491  1.00  0.00    -0.465 N  
HETATM    7  H   UNL     1     -10.269  12.664  69.650  1.00  0.00     0.000 HD 
BRANCH   6   8
HETATM    8  C   UNL     1     -12.146  13.650  69.946  1.00  0.00    -0.341 C  
HETATM    9  N   UNL     1     -12.883  13.247  71.101  1.00  0.00    -0.315 NA 
HETATM   10  C   UNL     1     -12.906  14.236  72.055  1.00  0.00    -0.347 C  
HETATM   11  O   UNL     1     -13.601  14.225  73.054  1.00  0.00    -0.643 OA 
HETATM   12  N   UNL     1     -12.029  15.204  71.702  1.00  0.00    -0.340 NA 
HETATM   13  C   UNL     1     -11.436  14.901  70.513  1.00  0.00    -0.262 C  
HETATM   14  O   UNL     1     -10.513  15.525  70.014  1.00  0.00    -0.289 OA 
ENDBRANCH   6   8
ENDBRANCH   3   6
TORSDOF 2
ENDMDL
MODEL       38
REMARK 921   NORMALIZED FREE ENERGY PREDICTED BY IDOCK:   -3.95 KCAL/MOL
REMARK 922        TOTAL FREE ENERGY PREDICTED BY IDOCK:   -4.74 KCAL/MOL
REMARK 923 INTER-LIGAND FREE ENERGY PREDICTED BY IDOCK:   -4.40 KCAL/MOL
REMARK 924 INTRA-LIGAND FREE ENERGY PREDICTED BY IDOCK:   -0.34 KCAL/MOL
REMARK 927      BINDING AFFINITY PREDICTED BY RF-SCORE:    0.00 PKD
ROOT
HETATM    1  N   UNL     1     -10.441  12.705  68.091  1.00  0.00    -0.224 N  
HETATM    2  H1  UNL     1      -9.909  13.464  67.666  1.00  0.00     0.000 HD 
HETATM    3  C   UNL     1     -11.616  12.275  67.569  1.00  0.00    -0.353 C  
HETATM    4  H2  UNL     1     -10.079  12.257  68.933  1.00  0.00     0.000 HD 
HETATM    5  O   UNL     1     -12.254  11.367  68.078  1.00  0.00    -0.607 OA 
ENDROOT
BRANCH   3   6
HETATM    6  N   UNL     1     -11.991  12.984  66.470  1.00  0.00    -0.402 N  
HETATM    7  H   UNL     1     -12.879  13.487  66.448  1.00  0.00     0.000 HD 
BRANCH   6   8
HETATM    8  C   UNL     1     -11.107  13.006  65.347  1.00  0.00    -0.275 C  
HETATM    9  N   UNL     1     -10.497  11.732  65.135  1.00  0.00    -0.271 NA 
HETATM   10  C   UNL     1     -10.503  11.385  63.806  1.00  0.00    -0.399 C  
HETATM   11  O   UNL     1      -9.899  10.441  63.329  1.00  0.00    -0.302 OA 
HETATM   12  N   UNL     1     -11.291  12.253  63.130  1.00  0.00    -0.298 NA 
HETATM   13  C   UNL     1     -11.793  13.197  63.974  1.00  0.00    -0.453 C  
HETATM   14  O   UNL     1     -12.633  14.030  63.670  1.00  0.00    -0.818 OA 
ENDBRANCH   6   8
ENDBRANCH   3   6
TORSDOF 2
ENDMDL
MODEL       39
REMARK 921   NORMALIZED FREE ENERGY PREDICTED BY IDOCK:   -3.93 KCAL/MOL
REMARK 922        TOTAL FREE ENERGY PREDICTED BY IDOCK:   -4.72 KCAL/MOL
REMARK 923 INTER-LIGAND FREE ENERGY PREDICTED BY IDOCK:   -4.38 KCAL/MOL
REMARK 924 INTRA-LIGAND FREE ENERGY PREDICTED BY IDOCK:   -0.34 KCAL/MOL
REMARK 927      BINDING AFFINITY PREDICTED BY RF-SCORE:    0.00 PKD
ROOT
HETATM    1  N   UNL     1     -12.013  12.247  65.674  1.00  0.00    -0.378 N  
HETATM    2  H1  UNL     1     -11.786  12.030  66.645  1.00  0.00     0.000 HD 
HETATM    3  C   UNL     1     -12.433  13.479  65.296  1.00  0.00    -0.482 C  
HETATM    4  H2  UNL     1     -11.921  11.517  64.968  1.00  0.00     0.000 HD 
HETATM    5  O   UNL     1     -12.705  13.740  64.134  1.00  0.00    -0.664 OA 
ENDROOT
BRANCH   3   6
HETATM    6  N   UNL     1     -12.540  14.340  66.344  1.00  0.00    -0.499 N  
HETATM    7  H   UNL     1     -13.446  14.539  66.768  1.00  0.00     0.000 HD 
BRANCH   6   8
HETATM    8  C   UNL     1     -11.348  14.958  66.836  1.00  0.00    -0.337 C  
HETATM    9  N   UNL     1     -10.400  13.986  67.282  1.00  0.00    -0.262 NA 
HETATM   10  C   UNL     1      -9.131  14.282  66.845  1.00  0.00    -0.252 C  
HETATM   11  O   UNL     1      -8.117  13.723  67.220  1.00  0.00    -0.175 OA 
HETATM   12  N   UNL     1      -9.204  15.279  65.934  1.00  0.00    -0.281 NA 
HETATM   13  C   UNL     1     -10.495  15.682  65.769  1.00  0.00    -0.366 C  
HETATM   14  O   UNL     1     -10.877  16.474  64.922  1.00  0.00    -0.684 OA 
ENDBRANCH   6   8
ENDBRANCH   3   6
TORSDOF 2
ENDMDL
MODEL       40
REMARK 921   NORMALIZED FREE ENERGY PREDICTED BY IDOCK:   -3.93 KCAL/MOL
REMARK 922        TOTAL FREE ENERGY PREDICTED BY IDOCK:   -4.72 KCAL/MOL
REMARK 923 INTER-LIGAND FREE ENERGY PREDICTED BY IDOCK:   -4.58 KCAL/MOL
REMARK 924 INTRA-LIGAND FREE ENERGY PREDICTED BY IDOCK:   -0.14 KCAL/MOL
REMARK 927      BINDING AFFINITY PREDICTED BY RF-SCORE:    0.00 PKD
ROOT
HETATM    1  N   UNL     1      -9.091   8.699  64.956  1.00  0.00    -0.428 N  
HETATM    2  H1  UNL     1      -9.818   8.175  64.468  1.00  0.00     0.000 HD 
HETATM    3  C   UNL     1      -9.178  10.039  65.143  1.00  0.00    -0.222 C  
HETATM    4  H2  UNL     1      -8.276   8.201  65.312  1.00  0.00     0.000 HD 
HETATM    5  O   UNL     1      -8.308  10.666  65.726  1.00  0.00    -0.156 OA 
ENDROOT
BRANCH   3   6
HETATM    6  N   UNL     1     -10.299  10.573  64.587  1.00  0.00    -0.303 N  
HETATM    7  H   UNL     1     -10.927  10.002  64.021  1.00  0.00     0.000 HD 
BRANCH   6   8
HETATM    8  C   UNL     1     -10.573  11.958  64.817  1.00  0.00    -0.299 C  
HETATM    9  N   UNL     1     -11.079  12.594  63.642  1.00  0.00    -0.451 NA 
HETATM   10  C   UNL     1     -12.152  13.403  63.928  1.00  0.00    -0.455 C  
HETATM   11  O   UNL     1     -12.660  14.190  63.150  1.00  0.00    -0.686 OA 
HETATM   12  N   UNL     1     -12.546  13.173  65.202  1.00  0.00    -0.590 NA 
HETATM   13  C   UNL     1     -11.740  12.244  65.790  1.00  0.00    -0.385 C  
HETATM   14  O   UNL     1     -11.933  11.747  66.889  1.00  0.00    -0.605 OA 
ENDBRANCH   6   8
ENDBRANCH   3   6
TORSDOF 2
ENDMDL
MODEL       41
REMARK 921   NORMALIZED FREE ENERGY PREDICTED BY IDOCK:   -3.92 KCAL/MOL
REMARK 922        TOTAL FREE ENERGY PREDICTED BY IDOCK:   -4.71 KCAL/MOL
REMARK 923 INTER-LIGAND FREE ENERGY PREDICTED BY IDOCK:   -4.66 KCAL/MOL
REMARK 924 INTRA-LIGAND FREE ENERGY PREDICTED BY IDOCK:   -0.05 KCAL/MOL
REMARK 927      BINDING AFFINITY PREDICTED BY RF-SCORE:    0.00 PKD
ROOT
HETATM    1  N   UNL     1     -11.667  12.806  70.340  1.00  0.00    -0.541 N  
HETATM    2  H1  UNL     1     -11.337  13.296  69.508  1.00  0.00     0.000 HD 
HETATM    3  C   UNL     1     -12.771  13.207  71.016  1.00  0.00    -0.277 C  
HETATM    4  H2  UNL     1     -11.151  11.991  70.671  1.00  0.00     0.000 HD 
HETATM    5  O   UNL     1     -13.166  12.620  72.011  1.00  0.00    -0.461 OA 
ENDROOT
BRANCH   3   6
HETATM    6  N   UNL     1     -13.336  14.323  70.480  1.00  0.00    -0.353 N  
HETATM    7  H   UNL     1     -13.902  14.269  69.633  1.00  0.00     0.000 HD 
BRANCH   6   8
HETATM    8  C   UNL     1     -13.113  15.574  71.136  1.00  0.00    -0.507 C  
HETATM    9  N   UNL     1     -13.534  15.532  72.501  1.00  0.00    -0.479 NA 
HETATM   10  C   UNL     1     -12.609  16.114  73.333  1.00  0.00    -0.540 C  
HETATM   11  O   UNL     1     -12.790  16.368  74.510  1.00  0.00    -0.681 OA 
HETATM   12  N   UNL     1     -11.475  16.346  72.631  1.00  0.00    -0.061 NA 
HETATM   13  C   UNL     1     -11.628  15.958  71.334  1.00  0.00    -0.464 C  
HETATM   14  O   UNL     1     -10.734  15.929  70.503  1.00  0.00    -0.298 OA 
ENDBRANCH   6   8
ENDBRANCH   3   6
TORSDOF 2
ENDMDL
MODEL       42
REMARK 921   NORMALIZED FREE ENERGY PREDICTED BY IDOCK:   -3.89 KCAL/MOL
REMARK 922        TOTAL FREE ENERGY PREDICTED BY IDOCK:   -4.67 KCAL/MOL
REMARK 923 INTER-LIGAND FREE ENERGY PREDICTED BY IDOCK:   -4.52 KCAL/MOL
REMARK 924 INTRA-LIGAND FREE ENERGY PREDICTED BY IDOCK:   -0.15 KCAL/MOL
REMARK 927      BINDING AFFINITY PREDICTED BY RF-SCORE:    0.00 PKD
ROOT
HETATM    1  N   UNL     1     -13.738   9.869  72.454  1.00  0.00    -0.594 N  
HETATM    2  H1  UNL     1     -14.598  10.349  72.186  1.00  0.00     0.000 HD 
HETATM    3  C   UNL     1     -12.684   9.765  71.608  1.00  0.00    -0.422 C  
HETATM    4  H2  UNL     1     -13.671   9.454  73.383  1.00  0.00     0.000 HD 
HETATM    5  O   UNL     1     -11.655   9.190  71.928  1.00  0.00    -0.358 OA 
ENDROOT
BRANCH   3   6
HETATM    6  N   UNL     1     -12.928  10.333  70.396  1.00  0.00    -0.554 N  
HETATM    7  H   UNL     1     -13.805  10.163  69.904  1.00  0.00     0.000 HD 
BRANCH   6   8
HETATM    8  C   UNL     1     -11.920  11.175  69.830  1.00  0.00    -0.357 C  
HETATM    9  N   UNL     1     -11.990  11.191  68.403  1.00  0.00    -0.599 NA 
HETATM   10  C   UNL     1     -11.866  12.465  67.905  1.00  0.00    -0.308 C  
HETATM   11  O   UNL     1     -11.718  12.744  66.729  1.00  0.00    -0.356 OA 
HETATM   12  N   UNL     1     -11.944  13.345  68.930  1.00  0.00    -0.338 NA 
HETATM   13  C   UNL     1     -12.090  12.686  70.114  1.00  0.00    -0.294 C  
HETATM   14  O   UNL     1     -12.313  13.221  71.189  1.00  0.00    -0.343 OA 
ENDBRANCH   6   8
ENDBRANCH   3   6
TORSDOF 2
ENDMDL
MODEL       43
REMARK 921   NORMALIZED FREE ENERGY PREDICTED BY IDOCK:   -3.88 KCAL/MOL
REMARK 922        TOTAL FREE ENERGY PREDICTED BY IDOCK:   -4.66 KCAL/MOL
REMARK 923 INTER-LIGAND FREE ENERGY PREDICTED BY IDOCK:   -4.46 KCAL/MOL
REMARK 924 INTRA-LIGAND FREE ENERGY PREDICTED BY IDOCK:   -0.21 KCAL/MOL
REMARK 927      BINDING AFFINITY PREDICTED BY RF-SCORE:    0.00 PKD
ROOT
HETATM    1  N   UNL     1     -12.228   6.275  72.440  1.00  0.00    -0.540 N  
HETATM    2  H1  UNL     1     -12.830   6.928  72.942  1.00  0.00     0.000 HD 
HETATM    3  C   UNL     1     -11.784   6.531  71.185  1.00  0.00    -0.335 C  
HETATM    4  H2  UNL     1     -11.952   5.405  72.896  1.00  0.00     0.000 HD 
HETATM    5  O   UNL     1     -11.064   5.750  70.584  1.00  0.00    -0.278 OA 
ENDROOT
BRANCH   3   6
HETATM    6  N   UNL     1     -12.258   7.708  70.693  1.00  0.00    -0.511 N  
HETATM    7  H   UNL     1     -12.701   7.753  69.775  1.00  0.00     0.000 HD 
BRANCH   6   8
HETATM    8  C   UNL     1     -12.118   8.882  71.498  1.00  0.00    -0.330 C  
HETATM    9  N   UNL     1     -11.705  10.006  70.719  1.00  0.00    -0.323 NA 
HETATM   10  C   UNL     1     -12.423  11.133  71.040  1.00  0.00    -0.403 C  
HETATM   11  O   UNL     1     -12.162  12.259  70.657  1.00  0.00    -0.371 OA 
HETATM   12  N   UNL     1     -13.459  10.780  71.836  1.00  0.00    -0.308 NA 
HETATM   13  C   UNL     1     -13.436   9.440  72.082  1.00  0.00    -0.471 C  
HETATM   14  O   UNL     1     -14.316   8.822  72.662  1.00  0.00    -0.585 OA 
ENDBRANCH   6   8
ENDBRANCH   3   6
TORSDOF 2
ENDMDL
MODEL       44
REMARK 921   NORMALIZED FREE ENERGY PREDICTED BY IDOCK:   -3.88 KCAL/MOL
REMARK 922        TOTAL FREE ENERGY PREDICTED BY IDOCK:   -4.66 KCAL/MOL
REMARK 923 INTER-LIGAND FREE ENERGY PREDICTED BY IDOCK:   -4.33 KCAL/MOL
REMARK 924 INTRA-LIGAND FREE ENERGY PREDICTED BY IDOCK:   -0.33 KCAL/MOL
REMARK 927      BINDING AFFINITY PREDICTED BY RF-SCORE:    0.00 PKD
ROOT
HETATM    1  N   UNL     1     -10.408  14.897  70.122  1.00  0.00    -0.485 N  
HETATM    2  H1  UNL     1      -9.604  14.662  69.539  1.00  0.00     0.000 HD 
HETATM    3  C   UNL     1     -11.654  14.446  69.839  1.00  0.00    -0.284 C  
HETATM    4  H2  UNL     1     -10.269  15.489  70.941  1.00  0.00     0.000 HD 
HETATM    5  O   UNL     1     -12.616  14.727  70.537  1.00  0.00    -0.334 OA 
ENDROOT
BRANCH   3   6
HETATM    6  N   UNL     1     -11.694  13.698  68.703  1.00  0.00    -0.332 N  
HETATM    7  H   UNL     1     -11.446  12.709  68.717  1.00  0.00     0.000 HD 
BRANCH   6   8
HETATM    8  C   UNL     1     -12.094  14.337  67.488  1.00  0.00    -0.312 C  
HETATM    9  N   UNL     1     -11.238  15.435  67.166  1.00  0.00    -0.300 NA 
HETATM   10  C   UNL     1     -10.897  15.435  65.835  1.00  0.00    -0.325 C  
HETATM   11  O   UNL     1     -10.325  16.344  65.262  1.00  0.00    -0.581 OA 
HETATM   12  N   UNL     1     -11.291  14.264  65.282  1.00  0.00    -0.323 NA 
HETATM   13  C   UNL     1     -11.918  13.486  66.209  1.00  0.00    -0.413 C  
HETATM   14  O   UNL     1     -12.265  12.329  66.029  1.00  0.00    -0.646 OA 
ENDBRANCH   6   8
ENDBRANCH   3   6
TORSDOF 2
ENDMDL
MODEL       45
REMARK 921   NORMALIZED FREE ENERGY PREDICTED BY IDOCK:   -3.84 KCAL/MOL
REMARK 922        TOTAL FREE ENERGY PREDICTED BY IDOCK:   -4.62 KCAL/MOL
REMARK 923 INTER-LIGAND FREE ENERGY PREDICTED BY IDOCK:   -4.47 KCAL/MOL
REMARK 924 INTRA-LIGAND FREE ENERGY PREDICTED BY IDOCK:   -0.15 KCAL/MOL
REMARK 927      BINDING AFFINITY PREDICTED BY RF-SCORE:    0.00 PKD
ROOT
HETATM    1  N   UNL     1     -12.532  15.003  63.810  1.00  0.00    -1.049 N  
HETATM    2  H1  UNL     1     -13.047  15.862  63.613  1.00  0.00     0.000 HD 
HETATM    3  C   UNL     1     -11.428  14.996  64.597  1.00  0.00    -0.381 C  
HETATM    4  H2  UNL     1     -12.856  14.127  63.402  1.00  0.00     0.000 HD 
HETATM    5  O   UNL     1     -10.811  13.969  64.832  1.00  0.00    -0.364 OA 
ENDROOT
BRANCH   3   6
HETATM    6  N   UNL     1     -11.095  16.238  65.042  1.00  0.00    -0.324 N  
HETATM    7  H   UNL     1     -11.566  17.068  64.682  1.00  0.00     0.000 HD 
BRANCH   6   8
HETATM    8  C   UNL     1     -10.066  16.348  66.029  1.00  0.00    -0.353 C  
HETATM    9  N   UNL     1      -9.350  17.578  65.906  1.00  0.00    -0.524 NA 
HETATM   10  C   UNL     1      -9.148  18.169  67.130  1.00  0.00    -0.257 C  
HETATM   11  O   UNL     1      -8.424  19.127  67.331  1.00  0.00    -0.276 OA 
HETATM   12  N   UNL     1      -9.889  17.519  68.057  1.00  0.00    -0.285 NA 
HETATM   13  C   UNL     1     -10.564  16.482  67.487  1.00  0.00    -0.313 C  
HETATM   14  O   UNL     1     -11.406  15.801  68.053  1.00  0.00    -0.348 OA 
ENDBRANCH   6   8
ENDBRANCH   3   6
TORSDOF 2
ENDMDL
MODEL       46
REMARK 921   NORMALIZED FREE ENERGY PREDICTED BY IDOCK:   -3.84 KCAL/MOL
REMARK 922        TOTAL FREE ENERGY PREDICTED BY IDOCK:   -4.62 KCAL/MOL
REMARK 923 INTER-LIGAND FREE ENERGY PREDICTED BY IDOCK:   -4.51 KCAL/MOL
REMARK 924 INTRA-LIGAND FREE ENERGY PREDICTED BY IDOCK:   -0.11 KCAL/MOL
REMARK 927      BINDING AFFINITY PREDICTED BY RF-SCORE:    0.00 PKD
ROOT
HETATM    1  N   UNL     1     -10.855  14.541  64.487  1.00  0.00    -0.621 N  
HETATM    2  H1  UNL     1     -10.266  13.948  65.071  1.00  0.00     0.000 HD 
HETATM    3  C   UNL     1     -10.951  15.878  64.691  1.00  0.00    -0.305 C  
HETATM    4  H2  UNL     1     -11.388  14.116  63.728  1.00  0.00     0.000 HD 
HETATM    5  O   UNL     1     -11.656  16.588  63.992  1.00  0.00    -1.154 OA 
ENDROOT
BRANCH   3   6
HETATM    6  N   UNL     1     -10.214  16.299  65.754  1.00  0.00    -0.364 N  
HETATM    7  H   UNL     1      -9.200  16.187  65.767  1.00  0.00     0.000 HD 
BRANCH   6   8
HETATM    8  C   UNL     1     -10.899  16.902  66.855  1.00  0.00    -0.021 C  
HETATM    9  N   UNL     1     -10.955  16.026  67.982  1.00  0.00    -0.337 NA 
HETATM   10  C   UNL     1     -10.659  16.687  69.149  1.00  0.00    -0.340 C  
HETATM   11  O   UNL     1     -10.801  16.226  70.267  1.00  0.00    -0.319 OA 
HETATM   12  N   UNL     1     -10.181  17.916  68.848  1.00  0.00    -0.373 NA 
HETATM   13  C   UNL     1     -10.177  18.108  67.498  1.00  0.00    -0.371 C  
HETATM   14  O   UNL     1      -9.682  19.070  66.931  1.00  0.00    -0.301 OA 
ENDBRANCH   6   8
ENDBRANCH   3   6
TORSDOF 2
ENDMDL
MODEL       47
REMARK 921   NORMALIZED FREE ENERGY PREDICTED BY IDOCK:   -3.80 KCAL/MOL
REMARK 922        TOTAL FREE ENERGY PREDICTED BY IDOCK:   -4.57 KCAL/MOL
REMARK 923 INTER-LIGAND FREE ENERGY PREDICTED BY IDOCK:   -4.31 KCAL/MOL
REMARK 924 INTRA-LIGAND FREE ENERGY PREDICTED BY IDOCK:   -0.27 KCAL/MOL
REMARK 927      BINDING AFFINITY PREDICTED BY RF-SCORE:    0.00 PKD
ROOT
HETATM    1  N   UNL     1     -10.305  10.619  69.813  1.00  0.00    -0.425 N  
HETATM    2  H1  UNL     1     -10.598  11.541  70.136  1.00  0.00     0.000 HD 
HETATM    3  C   UNL     1     -10.822  10.056  68.693  1.00  0.00    -0.229 C  
HETATM    4  H2  UNL     1      -9.604  10.106  70.347  1.00  0.00     0.000 HD 
HETATM    5  O   UNL     1     -10.472   8.952  68.306  1.00  0.00    -0.215 OA 
ENDROOT
BRANCH   3   6
HETATM    6  N   UNL     1     -11.768  10.837  68.104  1.00  0.00    -0.401 N  
HETATM    7  H   UNL     1     -12.760  10.617  68.193  1.00  0.00     0.000 HD 
BRANCH   6   8
HETATM    8  C   UNL     1     -11.333  11.976  67.356  1.00  0.00    -0.327 C  
HETATM    9  N   UNL     1     -12.145  12.185  66.199  1.00  0.00    -0.590 NA 
HETATM   10  C   UNL     1     -12.474  13.510  66.046  1.00  0.00    -0.399 C  
HETATM   11  O   UNL     1     -13.006  13.987  65.060  1.00  0.00    -0.728 OA 
HETATM   12  N   UNL     1     -12.118  14.181  67.165  1.00  0.00    -0.430 NA 
HETATM   13  C   UNL     1     -11.528  13.339  68.060  1.00  0.00    -0.309 C  
HETATM   14  O   UNL     1     -11.223  13.638  69.204  1.00  0.00    -0.256 OA 
ENDBRANCH   6   8
ENDBRANCH   3   6
TORSDOF 2
ENDMDL
MODEL       48
REMARK 921   NORMALIZED FREE ENERGY PREDICTED BY IDOCK:   -3.76 KCAL/MOL
REMARK 922        TOTAL FREE ENERGY PREDICTED BY IDOCK:   -4.52 KCAL/MOL
REMARK 923 INTER-LIGAND FREE ENERGY PREDICTED BY IDOCK:   -4.24 KCAL/MOL
REMARK 924 INTRA-LIGAND FREE ENERGY PREDICTED BY IDOCK:   -0.28 KCAL/MOL
REMARK 927      BINDING AFFINITY PREDICTED BY RF-SCORE:    0.00 PKD
ROOT
HETATM    1  N   UNL     1     -11.413  14.181  68.432  1.00  0.00    -0.283 N  
HETATM    2  H1  UNL     1     -11.901  13.285  68.473  1.00  0.00     0.000 HD 
HETATM    3  C   UNL     1     -11.053  14.851  69.554  1.00  0.00    -0.281 C  
HETATM    4  H2  UNL     1     -11.191  14.582  67.521  1.00  0.00     0.000 HD 
HETATM    5  O   UNL     1     -10.470  15.923  69.505  1.00  0.00    -0.238 OA 
ENDROOT
BRANCH   3   6
HETATM    6  N   UNL     1     -11.443  14.215  70.691  1.00  0.00    -0.514 N  
HETATM    7  H   UNL     1     -10.995  14.417  71.585  1.00  0.00     0.000 HD 
BRANCH   6   8
HETATM    8  C   UNL     1     -12.499  13.255  70.600  1.00  0.00    -0.298 C  
HETATM    9  N   UNL     1     -11.997  11.951  70.302  1.00  0.00    -0.352 NA 
HETATM   10  C   UNL     1     -12.593  10.990  71.083  1.00  0.00    -0.418 C  
HETATM   11  O   UNL     1     -12.481   9.789  70.919  1.00  0.00    -0.306 OA 
HETATM   12  N   UNL     1     -13.309  11.600  72.056  1.00  0.00    -0.429 NA 
HETATM   13  C   UNL     1     -13.231  12.954  71.929  1.00  0.00    -0.423 C  
HETATM   14  O   UNL     1     -13.670  13.758  72.737  1.00  0.00    -0.699 OA 
ENDBRANCH   6   8
ENDBRANCH   3   6
TORSDOF 2
ENDMDL
MODEL       49
REMARK 921   NORMALIZED FREE ENERGY PREDICTED BY IDOCK:   -3.74 KCAL/MOL
REMARK 922        TOTAL FREE ENERGY PREDICTED BY IDOCK:   -4.51 KCAL/MOL
REMARK 923 INTER-LIGAND FREE ENERGY PREDICTED BY IDOCK:   -4.09 KCAL/MOL
REMARK 924 INTRA-LIGAND FREE ENERGY PREDICTED BY IDOCK:   -0.42 KCAL/MOL
REMARK 927      BINDING AFFINITY PREDICTED BY RF-SCORE:    0.00 PKD
ROOT
HETATM    1  N   UNL     1     -11.439  11.362  63.267  1.00  0.00    -0.852 N  
HETATM    2  H1  UNL     1     -12.227  12.003  63.173  1.00  0.00     0.000 HD 
HETATM    3  C   UNL     1     -10.307  11.710  63.927  1.00  0.00    -0.369 C  
HETATM    4  H2  UNL     1     -11.505  10.433  62.851  1.00  0.00     0.000 HD 
HETATM    5  O   UNL     1      -9.365  10.942  64.039  1.00  0.00    -0.217 OA 
ENDROOT
BRANCH   3   6
HETATM    6  N   UNL     1     -10.348  12.985  64.398  1.00  0.00    -0.507 N  
HETATM    7  H   UNL     1     -10.138  13.776  63.789  1.00  0.00     0.000 HD 
BRANCH   6   8
HETATM    8  C   UNL     1     -10.692  13.188  65.771  1.00  0.00    -0.279 C  
HETATM    9  N   UNL     1     -11.609  12.194  66.234  1.00  0.00    -0.460 NA 
HETATM   10  C   UNL     1     -11.253  11.716  67.472  1.00  0.00    -0.293 C  
HETATM   11  O   UNL     1     -11.946  10.997  68.168  1.00  0.00    -0.610 OA 
HETATM   12  N   UNL     1     -10.014  12.169  67.776  1.00  0.00    -0.193 NA 
HETATM   13  C   UNL     1      -9.540  12.967  66.778  1.00  0.00    -0.246 C  
HETATM   14  O   UNL     1      -8.403  13.410  66.719  1.00  0.00    -0.064 OA 
ENDBRANCH   6   8
ENDBRANCH   3   6
TORSDOF 2
ENDMDL
MODEL       50
REMARK 921   NORMALIZED FREE ENERGY PREDICTED BY IDOCK:   -3.69 KCAL/MOL
REMARK 922        TOTAL FREE ENERGY PREDICTED BY IDOCK:   -4.45 KCAL/MOL
REMARK 923 INTER-LIGAND FREE ENERGY PREDICTED BY IDOCK:   -4.31 KCAL/MOL
REMARK 924 INTRA-LIGAND FREE ENERGY PREDICTED BY IDOCK:   -0.14 KCAL/MOL
REMARK 927      BINDING AFFINITY PREDICTED BY RF-SCORE:    0.00 PKD
ROOT
HETATM    1  N   UNL     1     -11.537  14.257  67.252  1.00  0.00    -0.358 N  
HETATM    2  H1  UNL     1     -12.428  14.614  66.906  1.00  0.00     0.000 HD 
HETATM    3  C   UNL     1     -11.300  14.084  68.576  1.00  0.00    -0.277 C  
HETATM    4  H2  UNL     1     -10.803  14.026  66.583  1.00  0.00     0.000 HD 
HETATM    5  O   UNL     1     -10.234  13.657  68.989  1.00  0.00    -0.135 OA 
ENDROOT
BRANCH   3   6
HETATM    6  N   UNL     1     -12.353  14.464  69.349  1.00  0.00    -0.532 N  
HETATM    7  H   UNL     1     -13.266  14.654  68.936  1.00  0.00     0.000 HD 
BRANCH   6   8
HETATM    8  C   UNL     1     -12.144  14.591  70.758  1.00  0.00    -0.329 C  
HETATM    9  N   UNL     1     -12.777  15.762  71.279  1.00  0.00    -0.470 NA 
HETATM   10  C   UNL     1     -13.441  15.496  72.452  1.00  0.00    -0.509 C  
HETATM   11  O   UNL     1     -13.916  16.340  73.191  1.00  0.00    -0.451 OA 
HETATM   12  N   UNL     1     -13.485  14.157  72.637  1.00  0.00    -0.547 NA 
HETATM   13  C   UNL     1     -12.836  13.514  71.625  1.00  0.00    -0.329 C  
HETATM   14  O   UNL     1     -12.824  12.304  71.461  1.00  0.00    -0.370 OA 
ENDBRANCH   6   8
ENDBRANCH   3   6
TORSDOF 2
ENDMDL
MODEL       51
REMARK 921   NORMALIZED FREE ENERGY PREDICTED BY IDOCK:   -3.69 KCAL/MOL
REMARK 922        TOTAL FREE ENERGY PREDICTED BY IDOCK:   -4.45 KCAL/MOL
REMARK 923 INTER-LIGAND FREE ENERGY PREDICTED BY IDOCK:   -4.29 KCAL/MOL
REMARK 924 INTRA-LIGAND FREE ENERGY PREDICTED BY IDOCK:   -0.16 KCAL/MOL
REMARK 927      BINDING AFFINITY PREDICTED BY RF-SCORE:    0.00 PKD
ROOT
HETATM    1  N   UNL     1      -8.979  20.655  66.719  1.00  0.00    -0.584 N  
HETATM    2  H1  UNL     1      -8.375  20.458  65.920  1.00  0.00     0.000 HD 
HETATM    3  C   UNL     1      -9.619  19.669  67.394  1.00  0.00    -0.343 C  
HETATM    4  H2  UNL     1      -9.104  21.622  67.018  1.00  0.00     0.000 HD 
HETATM    5  O   UNL     1     -10.341  19.905  68.349  1.00  0.00    -0.450 OA 
ENDROOT
BRANCH   3   6
HETATM    6  N   UNL     1      -9.386  18.437  66.864  1.00  0.00    -0.281 N  
HETATM    7  H   UNL     1      -8.435  18.116  66.682  1.00  0.00     0.000 HD 
BRANCH   6   8
HETATM    8  C   UNL     1     -10.511  17.605  66.570  1.00  0.00    -0.283 C  
HETATM    9  N   UNL     1     -10.287  16.812  65.403  1.00  0.00    -0.632 NA 
HETATM   10  C   UNL     1     -10.690  15.512  65.591  1.00  0.00    -0.366 C  
HETATM   11  O   UNL     1     -10.773  14.674  64.712  1.00  0.00    -0.412 OA 
HETATM   12  N   UNL     1     -10.966  15.325  66.902  1.00  0.00    -0.322 NA 
HETATM   13  C   UNL     1     -10.785  16.482  67.598  1.00  0.00    -0.311 C  
HETATM   14  O   UNL     1     -10.835  16.581  68.814  1.00  0.00    -0.308 OA 
ENDBRANCH   6   8
ENDBRANCH   3   6
TORSDOF 2
ENDMDL
MODEL       52
REMARK 921   NORMALIZED FREE ENERGY PREDICTED BY IDOCK:   -3.68 KCAL/MOL
REMARK 922        TOTAL FREE ENERGY PREDICTED BY IDOCK:   -4.44 KCAL/MOL
REMARK 923 INTER-LIGAND FREE ENERGY PREDICTED BY IDOCK:   -4.28 KCAL/MOL
REMARK 924 INTRA-LIGAND FREE ENERGY PREDICTED BY IDOCK:   -0.16 KCAL/MOL
REMARK 927      BINDING AFFINITY PREDICTED BY RF-SCORE:    0.00 PKD
ROOT
HETATM    1  N   UNL     1     -13.957   9.017  72.855  1.00  0.00    -0.896 N  
HETATM    2  H1  UNL     1     -14.048   8.003  72.788  1.00  0.00     0.000 HD 
HETATM    3  C   UNL     1     -13.242   9.733  71.952  1.00  0.00    -0.449 C  
HETATM    4  H2  UNL     1     -14.416   9.506  73.623  1.00  0.00     0.000 HD 
HETATM    5  O   UNL     1     -13.133  10.946  72.032  1.00  0.00    -0.491 OA 
ENDROOT
BRANCH   3   6
HETATM    6  N   UNL     1     -12.659   8.948  71.006  1.00  0.00    -0.489 N  
HETATM    7  H   UNL     1     -12.637   9.235  70.027  1.00  0.00     0.000 HD 
BRANCH   6   8
HETATM    8  C   UNL     1     -12.078   7.709  71.421  1.00  0.00    -0.316 C  
HETATM    9  N   UNL     1     -12.006   6.776  70.340  1.00  0.00    -0.348 NA 
HETATM   10  C   UNL     1     -10.788   6.140  70.304  1.00  0.00    -0.319 C  
HETATM   11  O   UNL     1     -10.522   5.182  69.601  1.00  0.00    -0.280 OA 
HETATM   12  N   UNL     1      -9.946   6.757  71.166  1.00  0.00    -0.182 NA 
HETATM   13  C   UNL     1     -10.582   7.780  71.804  1.00  0.00    -0.217 C  
HETATM   14  O   UNL     1     -10.038   8.589  72.539  1.00  0.00    -0.298 OA 
ENDBRANCH   6   8
ENDBRANCH   3   6
TORSDOF 2
ENDMDL
MODEL       53
REMARK 921   NORMALIZED FREE ENERGY PREDICTED BY IDOCK:   -3.67 KCAL/MOL
REMARK 922        TOTAL FREE ENERGY PREDICTED BY IDOCK:   -4.43 KCAL/MOL
REMARK 923 INTER-LIGAND FREE ENERGY PREDICTED BY IDOCK:   -4.41 KCAL/MOL
REMARK 924 INTRA-LIGAND FREE ENERGY PREDICTED BY IDOCK:   -0.02 KCAL/MOL
REMARK 927      BINDING AFFINITY PREDICTED BY RF-SCORE:    0.00 PKD
ROOT
HETATM    1  N   UNL     1     -11.438  13.478  64.003  1.00  0.00    -0.568 N  
HETATM    2  H1  UNL     1     -10.759  14.159  64.344  1.00  0.00     0.000 HD 
HETATM    3  C   UNL     1     -12.482  13.066  64.763  1.00  0.00    -0.427 C  
HETATM    4  H2  UNL     1     -11.327  13.097  63.064  1.00  0.00     0.000 HD 
HETATM    5  O   UNL     1     -13.295  12.251  64.354  1.00  0.00    -0.786 OA 
ENDROOT
BRANCH   3   6
HETATM    6  N   UNL     1     -12.484  13.631  66.000  1.00  0.00    -0.444 N  
HETATM    7  H   UNL     1     -13.036  14.467  66.194  1.00  0.00     0.000 HD 
BRANCH   6   8
HETATM    8  C   UNL     1     -11.691  13.021  67.022  1.00  0.00    -0.383 C  
HETATM    9  N   UNL     1     -11.880  11.606  67.058  1.00  0.00    -0.575 NA 
HETATM   10  C   UNL     1     -10.685  10.940  67.182  1.00  0.00    -0.270 C  
HETATM   11  O   UNL     1     -10.570   9.749  67.409  1.00  0.00    -0.251 OA 
HETATM   12  N   UNL     1      -9.673  11.820  67.002  1.00  0.00    -0.184 NA 
HETATM   13  C   UNL     1     -10.164  13.073  66.788  1.00  0.00    -0.246 C  
HETATM   14  O   UNL     1      -9.491  14.042  66.470  1.00  0.00    -0.277 OA 
ENDBRANCH   6   8
ENDBRANCH   3   6
TORSDOF 2
ENDMDL
MODEL       54
REMARK 921   NORMALIZED FREE ENERGY PREDICTED BY IDOCK:   -3.66 KCAL/MOL
REMARK 922        TOTAL FREE ENERGY PREDICTED BY IDOCK:   -4.42 KCAL/MOL
REMARK 923 INTER-LIGAND FREE ENERGY PREDICTED BY IDOCK:   -4.26 KCAL/MOL
REMARK 924 INTRA-LIGAND FREE ENERGY PREDICTED BY IDOCK:   -0.16 KCAL/MOL
REMARK 927      BINDING AFFINITY PREDICTED BY RF-SCORE:    0.00 PKD
ROOT
HETATM    1  N   UNL     1     -12.042  10.442  69.655  1.00  0.00    -0.507 N  
HETATM    2  H1  UNL     1     -11.982  10.497  70.672  1.00  0.00     0.000 HD 
HETATM    3  C   UNL     1     -11.651  11.467  68.858  1.00  0.00    -0.323 C  
HETATM    4  H2  UNL     1     -12.408   9.592  69.226  1.00  0.00     0.000 HD 
HETATM    5  O   UNL     1     -11.724  11.401  67.641  1.00  0.00    -0.546 OA 
ENDROOT
BRANCH   3   6
HETATM    6  N   UNL     1     -11.218  12.544  69.567  1.00  0.00    -0.467 N  
HETATM    7  H   UNL     1     -10.300  12.545  70.012  1.00  0.00     0.000 HD 
BRANCH   6   8
HETATM    8  C   UNL     1     -12.085  13.677  69.670  1.00  0.00    -0.321 C  
HETATM    9  N   UNL     1     -11.901  14.367  70.908  1.00  0.00    -0.308 NA 
HETATM   10  C   UNL     1     -11.852  15.727  70.725  1.00  0.00    -0.404 C  
HETATM   11  O   UNL     1     -11.878  16.553  71.620  1.00  0.00    -0.390 OA 
HETATM   12  N   UNL     1     -11.764  15.988  69.400  1.00  0.00    -0.320 NA 
HETATM   13  C   UNL     1     -11.782  14.829  68.684  1.00  0.00    -0.325 C  
HETATM   14  O   UNL     1     -11.589  14.749  67.481  1.00  0.00    -0.347 OA 
ENDBRANCH   6   8
ENDBRANCH   3   6
TORSDOF 2
ENDMDL
MODEL       55
REMARK 921   NORMALIZED FREE ENERGY PREDICTED BY IDOCK:   -3.65 KCAL/MOL
REMARK 922        TOTAL FREE ENERGY PREDICTED BY IDOCK:   -4.40 KCAL/MOL
REMARK 923 INTER-LIGAND FREE ENERGY PREDICTED BY IDOCK:   -4.32 KCAL/MOL
REMARK 924 INTRA-LIGAND FREE ENERGY PREDICTED BY IDOCK:   -0.08 KCAL/MOL
REMARK 927      BINDING AFFINITY PREDICTED BY RF-SCORE:    0.00 PKD
ROOT
HETATM    1  N   UNL     1      -9.337  20.667  66.835  1.00  0.00    -0.640 N  
HETATM    2  H1  UNL     1      -8.956  20.516  67.770  1.00  0.00     0.000 HD 
HETATM    3  C   UNL     1     -10.360  19.921  66.351  1.00  0.00    -0.495 C  
HETATM    4  H2  UNL     1      -8.935  21.399  66.249  1.00  0.00     0.000 HD 
HETATM    5  O   UNL     1     -10.815  20.101  65.232  1.00  0.00    -0.266 OA 
ENDROOT
BRANCH   3   6
HETATM    6  N   UNL     1     -10.770  18.964  67.226  1.00  0.00    -0.461 N  
HETATM    7  H   UNL     1     -11.586  19.112  67.821  1.00  0.00     0.000 HD 
BRANCH   6   8
HETATM    8  C   UNL     1     -10.027  17.744  67.290  1.00  0.00    -0.324 C  
HETATM    9  N   UNL     1     -10.357  16.990  68.459  1.00  0.00    -0.336 NA 
HETATM   10  C   UNL     1     -10.527  15.658  68.168  1.00  0.00    -0.259 C  
HETATM   11  O   UNL     1     -10.640  14.773  68.996  1.00  0.00    -0.235 OA 
HETATM   12  N   UNL     1     -10.554  15.503  66.824  1.00  0.00    -0.304 NA 
HETATM   13  C   UNL     1     -10.377  16.703  66.202  1.00  0.00    -0.330 C  
HETATM   14  O   UNL     1     -10.483  16.888  65.000  1.00  0.00    -0.675 OA 
ENDBRANCH   6   8
ENDBRANCH   3   6
TORSDOF 2
ENDMDL
MODEL       56
REMARK 921   NORMALIZED FREE ENERGY PREDICTED BY IDOCK:   -3.64 KCAL/MOL
REMARK 922        TOTAL FREE ENERGY PREDICTED BY IDOCK:   -4.39 KCAL/MOL
REMARK 923 INTER-LIGAND FREE ENERGY PREDICTED BY IDOCK:   -4.11 KCAL/MOL
REMARK 924 INTRA-LIGAND FREE ENERGY PREDICTED BY IDOCK:   -0.28 KCAL/MOL
REMARK 927      BINDING AFFINITY PREDICTED BY RF-SCORE:    0.00 PKD
ROOT
HETATM    1  N   UNL     1     -11.782  14.177  70.652  1.00  0.00    -0.485 N  
HETATM    2  H1  UNL     1     -11.908  15.184  70.750  1.00  0.00     0.000 HD 
HETATM    3  C   UNL     1     -11.778  13.570  69.440  1.00  0.00    -0.325 C  
HETATM    4  H2  UNL     1     -11.656  13.610  71.490  1.00  0.00     0.000 HD 
HETATM    5  O   UNL     1     -11.628  12.364  69.323  1.00  0.00    -0.282 OA 
ENDROOT
BRANCH   3   6
HETATM    6  N   UNL     1     -11.990  14.443  68.418  1.00  0.00    -0.502 N  
HETATM    7  H   UNL     1     -12.935  14.658  68.099  1.00  0.00     0.000 HD 
BRANCH   6   8
HETATM    8  C   UNL     1     -10.852  15.051  67.802  1.00  0.00    -0.284 C  
HETATM    9  N   UNL     1     -11.074  15.293  66.411  1.00  0.00    -0.310 NA 
HETATM   10  C   UNL     1     -10.642  16.544  66.042  1.00  0.00    -0.253 C  
HETATM   11  O   UNL     1     -10.553  16.940  64.894  1.00  0.00    -0.702 OA 
HETATM   12  N   UNL     1     -10.346  17.252  67.156  1.00  0.00    -0.322 NA 
HETATM   13  C   UNL     1     -10.543  16.492  68.270  1.00  0.00    -0.326 C  
HETATM   14  O   UNL     1     -10.479  16.905  69.418  1.00  0.00    -0.321 OA 
ENDBRANCH   6   8
ENDBRANCH   3   6
TORSDOF 2
ENDMDL
MODEL       57
REMARK 921   NORMALIZED FREE ENERGY PREDICTED BY IDOCK:   -3.61 KCAL/MOL
REMARK 922        TOTAL FREE ENERGY PREDICTED BY IDOCK:   -4.36 KCAL/MOL
REMARK 923 INTER-LIGAND FREE ENERGY PREDICTED BY IDOCK:   -4.26 KCAL/MOL
REMARK 924 INTRA-LIGAND FREE ENERGY PREDICTED BY IDOCK:   -0.10 KCAL/MOL
REMARK 927      BINDING AFFINITY PREDICTED BY RF-SCORE:    0.00 PKD
ROOT
HETATM    1  N   UNL     1     -12.153  14.551  67.703  1.00  0.00    -0.588 N  
HETATM    2  H1  UNL     1     -11.904  14.306  66.745  1.00  0.00     0.000 HD 
HETATM    3  C   UNL     1     -11.596  15.612  68.338  1.00  0.00    -0.350 C  
HETATM    4  H2  UNL     1     -12.840  13.982  68.197  1.00  0.00     0.000 HD 
HETATM    5  O   UNL     1     -11.894  15.906  69.485  1.00  0.00    -0.345 OA 
ENDROOT
BRANCH   3   6
HETATM    6  N   UNL     1     -10.675  16.256  67.571  1.00  0.00    -0.316 N  
HETATM    7  H   UNL     1      -9.931  15.740  67.101  1.00  0.00     0.000 HD 
BRANCH   6   8
HETATM    8  C   UNL     1     -10.778  17.676  67.442  1.00  0.00    -0.258 C  
HETATM    9  N   UNL     1      -9.791  18.347  68.227  1.00  0.00    -0.339 NA 
HETATM   10  C   UNL     1      -9.197  19.369  67.526  1.00  0.00    -0.308 C  
HETATM   11  O   UNL     1      -8.454  20.205  68.007  1.00  0.00    -0.257 OA 
HETATM   12  N   UNL     1      -9.567  19.281  66.228  1.00  0.00    -0.360 NA 
HETATM   13  C   UNL     1     -10.423  18.237  66.045  1.00  0.00    -0.361 C  
HETATM   14  O   UNL     1     -10.820  17.840  64.960  1.00  0.00    -0.774 OA 
ENDBRANCH   6   8
ENDBRANCH   3   6
TORSDOF 2
ENDMDL
MODEL       58
REMARK 921   NORMALIZED FREE ENERGY PREDICTED BY IDOCK:   -3.60 KCAL/MOL
REMARK 922        TOTAL FREE ENERGY PREDICTED BY IDOCK:   -4.35 KCAL/MOL
REMARK 923 INTER-LIGAND FREE ENERGY PREDICTED BY IDOCK:   -4.03 KCAL/MOL
REMARK 924 INTRA-LIGAND FREE ENERGY PREDICTED BY IDOCK:   -0.33 KCAL/MOL
REMARK 927      BINDING AFFINITY PREDICTED BY RF-SCORE:    0.00 PKD
ROOT
HETATM    1  N   UNL     1     -10.171  12.196  67.952  1.00  0.00    -0.193 N  
HETATM    2  H1  UNL     1      -9.556  12.828  67.439  1.00  0.00     0.000 HD 
HETATM    3  C   UNL     1     -11.426  11.913  67.524  1.00  0.00    -0.326 C  
HETATM    4  H2  UNL     1      -9.831  11.765  68.812  1.00  0.00     0.000 HD 
HETATM    5  O   UNL     1     -12.161  11.157  68.139  1.00  0.00    -0.612 OA 
ENDROOT
BRANCH   3   6
HETATM    6  N   UNL     1     -11.754  12.583  66.386  1.00  0.00    -0.394 N  
HETATM    7  H   UNL     1     -11.785  12.104  65.486  1.00  0.00     0.000 HD 
BRANCH   6   8
HETATM    8  C   UNL     1     -12.054  13.978  66.486  1.00  0.00    -0.459 C  
HETATM    9  N   UNL     1     -12.030  14.423  67.844  1.00  0.00    -0.343 NA 
HETATM   10  C   UNL     1     -11.365  15.619  67.970  1.00  0.00    -0.324 C  
HETATM   11  O   UNL     1     -11.346  16.303  68.977  1.00  0.00    -0.331 OA 
HETATM   12  N   UNL     1     -10.738  15.897  66.804  1.00  0.00    -0.311 NA 
HETATM   13  C   UNL     1     -10.991  14.924  65.883  1.00  0.00    -0.338 C  
HETATM   14  O   UNL     1     -10.456  14.844  64.788  1.00  0.00    -0.398 OA 
ENDBRANCH   6   8
ENDBRANCH   3   6
TORSDOF 2
ENDMDL
MODEL       59
REMARK 921   NORMALIZED FREE ENERGY PREDICTED BY IDOCK:   -3.60 KCAL/MOL
REMARK 922        TOTAL FREE ENERGY PREDICTED BY IDOCK:   -4.35 KCAL/MOL
REMARK 923 INTER-LIGAND FREE ENERGY PREDICTED BY IDOCK:   -4.15 KCAL/MOL
REMARK 924 INTRA-LIGAND FREE ENERGY PREDICTED BY IDOCK:   -0.20 KCAL/MOL
REMARK 927      BINDING AFFINITY PREDICTED BY RF-SCORE:    0.00 PKD
ROOT
HETATM    1  N   UNL     1     -11.696  14.071  71.159  1.00  0.00    -0.458 N  
HETATM    2  H1  UNL     1     -10.817  13.662  70.842  1.00  0.00     0.000 HD 
HETATM    3  C   UNL     1     -12.134  15.269  70.701  1.00  0.00    -0.354 C  
HETATM    4  H2  UNL     1     -12.261  13.564  71.841  1.00  0.00     0.000 HD 
HETATM    5  O   UNL     1     -13.186  15.758  71.081  1.00  0.00    -0.526 OA 
ENDROOT
BRANCH   3   6
HETATM    6  N   UNL     1     -11.266  15.844  69.826  1.00  0.00    -0.311 N  
HETATM    7  H   UNL     1     -10.364  16.201  70.141  1.00  0.00     0.000 HD 
BRANCH   6   8
HETATM    8  C   UNL     1     -11.651  15.933  68.452  1.00  0.00    -0.315 C  
HETATM    9  N   UNL     1     -10.758  16.764  67.709  1.00  0.00    -0.338 NA 
HETATM   10  C   UNL     1     -10.427  16.198  66.502  1.00  0.00    -0.297 C  
HETATM   11  O   UNL     1      -9.827  16.764  65.607  1.00  0.00    -0.544 OA 
HETATM   12  N   UNL     1     -10.868  14.919  66.484  1.00  0.00    -0.317 NA 
HETATM   13  C   UNL     1     -11.517  14.621  67.645  1.00  0.00    -0.346 C  
HETATM   14  O   UNL     1     -11.907  13.508  67.960  1.00  0.00    -0.341 OA 
ENDBRANCH   6   8
ENDBRANCH   3   6
TORSDOF 2
ENDMDL
MODEL       60
REMARK 921   NORMALIZED FREE ENERGY PREDICTED BY IDOCK:   -3.60 KCAL/MOL
REMARK 922        TOTAL FREE ENERGY PREDICTED BY IDOCK:   -4.35 KCAL/MOL
REMARK 923 INTER-LIGAND FREE ENERGY PREDICTED BY IDOCK:   -4.03 KCAL/MOL
REMARK 924 INTRA-LIGAND FREE ENERGY PREDICTED BY IDOCK:   -0.32 KCAL/MOL
REMARK 927      BINDING AFFINITY PREDICTED BY RF-SCORE:    0.00 PKD
ROOT
HETATM    1  N   UNL     1     -12.383  10.716  69.567  1.00  0.00    -0.548 N  
HETATM    2  H1  UNL     1     -12.130   9.983  68.905  1.00  0.00     0.000 HD 
HETATM    3  C   UNL     1     -12.780  10.433  70.831  1.00  0.00    -0.385 C  
HETATM    4  H2  UNL     1     -12.337  11.690  69.267  1.00  0.00     0.000 HD 
HETATM    5  O   UNL     1     -13.084  11.311  71.624  1.00  0.00    -0.451 OA 
ENDROOT
BRANCH   3   6
HETATM    6  N   UNL     1     -12.826   9.096  71.078  1.00  0.00    -0.517 N  
HETATM    7  H   UNL     1     -13.710   8.631  71.284  1.00  0.00     0.000 HD 
BRANCH   6   8
HETATM    8  C   UNL     1     -11.600   8.360  71.041  1.00  0.00    -0.275 C  
HETATM    9  N   UNL     1     -10.520   9.112  71.598  1.00  0.00    -0.351 NA 
HETATM   10  C   UNL     1      -9.749   8.343  72.435  1.00  0.00    -0.306 C  
HETATM   11  O   UNL     1      -8.676   8.681  72.901  1.00  0.00    -0.384 OA 
HETATM   12  N   UNL     1     -10.381   7.167  72.656  1.00  0.00    -0.202 NA 
HETATM   13  C   UNL     1     -11.552   7.117  71.960  1.00  0.00    -0.280 C  
HETATM   14  O   UNL     1     -12.390   6.235  72.066  1.00  0.00    -0.328 OA 
ENDBRANCH   6   8
ENDBRANCH   3   6
TORSDOF 2
ENDMDL
MODEL       61
REMARK 921   NORMALIZED FREE ENERGY PREDICTED BY IDOCK:   -3.55 KCAL/MOL
REMARK 922        TOTAL FREE ENERGY PREDICTED BY IDOCK:   -4.30 KCAL/MOL
REMARK 923 INTER-LIGAND FREE ENERGY PREDICTED BY IDOCK:   -3.96 KCAL/MOL
REMARK 924 INTRA-LIGAND FREE ENERGY PREDICTED BY IDOCK:   -0.34 KCAL/MOL
REMARK 927      BINDING AFFINITY PREDICTED BY RF-SCORE:    0.00 PKD
ROOT
HETATM    1  N   UNL     1     -11.017   7.995  68.535  1.00  0.00    -0.414 N  
HETATM    2  H1  UNL     1     -11.876   8.436  68.207  1.00  0.00     0.000 HD 
HETATM    3  C   UNL     1     -10.851   7.628  69.829  1.00  0.00    -0.217 C  
HETATM    4  H2  UNL     1     -10.262   7.826  67.871  1.00  0.00     0.000 HD 
HETATM    5  O   UNL     1      -9.823   7.100  70.223  1.00  0.00    -0.176 OA 
ENDROOT
BRANCH   3   6
HETATM    6  N   UNL     1     -11.923   7.945  70.605  1.00  0.00    -0.483 N  
HETATM    7  H   UNL     1     -12.752   7.352  70.621  1.00  0.00     0.000 HD 
BRANCH   6   8
HETATM    8  C   UNL     1     -11.855   9.133  71.398  1.00  0.00    -0.345 C  
HETATM    9  N   UNL     1     -11.464  10.263  70.617  1.00  0.00    -0.329 NA 
HETATM   10  C   UNL     1     -12.235  11.364  70.900  1.00  0.00    -0.344 C  
HETATM   11  O   UNL     1     -12.007  12.495  70.510  1.00  0.00    -0.326 OA 
HETATM   12  N   UNL     1     -13.281  10.980  71.669  1.00  0.00    -0.401 NA 
HETATM   13  C   UNL     1     -13.213   9.645  71.933  1.00  0.00    -0.446 C  
HETATM   14  O   UNL     1     -14.085   8.999  72.493  1.00  0.00    -0.483 OA 
ENDBRANCH   6   8
ENDBRANCH   3   6
TORSDOF 2
ENDMDL
MODEL       62
REMARK 921   NORMALIZED FREE ENERGY PREDICTED BY IDOCK:   -3.55 KCAL/MOL
REMARK 922        TOTAL FREE ENERGY PREDICTED BY IDOCK:   -4.30 KCAL/MOL
REMARK 923 INTER-LIGAND FREE ENERGY PREDICTED BY IDOCK:   -3.87 KCAL/MOL
REMARK 924 INTRA-LIGAND FREE ENERGY PREDICTED BY IDOCK:   -0.43 KCAL/MOL
REMARK 927      BINDING AFFINITY PREDICTED BY RF-SCORE:    0.00 PKD
ROOT
HETATM    1  N   UNL     1      -9.307  20.361  66.284  1.00  0.00    -0.634 N  
HETATM    2  H1  UNL     1      -9.186  20.241  65.279  1.00  0.00     0.000 HD 
HETATM    3  C   UNL     1     -10.122  19.555  67.008  1.00  0.00    -0.397 C  
HETATM    4  H2  UNL     1      -8.801  21.109  66.759  1.00  0.00     0.000 HD 
HETATM    5  O   UNL     1     -10.267  19.698  68.212  1.00  0.00    -0.420 OA 
ENDROOT
BRANCH   3   6
HETATM    6  N   UNL     1     -10.755  18.627  66.240  1.00  0.00    -0.313 N  
HETATM    7  H   UNL     1     -11.657  18.830  65.810  1.00  0.00     0.000 HD 
BRANCH   6   8
HETATM    8  C   UNL     1     -10.122  17.358  66.054  1.00  0.00    -0.262 C  
HETATM    9  N   UNL     1      -8.705  17.494  65.921  1.00  0.00    -0.529 NA 
HETATM   10  C   UNL     1      -8.036  16.552  66.663  1.00  0.00    -0.278 C  
HETATM   11  O   UNL     1      -6.841  16.332  66.597  1.00  0.00    -0.229 OA 
HETATM   12  N   UNL     1      -8.920  15.926  67.475  1.00  0.00    -0.192 NA 
HETATM   13  C   UNL     1     -10.178  16.409  67.273  1.00  0.00    -0.278 C  
HETATM   14  O   UNL     1     -11.153  16.124  67.951  1.00  0.00    -0.340 OA 
ENDBRANCH   6   8
ENDBRANCH   3   6
TORSDOF 2
ENDMDL
MODEL       63
REMARK 921   NORMALIZED FREE ENERGY PREDICTED BY IDOCK:   -3.54 KCAL/MOL
REMARK 922        TOTAL FREE ENERGY PREDICTED BY IDOCK:   -4.29 KCAL/MOL
REMARK 923 INTER-LIGAND FREE ENERGY PREDICTED BY IDOCK:   -3.98 KCAL/MOL
REMARK 924 INTRA-LIGAND FREE ENERGY PREDICTED BY IDOCK:   -0.30 KCAL/MOL
REMARK 927      BINDING AFFINITY PREDICTED BY RF-SCORE:    0.00 PKD
ROOT
HETATM    1  N   UNL     1     -13.881   8.990  72.862  1.00  0.00    -0.923 N  
HETATM    2  H1  UNL     1     -13.884   7.972  72.808  1.00  0.00     0.000 HD 
HETATM    3  C   UNL     1     -13.195   9.752  71.976  1.00  0.00    -0.460 C  
HETATM    4  H2  UNL     1     -14.409   9.448  73.605  1.00  0.00     0.000 HD 
HETATM    5  O   UNL     1     -13.191  10.971  72.041  1.00  0.00    -0.499 OA 
ENDROOT
BRANCH   3   6
HETATM    6  N   UNL     1     -12.512   9.008  71.064  1.00  0.00    -0.471 N  
HETATM    7  H   UNL     1     -12.926   8.774  70.162  1.00  0.00     0.000 HD 
BRANCH   6   8
HETATM    8  C   UNL     1     -11.197   8.561  71.406  1.00  0.00    -0.266 C  
HETATM    9  N   UNL     1     -11.204   7.778  72.601  1.00  0.00    -0.354 NA 
HETATM   10  C   UNL     1     -10.427   6.653  72.471  1.00  0.00    -0.205 C  
HETATM   11  O   UNL     1     -10.119   5.909  73.385  1.00  0.00    -0.177 OA 
HETATM   12  N   UNL     1     -10.075   6.511  71.173  1.00  0.00    -0.183 NA 
HETATM   13  C   UNL     1     -10.576   7.536  70.428  1.00  0.00    -0.229 C  
HETATM   14  O   UNL     1     -10.528   7.603  69.209  1.00  0.00    -0.215 OA 
ENDBRANCH   6   8
ENDBRANCH   3   6
TORSDOF 2
ENDMDL
MODEL       64
REMARK 921   NORMALIZED FREE ENERGY PREDICTED BY IDOCK:   -3.54 KCAL/MOL
REMARK 922        TOTAL FREE ENERGY PREDICTED BY IDOCK:   -4.28 KCAL/MOL
REMARK 923 INTER-LIGAND FREE ENERGY PREDICTED BY IDOCK:   -3.97 KCAL/MOL
REMARK 924 INTRA-LIGAND FREE ENERGY PREDICTED BY IDOCK:   -0.32 KCAL/MOL
REMARK 927      BINDING AFFINITY PREDICTED BY RF-SCORE:    0.00 PKD
ROOT
HETATM    1  N   UNL     1     -10.104   6.055  71.293  1.00  0.00    -0.188 N  
HETATM    2  H1  UNL     1      -9.498   6.093  72.113  1.00  0.00     0.000 HD 
HETATM    3  C   UNL     1     -11.369   6.543  71.315  1.00  0.00    -0.303 C  
HETATM    4  H2  UNL     1      -9.749   5.637  70.433  1.00  0.00     0.000 HD 
HETATM    5  O   UNL     1     -12.094   6.496  70.334  1.00  0.00    -0.360 OA 
ENDROOT
BRANCH   3   6
HETATM    6  N   UNL     1     -11.717   7.037  72.534  1.00  0.00    -0.457 N  
HETATM    7  H   UNL     1     -11.885   6.415  73.324  1.00  0.00     0.000 HD 
BRANCH   6   8
HETATM    8  C   UNL     1     -11.842   8.455  72.676  1.00  0.00    -0.290 C  
HETATM    9  N   UNL     1     -11.033   9.151  71.726  1.00  0.00    -0.370 NA 
HETATM   10  C   UNL     1     -11.716  10.193  71.149  1.00  0.00    -0.366 C  
HETATM   11  O   UNL     1     -11.216  11.049  70.442  1.00  0.00    -0.232 OA 
HETATM   12  N   UNL     1     -13.023  10.102  71.489  1.00  0.00    -0.408 NA 
HETATM   13  C   UNL     1     -13.228   9.033  72.310  1.00  0.00    -0.460 C  
HETATM   14  O   UNL     1     -14.323   8.631  72.671  1.00  0.00    -0.533 OA 
ENDBRANCH   6   8
ENDBRANCH   3   6
TORSDOF 2
ENDMDL
MODEL       65
REMARK 921   NORMALIZED FREE ENERGY PREDICTED BY IDOCK:   -3.53 KCAL/MOL
REMARK 922        TOTAL FREE ENERGY PREDICTED BY IDOCK:   -4.27 KCAL/MOL
REMARK 923 INTER-LIGAND FREE ENERGY PREDICTED BY IDOCK:   -3.99 KCAL/MOL
REMARK 924 INTRA-LIGAND FREE ENERGY PREDICTED BY IDOCK:   -0.28 KCAL/MOL
REMARK 927      BINDING AFFINITY PREDICTED BY RF-SCORE:    0.00 PKD
ROOT
HETATM    1  N   UNL     1      -9.795  14.885  67.235  1.00  0.00    -0.228 N  
HETATM    2  H1  UNL     1     -10.206  15.256  66.378  1.00  0.00     0.000 HD 
HETATM    3  C   UNL     1      -9.186  13.675  67.270  1.00  0.00    -0.232 C  
HETATM    4  H2  UNL     1      -9.844  15.441  68.088  1.00  0.00     0.000 HD 
HETATM    5  O   UNL     1      -8.694  13.231  68.295  1.00  0.00    -0.176 OA 
ENDROOT
BRANCH   3   6
HETATM    6  N   UNL     1      -9.225  13.034  66.071  1.00  0.00    -0.462 N  
HETATM    7  H   UNL     1      -8.378  12.900  65.519  1.00  0.00     0.000 HD 
BRANCH   6   8
HETATM    8  C   UNL     1     -10.488  12.552  65.604  1.00  0.00    -0.273 C  
HETATM    9  N   UNL     1     -11.247  13.590  64.979  1.00  0.00    -0.312 NA 
HETATM   10  C   UNL     1     -11.822  13.160  63.808  1.00  0.00    -0.486 C  
HETATM   11  O   UNL     1     -12.653  13.780  63.170  1.00  0.00    -0.793 OA 
HETATM   12  N   UNL     1     -11.307  11.950  63.486  1.00  0.00    -0.430 NA 
HETATM   13  C   UNL     1     -10.416  11.544  64.434  1.00  0.00    -0.325 C  
HETATM   14  O   UNL     1      -9.703  10.556  64.344  1.00  0.00    -0.274 OA 
ENDBRANCH   6   8
ENDBRANCH   3   6
TORSDOF 2
ENDMDL
MODEL       66
REMARK 921   NORMALIZED FREE ENERGY PREDICTED BY IDOCK:   -3.52 KCAL/MOL
REMARK 922        TOTAL FREE ENERGY PREDICTED BY IDOCK:   -4.27 KCAL/MOL
REMARK 923 INTER-LIGAND FREE ENERGY PREDICTED BY IDOCK:   -3.97 KCAL/MOL
REMARK 924 INTRA-LIGAND FREE ENERGY PREDICTED BY IDOCK:   -0.30 KCAL/MOL
REMARK 927      BINDING AFFINITY PREDICTED BY RF-SCORE:    0.00 PKD
ROOT
HETATM    1  N   UNL     1     -11.012   8.920  68.537  1.00  0.00    -0.454 N  
HETATM    2  H1  UNL     1     -10.490   8.321  69.177  1.00  0.00     0.000 HD 
HETATM    3  C   UNL     1     -11.248  10.227  68.812  1.00  0.00    -0.206 C  
HETATM    4  H2  UNL     1     -11.367   8.524  67.667  1.00  0.00     0.000 HD 
HETATM    5  O   UNL     1     -11.873  10.943  68.046  1.00  0.00    -0.585 OA 
ENDROOT
BRANCH   3   6
HETATM    6  N   UNL     1     -10.746  10.606  70.018  1.00  0.00    -0.448 N  
HETATM    7  H   UNL     1      -9.898  11.170  70.079  1.00  0.00     0.000 HD 
BRANCH   6   8
HETATM    8  C   UNL     1     -11.440  10.195  71.198  1.00  0.00    -0.307 C  
HETATM    9  N   UNL     1     -12.732   9.668  70.890  1.00  0.00    -0.248 NA 
HETATM   10  C   UNL     1     -12.988   8.515  71.591  1.00  0.00    -0.343 C  
HETATM   11  O   UNL     1     -14.069   7.959  71.650  1.00  0.00    -0.397 OA 
HETATM   12  N   UNL     1     -11.845   8.104  72.189  1.00  0.00    -0.336 NA 
HETATM   13  C   UNL     1     -10.831   8.975  71.928  1.00  0.00    -0.343 C  
HETATM   14  O   UNL     1      -9.661   8.795  72.229  1.00  0.00    -0.301 OA 
ENDBRANCH   6   8
ENDBRANCH   3   6
TORSDOF 2
ENDMDL
MODEL       67
REMARK 921   NORMALIZED FREE ENERGY PREDICTED BY IDOCK:   -3.51 KCAL/MOL
REMARK 922        TOTAL FREE ENERGY PREDICTED BY IDOCK:   -4.25 KCAL/MOL
REMARK 923 INTER-LIGAND FREE ENERGY PREDICTED BY IDOCK:   -4.10 KCAL/MOL
REMARK 924 INTRA-LIGAND FREE ENERGY PREDICTED BY IDOCK:   -0.15 KCAL/MOL
REMARK 927      BINDING AFFINITY PREDICTED BY RF-SCORE:    0.00 PKD
ROOT
HETATM    1  N   UNL     1      -9.478   9.485  62.921  1.00  0.00    -0.530 N  
HETATM    2  H1  UNL     1     -10.483   9.523  63.088  1.00  0.00     0.000 HD 
HETATM    3  C   UNL     1      -8.652  10.494  63.293  1.00  0.00    -0.179 C  
HETATM    4  H2  UNL     1      -9.083   8.665  62.461  1.00  0.00     0.000 HD 
HETATM    5  O   UNL     1      -7.449  10.449  63.092  1.00  0.00    -0.143 OA 
ENDROOT
BRANCH   3   6
HETATM    6  N   UNL     1      -9.320  11.533  63.863  1.00  0.00    -0.441 N  
HETATM    7  H   UNL     1      -8.927  12.474  63.858  1.00  0.00     0.000 HD 
BRANCH   6   8
HETATM    8  C   UNL     1     -10.588  11.269  64.470  1.00  0.00    -0.336 C  
HETATM    9  N   UNL     1     -10.482  11.192  65.893  1.00  0.00    -0.257 NA 
HETATM   10  C   UNL     1     -11.496  11.881  66.513  1.00  0.00    -0.314 C  
HETATM   11  O   UNL     1     -11.744  11.835  67.704  1.00  0.00    -0.487 OA 
HETATM   12  N   UNL     1     -12.156  12.614  65.587  1.00  0.00    -0.519 NA 
HETATM   13  C   UNL     1     -11.624  12.410  64.349  1.00  0.00    -0.354 C  
HETATM   14  O   UNL     1     -11.933  13.034  63.345  1.00  0.00    -0.542 OA 
ENDBRANCH   6   8
ENDBRANCH   3   6
TORSDOF 2
ENDMDL
MODEL       68
REMARK 921   NORMALIZED FREE ENERGY PREDICTED BY IDOCK:   -3.51 KCAL/MOL
REMARK 922        TOTAL FREE ENERGY PREDICTED BY IDOCK:   -4.25 KCAL/MOL
REMARK 923 INTER-LIGAND FREE ENERGY PREDICTED BY IDOCK:   -3.82 KCAL/MOL
REMARK 924 INTRA-LIGAND FREE ENERGY PREDICTED BY IDOCK:   -0.42 KCAL/MOL
REMARK 927      BINDING AFFINITY PREDICTED BY RF-SCORE:    0.00 PKD
ROOT
HETATM    1  N   UNL     1     -12.606   6.379  72.218  1.00  0.00    -0.552 N  
HETATM    2  H1  UNL     1     -12.974   6.862  73.038  1.00  0.00     0.000 HD 
HETATM    3  C   UNL     1     -12.322   7.037  71.067  1.00  0.00    -0.356 C  
HETATM    4  H2  UNL     1     -12.449   5.372  72.265  1.00  0.00     0.000 HD 
HETATM    5  O   UNL     1     -11.882   6.459  70.086  1.00  0.00    -0.409 OA 
ENDROOT
BRANCH   3   6
HETATM    6  N   UNL     1     -12.612   8.364  71.138  1.00  0.00    -0.478 N  
HETATM    7  H   UNL     1     -13.554   8.706  70.946  1.00  0.00     0.000 HD 
BRANCH   6   8
HETATM    8  C   UNL     1     -11.561   9.268  71.490  1.00  0.00    -0.382 C  
HETATM    9  N   UNL     1     -10.578   8.635  72.311  1.00  0.00    -0.336 NA 
HETATM   10  C   UNL     1      -9.304   8.948  71.906  1.00  0.00    -0.205 C  
HETATM   11  O   UNL     1      -8.290   8.688  72.528  1.00  0.00    -0.364 OA 
HETATM   12  N   UNL     1      -9.367   9.579  70.710  1.00  0.00    -0.217 NA 
HETATM   13  C   UNL     1     -10.664   9.722  70.315  1.00  0.00    -0.302 C  
HETATM   14  O   UNL     1     -11.019  10.138  69.223  1.00  0.00    -0.222 OA 
ENDBRANCH   6   8
ENDBRANCH   3   6
TORSDOF 2
ENDMDL
MODEL       69
REMARK 921   NORMALIZED FREE ENERGY PREDICTED BY IDOCK:   -3.50 KCAL/MOL
REMARK 922        TOTAL FREE ENERGY PREDICTED BY IDOCK:   -4.24 KCAL/MOL
REMARK 923 INTER-LIGAND FREE ENERGY PREDICTED BY IDOCK:   -3.90 KCAL/MOL
REMARK 924 INTRA-LIGAND FREE ENERGY PREDICTED BY IDOCK:   -0.34 KCAL/MOL
REMARK 927      BINDING AFFINITY PREDICTED BY RF-SCORE:    0.00 PKD
ROOT
HETATM    1  N   UNL     1     -10.525  16.341  65.967  1.00  0.00    -0.336 N  
HETATM    2  H1  UNL     1     -10.038  15.902  65.186  1.00  0.00     0.000 HD 
HETATM    3  C   UNL     1     -10.560  15.775  67.198  1.00  0.00    -0.313 C  
HETATM    4  H2  UNL     1     -10.999  17.232  65.817  1.00  0.00     0.000 HD 
HETATM    5  O   UNL     1     -11.143  16.300  68.133  1.00  0.00    -0.346 OA 
ENDROOT
BRANCH   3   6
HETATM    6  N   UNL     1      -9.916  14.577  67.241  1.00  0.00    -0.234 N  
HETATM    7  H   UNL     1      -8.908  14.529  67.390  1.00  0.00     0.000 HD 
BRANCH   6   8
HETATM    8  C   UNL     1     -10.691  13.387  67.072  1.00  0.00    -0.268 C  
HETATM    9  N   UNL     1     -11.853  13.627  66.277  1.00  0.00    -0.370 NA 
HETATM   10  C   UNL     1     -12.039  12.637  65.343  1.00  0.00    -0.462 C  
HETATM   11  O   UNL     1     -13.036  12.502  64.658  1.00  0.00    -0.845 OA 
HETATM   12  N   UNL     1     -10.935  11.854  65.310  1.00  0.00    -0.298 NA 
HETATM   13  C   UNL     1     -10.020  12.281  66.225  1.00  0.00    -0.232 C  
HETATM   14  O   UNL     1      -8.883  11.847  66.330  1.00  0.00    -0.197 OA 
ENDBRANCH   6   8
ENDBRANCH   3   6
TORSDOF 2
ENDMDL
MODEL       70
REMARK 921   NORMALIZED FREE ENERGY PREDICTED BY IDOCK:   -3.49 KCAL/MOL
REMARK 922        TOTAL FREE ENERGY PREDICTED BY IDOCK:   -4.23 KCAL/MOL
REMARK 923 INTER-LIGAND FREE ENERGY PREDICTED BY IDOCK:   -4.11 KCAL/MOL
REMARK 924 INTRA-LIGAND FREE ENERGY PREDICTED BY IDOCK:   -0.12 KCAL/MOL
REMARK 927      BINDING AFFINITY PREDICTED BY RF-SCORE:    0.00 PKD
ROOT
HETATM    1  N   UNL     1     -12.382   7.821  72.674  1.00  0.00    -0.575 N  
HETATM    2  H1  UNL     1     -11.514   8.048  73.160  1.00  0.00     0.000 HD 
HETATM    3  C   UNL     1     -13.161   8.780  72.116  1.00  0.00    -0.414 C  
HETATM    4  H2  UNL     1     -12.671   6.845  72.607  1.00  0.00     0.000 HD 
HETATM    5  O   UNL     1     -14.200   8.508  71.535  1.00  0.00    -0.413 OA 
ENDROOT
BRANCH   3   6
HETATM    6  N   UNL     1     -12.670  10.033  72.312  1.00  0.00    -0.264 N  
HETATM    7  H   UNL     1     -11.988  10.220  73.047  1.00  0.00     0.000 HD 
BRANCH   6   8
HETATM    8  C   UNL     1     -13.135  11.082  71.458  1.00  0.00    -0.396 C  
HETATM    9  N   UNL     1     -13.552  12.223  72.209  1.00  0.00    -0.374 NA 
HETATM   10  C   UNL     1     -13.085  13.390  71.654  1.00  0.00    -0.375 C  
HETATM   11  O   UNL     1     -13.431  14.509  71.988  1.00  0.00    -0.328 OA 
HETATM   12  N   UNL     1     -12.181  13.087  70.694  1.00  0.00    -0.359 NA 
HETATM   13  C   UNL     1     -12.051  11.736  70.570  1.00  0.00    -0.347 C  
HETATM   14  O   UNL     1     -11.218  11.176  69.875  1.00  0.00    -0.261 OA 
ENDBRANCH   6   8
ENDBRANCH   3   6
TORSDOF 2
ENDMDL
MODEL       71
REMARK 921   NORMALIZED FREE ENERGY PREDICTED BY IDOCK:   -3.48 KCAL/MOL
REMARK 922        TOTAL FREE ENERGY PREDICTED BY IDOCK:   -4.22 KCAL/MOL
REMARK 923 INTER-LIGAND FREE ENERGY PREDICTED BY IDOCK:   -4.11 KCAL/MOL
REMARK 924 INTRA-LIGAND FREE ENERGY PREDICTED BY IDOCK:   -0.11 KCAL/MOL
REMARK 927      BINDING AFFINITY PREDICTED BY RF-SCORE:    0.00 PKD
ROOT
HETATM    1  N   UNL     1     -11.190   9.791  68.144  1.00  0.00    -0.522 N  
HETATM    2  H1  UNL     1     -12.196   9.669  68.260  1.00  0.00     0.000 HD 
HETATM    3  C   UNL     1     -10.670  10.849  67.475  1.00  0.00    -0.252 C  
HETATM    4  H2  UNL     1     -10.557   9.097  68.542  1.00  0.00     0.000 HD 
HETATM    5  O   UNL     1      -9.466  10.995  67.336  1.00  0.00    -0.159 OA 
ENDROOT
BRANCH   3   6
HETATM    6  N   UNL     1     -11.629  11.672  66.971  1.00  0.00    -0.261 N  
HETATM    7  H   UNL     1     -12.613  11.535  67.203  1.00  0.00     0.000 HD 
BRANCH   6   8
HETATM    8  C   UNL     1     -11.221  12.736  66.107  1.00  0.00    -0.298 C  
HETATM    9  N   UNL     1     -11.760  12.581  64.793  1.00  0.00    -0.342 NA 
HETATM   10  C   UNL     1     -12.254  13.768  64.308  1.00  0.00    -0.400 C  
HETATM   11  O   UNL     1     -12.609  13.957  63.159  1.00  0.00    -0.775 OA 
HETATM   12  N   UNL     1     -12.285  14.673  65.313  1.00  0.00    -0.298 NA 
HETATM   13  C   UNL     1     -11.794  14.128  66.461  1.00  0.00    -0.419 C  
HETATM   14  O   UNL     1     -11.819  14.667  67.557  1.00  0.00    -0.380 OA 
ENDBRANCH   6   8
ENDBRANCH   3   6
TORSDOF 2
ENDMDL
MODEL       72
REMARK 921   NORMALIZED FREE ENERGY PREDICTED BY IDOCK:   -3.47 KCAL/MOL
REMARK 922        TOTAL FREE ENERGY PREDICTED BY IDOCK:   -4.20 KCAL/MOL
REMARK 923 INTER-LIGAND FREE ENERGY PREDICTED BY IDOCK:   -4.10 KCAL/MOL
REMARK 924 INTRA-LIGAND FREE ENERGY PREDICTED BY IDOCK:   -0.10 KCAL/MOL
REMARK 927      BINDING AFFINITY PREDICTED BY RF-SCORE:    0.00 PKD
ROOT
HETATM    1  N   UNL     1     -10.506  16.948  66.752  1.00  0.00    -0.292 N  
HETATM    2  H1  UNL     1     -11.241  17.305  66.141  1.00  0.00     0.000 HD 
HETATM    3  C   UNL     1     -10.296  15.619  66.918  1.00  0.00    -0.293 C  
HETATM    4  H2  UNL     1      -9.912  17.610  67.251  1.00  0.00     0.000 HD 
HETATM    5  O   UNL     1      -9.417  15.192  67.649  1.00  0.00    -0.200 OA 
ENDROOT
BRANCH   3   6
HETATM    6  N   UNL     1     -11.182  14.858  66.220  1.00  0.00    -0.342 N  
HETATM    7  H   UNL     1     -12.134  14.719  66.557  1.00  0.00     0.000 HD 
BRANCH   6   8
HETATM    8  C   UNL     1     -10.741  14.259  64.999  1.00  0.00    -0.420 C  
HETATM    9  N   UNL     1     -10.249  12.934  65.213  1.00  0.00    -0.290 NA 
HETATM   10  C   UNL     1     -10.717  12.062  64.260  1.00  0.00    -0.336 C  
HETATM   11  O   UNL     1     -10.320  10.922  64.103  1.00  0.00    -0.347 OA 
HETATM   12  N   UNL     1     -11.684  12.677  63.541  1.00  0.00    -0.509 NA 
HETATM   13  C   UNL     1     -11.858  13.958  63.973  1.00  0.00    -0.337 C  
HETATM   14  O   UNL     1     -12.747  14.707  63.597  1.00  0.00    -0.735 OA 
ENDBRANCH   6   8
ENDBRANCH   3   6
TORSDOF 2
ENDMDL
MODEL       73
REMARK 921   NORMALIZED FREE ENERGY PREDICTED BY IDOCK:   -3.46 KCAL/MOL
REMARK 922        TOTAL FREE ENERGY PREDICTED BY IDOCK:   -4.19 KCAL/MOL
REMARK 923 INTER-LIGAND FREE ENERGY PREDICTED BY IDOCK:   -4.08 KCAL/MOL
REMARK 924 INTRA-LIGAND FREE ENERGY PREDICTED BY IDOCK:   -0.11 KCAL/MOL
REMARK 927      BINDING AFFINITY PREDICTED BY RF-SCORE:    0.00 PKD
ROOT
HETATM    1  N   UNL     1     -12.914  14.144  64.894  1.00  0.00    -0.683 N  
HETATM    2  H1  UNL     1     -13.758  14.710  64.991  1.00  0.00     0.000 HD 
HETATM    3  C   UNL     1     -12.043  13.978  65.919  1.00  0.00    -0.428 C  
HETATM    4  H2  UNL     1     -12.722  13.691  64.001  1.00  0.00     0.000 HD 
HETATM    5  O   UNL     1     -11.034  13.300  65.803  1.00  0.00    -0.271 OA 
ENDROOT
BRANCH   3   6
HETATM    6  N   UNL     1     -12.410  14.665  67.035  1.00  0.00    -0.459 N  
HETATM    7  H   UNL     1     -13.367  14.994  67.156  1.00  0.00     0.000 HD 
BRANCH   6   8
HETATM    8  C   UNL     1     -11.416  14.913  68.032  1.00  0.00    -0.337 C  
HETATM    9  N   UNL     1     -10.767  16.169  67.825  1.00  0.00    -0.320 NA 
HETATM   10  C   UNL     1     -10.632  16.867  69.001  1.00  0.00    -0.338 C  
HETATM   11  O   UNL     1      -9.968  17.878  69.140  1.00  0.00    -0.303 OA 
HETATM   12  N   UNL     1     -11.360  16.251  69.962  1.00  0.00    -0.318 NA 
HETATM   13  C   UNL     1     -11.960  15.134  69.462  1.00  0.00    -0.321 C  
HETATM   14  O   UNL     1     -12.778  14.453  70.063  1.00  0.00    -0.301 OA 
ENDBRANCH   6   8
ENDBRANCH   3   6
TORSDOF 2
ENDMDL
MODEL       74
REMARK 921   NORMALIZED FREE ENERGY PREDICTED BY IDOCK:   -3.44 KCAL/MOL
REMARK 922        TOTAL FREE ENERGY PREDICTED BY IDOCK:   -4.17 KCAL/MOL
REMARK 923 INTER-LIGAND FREE ENERGY PREDICTED BY IDOCK:   -4.02 KCAL/MOL
REMARK 924 INTRA-LIGAND FREE ENERGY PREDICTED BY IDOCK:   -0.15 KCAL/MOL
REMARK 927      BINDING AFFINITY PREDICTED BY RF-SCORE:    0.00 PKD
ROOT
HETATM    1  N   UNL     1     -11.034   8.795  67.903  1.00  0.00    -0.491 N  
HETATM    2  H1  UNL     1     -11.936   8.342  68.057  1.00  0.00     0.000 HD 
HETATM    3  C   UNL     1     -10.783  10.055  68.334  1.00  0.00    -0.234 C  
HETATM    4  H2  UNL     1     -10.302   8.284  67.410  1.00  0.00     0.000 HD 
HETATM    5  O   UNL     1      -9.705  10.597  68.150  1.00  0.00    -0.151 OA 
ENDROOT
BRANCH   3   6
HETATM    6  N   UNL     1     -11.859  10.624  68.942  1.00  0.00    -0.506 N  
HETATM    7  H   UNL     1     -12.717  10.812  68.423  1.00  0.00     0.000 HD 
BRANCH   6   8
HETATM    8  C   UNL     1     -11.756  10.950  70.331  1.00  0.00    -0.350 C  
HETATM    9  N   UNL     1     -12.274  12.254  70.603  1.00  0.00    -0.357 NA 
HETATM   10  C   UNL     1     -13.064  12.258  71.727  1.00  0.00    -0.344 C  
HETATM   11  O   UNL     1     -13.485  13.258  72.280  1.00  0.00    -0.516 OA 
HETATM   12  N   UNL     1     -13.295  10.979  72.104  1.00  0.00    -0.357 NA 
HETATM   13  C   UNL     1     -12.652  10.113  71.272  1.00  0.00    -0.404 C  
HETATM   14  O   UNL     1     -12.783   8.898  71.292  1.00  0.00    -0.313 OA 
ENDBRANCH   6   8
ENDBRANCH   3   6
TORSDOF 2
ENDMDL
MODEL       75
REMARK 921   NORMALIZED FREE ENERGY PREDICTED BY IDOCK:   -3.44 KCAL/MOL
REMARK 922        TOTAL FREE ENERGY PREDICTED BY IDOCK:   -4.17 KCAL/MOL
REMARK 923 INTER-LIGAND FREE ENERGY PREDICTED BY IDOCK:   -3.74 KCAL/MOL
REMARK 924 INTRA-LIGAND FREE ENERGY PREDICTED BY IDOCK:   -0.43 KCAL/MOL
REMARK 927      BINDING AFFINITY PREDICTED BY RF-SCORE:    0.00 PKD
ROOT
HETATM    1  N   UNL     1     -10.465  11.452  69.341  1.00  0.00    -0.434 N  
HETATM    2  H1  UNL     1      -9.899  10.925  68.676  1.00  0.00     0.000 HD 
HETATM    3  C   UNL     1     -11.528  10.897  69.973  1.00  0.00    -0.329 C  
HETATM    4  H2  UNL     1     -10.224  12.424  69.535  1.00  0.00     0.000 HD 
HETATM    5  O   UNL     1     -12.206  11.528  70.768  1.00  0.00    -0.374 OA 
ENDROOT
BRANCH   3   6
HETATM    6  N   UNL     1     -11.750   9.610  69.592  1.00  0.00    -0.445 N  
HETATM    7  H   UNL     1     -12.331   9.396  68.782  1.00  0.00     0.000 HD 
BRANCH   6   8
HETATM    8  C   UNL     1     -11.146   8.565  70.359  1.00  0.00    -0.231 C  
HETATM    9  N   UNL     1      -9.927   8.998  70.967  1.00  0.00    -0.253 NA 
HETATM   10  C   UNL     1      -9.844   8.591  72.276  1.00  0.00    -0.313 C  
HETATM   11  O   UNL     1      -8.846   8.673  72.969  1.00  0.00    -0.355 OA 
HETATM   12  N   UNL     1     -11.045   8.100  72.659  1.00  0.00    -0.384 NA 
HETATM   13  C   UNL     1     -11.929   8.141  71.623  1.00  0.00    -0.300 C  
HETATM   14  O   UNL     1     -13.120   7.883  71.711  1.00  0.00    -0.323 OA 
ENDBRANCH   6   8
ENDBRANCH   3   6
TORSDOF 2
ENDMDL
MODEL       76
REMARK 921   NORMALIZED FREE ENERGY PREDICTED BY IDOCK:   -3.43 KCAL/MOL
REMARK 922        TOTAL FREE ENERGY PREDICTED BY IDOCK:   -4.16 KCAL/MOL
REMARK 923 INTER-LIGAND FREE ENERGY PREDICTED BY IDOCK:   -3.96 KCAL/MOL
REMARK 924 INTRA-LIGAND FREE ENERGY PREDICTED BY IDOCK:   -0.20 KCAL/MOL
REMARK 927      BINDING AFFINITY PREDICTED BY RF-SCORE:    0.00 PKD
ROOT
HETATM    1  N   UNL     1     -12.122   7.987  72.827  1.00  0.00    -0.615 N  
HETATM    2  H1  UNL     1     -11.233   7.562  72.563  1.00  0.00     0.000 HD 
HETATM    3  C   UNL     1     -12.830   8.759  71.967  1.00  0.00    -0.390 C  
HETATM    4  H2  UNL     1     -12.487   7.828  73.766  1.00  0.00     0.000 HD 
HETATM    5  O   UNL     1     -13.893   9.269  72.284  1.00  0.00    -0.453 OA 
ENDROOT
BRANCH   3   6
HETATM    6  N   UNL     1     -12.207   8.912  70.767  1.00  0.00    -0.484 N  
HETATM    7  H   UNL     1     -12.410   8.287  69.987  1.00  0.00     0.000 HD 
BRANCH   6   8
HETATM    8  C   UNL     1     -11.258   9.974  70.629  1.00  0.00    -0.350 C  
HETATM    9  N   UNL     1      -9.918   9.479  70.597  1.00  0.00    -0.279 NA 
HETATM   10  C   UNL     1      -9.180  10.086  69.610  1.00  0.00    -0.215 C  
HETATM   11  O   UNL     1      -7.975   9.980  69.476  1.00  0.00    -0.127 OA 
HETATM   12  N   UNL     1     -10.012  10.803  68.819  1.00  0.00    -0.186 NA 
HETATM   13  C   UNL     1     -11.294  10.715  69.272  1.00  0.00    -0.282 C  
HETATM   14  O   UNL     1     -12.273  11.153  68.688  1.00  0.00    -0.582 OA 
ENDBRANCH   6   8
ENDBRANCH   3   6
TORSDOF 2
ENDMDL
MODEL       77
REMARK 921   NORMALIZED FREE ENERGY PREDICTED BY IDOCK:   -3.40 KCAL/MOL
REMARK 922        TOTAL FREE ENERGY PREDICTED BY IDOCK:   -4.13 KCAL/MOL
REMARK 923 INTER-LIGAND FREE ENERGY PREDICTED BY IDOCK:   -3.88 KCAL/MOL
REMARK 924 INTRA-LIGAND FREE ENERGY PREDICTED BY IDOCK:   -0.25 KCAL/MOL
REMARK 927      BINDING AFFINITY PREDICTED BY RF-SCORE:    0.00 PKD
ROOT
HETATM    1  N   UNL     1     -12.374  14.207  67.332  1.00  0.00    -0.562 N  
HETATM    2  H1  UNL     1     -11.908  14.474  68.199  1.00  0.00     0.000 HD 
HETATM    3  C   UNL     1     -11.677  13.906  66.209  1.00  0.00    -0.383 C  
HETATM    4  H2  UNL     1     -13.393  14.166  67.309  1.00  0.00     0.000 HD 
HETATM    5  O   UNL     1     -12.235  13.587  65.171  1.00  0.00    -0.382 OA 
ENDROOT
BRANCH   3   6
HETATM    6  N   UNL     1     -10.333  14.035  66.376  1.00  0.00    -0.283 N  
HETATM    7  H   UNL     1      -9.802  13.345  66.906  1.00  0.00     0.000 HD 
BRANCH   6   8
HETATM    8  C   UNL     1      -9.685  15.167  65.789  1.00  0.00    -0.344 C  
HETATM    9  N   UNL     1     -10.594  16.254  65.603  1.00  0.00    -0.364 NA 
HETATM   10  C   UNL     1     -10.039  17.448  65.995  1.00  0.00    -0.262 C  
HETATM   11  O   UNL     1     -10.524  18.544  65.785  1.00  0.00    -0.598 OA 
HETATM   12  N   UNL     1      -8.882  17.199  66.651  1.00  0.00    -0.239 NA 
HETATM   13  C   UNL     1      -8.632  15.859  66.684  1.00  0.00    -0.285 C  
HETATM   14  O   UNL     1      -7.729  15.333  67.317  1.00  0.00    -0.181 OA 
ENDBRANCH   6   8
ENDBRANCH   3   6
TORSDOF 2
ENDMDL
MODEL       78
REMARK 921   NORMALIZED FREE ENERGY PREDICTED BY IDOCK:   -3.40 KCAL/MOL
REMARK 922        TOTAL FREE ENERGY PREDICTED BY IDOCK:   -4.13 KCAL/MOL
REMARK 923 INTER-LIGAND FREE ENERGY PREDICTED BY IDOCK:   -3.85 KCAL/MOL
REMARK 924 INTRA-LIGAND FREE ENERGY PREDICTED BY IDOCK:   -0.28 KCAL/MOL
REMARK 927      BINDING AFFINITY PREDICTED BY RF-SCORE:    0.00 PKD
ROOT
HETATM    1  N   UNL     1     -10.268  14.869  64.712  1.00  0.00    -0.440 N  
HETATM    2  H1  UNL     1      -9.845  14.287  65.435  1.00  0.00     0.000 HD 
HETATM    3  C   UNL     1     -10.870  16.048  65.003  1.00  0.00    -0.404 C  
HETATM    4  H2  UNL     1     -10.237  14.554  63.742  1.00  0.00     0.000 HD 
HETATM    5  O   UNL     1     -11.376  16.744  64.138  1.00  0.00    -1.194 OA 
ENDROOT
BRANCH   3   6
HETATM    6  N   UNL     1     -10.865  16.322  66.336  1.00  0.00    -0.175 N  
HETATM    7  H   UNL     1     -11.448  17.065  66.721  1.00  0.00     0.000 HD 
BRANCH   6   8
HETATM    8  C   UNL     1     -10.021  15.538  67.184  1.00  0.00    -0.242 C  
HETATM    9  N   UNL     1      -8.746  16.157  67.371  1.00  0.00    -0.177 NA 
HETATM   10  C   UNL     1      -8.353  16.115  68.686  1.00  0.00    -0.211 C  
HETATM   11  O   UNL     1      -7.244  16.411  69.093  1.00  0.00    -0.205 OA 
HETATM   12  N   UNL     1      -9.397  15.702  69.442  1.00  0.00    -0.271 NA 
HETATM   13  C   UNL     1     -10.479  15.438  68.657  1.00  0.00    -0.237 C  
HETATM   14  O   UNL     1     -11.596  15.173  69.074  1.00  0.00    -0.294 OA 
ENDBRANCH   6   8
ENDBRANCH   3   6
TORSDOF 2
ENDMDL
MODEL       79
REMARK 921   NORMALIZED FREE ENERGY PREDICTED BY IDOCK:   -3.38 KCAL/MOL
REMARK 922        TOTAL FREE ENERGY PREDICTED BY IDOCK:   -4.11 KCAL/MOL
REMARK 923 INTER-LIGAND FREE ENERGY PREDICTED BY IDOCK:   -4.24 KCAL/MOL
REMARK 924 INTRA-LIGAND FREE ENERGY PREDICTED BY IDOCK:    0.13 KCAL/MOL
REMARK 927      BINDING AFFINITY PREDICTED BY RF-SCORE:    0.00 PKD
ROOT
HETATM    1  N   UNL     1      -6.793  20.887  66.274  1.00  0.00    -0.480 N  
HETATM    2  H1  UNL     1      -6.880  21.765  66.786  1.00  0.00     0.000 HD 
HETATM    3  C   UNL     1      -7.854  20.067  66.075  1.00  0.00    -0.286 C  
HETATM    4  H2  UNL     1      -5.882  20.619  65.902  1.00  0.00     0.000 HD 
HETATM    5  O   UNL     1      -7.750  19.016  65.462  1.00  0.00    -0.436 OA 
ENDROOT
BRANCH   3   6
HETATM    6  N   UNL     1      -8.993  20.535  66.654  1.00  0.00    -0.568 N  
HETATM    7  H   UNL     1      -9.469  21.358  66.284  1.00  0.00     0.000 HD 
BRANCH   6   8
HETATM    8  C   UNL     1      -9.504  19.841  67.795  1.00  0.00    -0.350 C  
HETATM    9  N   UNL     1     -10.495  18.881  67.424  1.00  0.00    -0.425 NA 
HETATM   10  C   UNL     1     -10.311  17.687  68.078  1.00  0.00    -0.375 C  
HETATM   11  O   UNL     1     -11.104  16.763  68.081  1.00  0.00    -0.363 OA 
HETATM   12  N   UNL     1      -9.111  17.711  68.703  1.00  0.00    -0.281 NA 
HETATM   13  C   UNL     1      -8.495  18.911  68.506  1.00  0.00    -0.349 C  
HETATM   14  O   UNL     1      -7.350  19.171  68.843  1.00  0.00    -0.327 OA 
ENDBRANCH   6   8
ENDBRANCH   3   6
TORSDOF 2
ENDMDL
MODEL       80
REMARK 921   NORMALIZED FREE ENERGY PREDICTED BY IDOCK:   -3.38 KCAL/MOL
REMARK 922        TOTAL FREE ENERGY PREDICTED BY IDOCK:   -4.11 KCAL/MOL
REMARK 923 INTER-LIGAND FREE ENERGY PREDICTED BY IDOCK:   -4.00 KCAL/MOL
REMARK 924 INTRA-LIGAND FREE ENERGY PREDICTED BY IDOCK:   -0.11 KCAL/MOL
REMARK 927      BINDING AFFINITY PREDICTED BY RF-SCORE:    0.00 PKD
ROOT
HETATM    1  N   UNL     1     -11.766  12.079  65.497  1.00  0.00    -0.316 N  
HETATM    2  H1  UNL     1     -10.882  11.700  65.837  1.00  0.00     0.000 HD 
HETATM    3  C   UNL     1     -12.070  13.396  65.609  1.00  0.00    -0.434 C  
HETATM    4  H2  UNL     1     -12.440  11.450  65.060  1.00  0.00     0.000 HD 
HETATM    5  O   UNL     1     -13.128  13.850  65.202  1.00  0.00    -0.773 OA 
ENDROOT
BRANCH   3   6
HETATM    6  N   UNL     1     -11.096  14.106  66.240  1.00  0.00    -0.314 N  
HETATM    7  H   UNL     1     -10.124  13.795  66.220  1.00  0.00     0.000 HD 
BRANCH   6   8
HETATM    8  C   UNL     1     -11.470  15.300  66.930  1.00  0.00    -0.143 C  
HETATM    9  N   UNL     1     -11.363  15.143  68.346  1.00  0.00    -0.300 NA 
HETATM   10  C   UNL     1     -10.763  16.232  68.931  1.00  0.00    -0.300 C  
HETATM   11  O   UNL     1     -10.703  16.436  70.130  1.00  0.00    -0.299 OA 
HETATM   12  N   UNL     1     -10.250  17.023  67.960  1.00  0.00    -0.303 NA 
HETATM   13  C   UNL     1     -10.518  16.502  66.730  1.00  0.00    -0.269 C  
HETATM   14  O   UNL     1     -10.070  16.931  65.677  1.00  0.00    -0.546 OA 
ENDBRANCH   6   8
ENDBRANCH   3   6
TORSDOF 2
ENDMDL
MODEL       81
REMARK 921   NORMALIZED FREE ENERGY PREDICTED BY IDOCK:   -3.38 KCAL/MOL
REMARK 922        TOTAL FREE ENERGY PREDICTED BY IDOCK:   -4.11 KCAL/MOL
REMARK 923 INTER-LIGAND FREE ENERGY PREDICTED BY IDOCK:   -3.86 KCAL/MOL
REMARK 924 INTRA-LIGAND FREE ENERGY PREDICTED BY IDOCK:   -0.25 KCAL/MOL
REMARK 927      BINDING AFFINITY PREDICTED BY RF-SCORE:    0.00 PKD
ROOT
HETATM    1  N   UNL     1      -8.587  12.426  66.722  1.00  0.00    -0.327 N  
HETATM    2  H1  UNL     1      -9.277  11.682  66.617  1.00  0.00     0.000 HD 
HETATM    3  C   UNL     1      -8.631  13.303  67.755  1.00  0.00    -0.184 C  
HETATM    4  H2  UNL     1      -7.843  12.513  66.029  1.00  0.00     0.000 HD 
HETATM    5  O   UNL     1      -7.806  14.194  67.880  1.00  0.00    -0.126 OA 
ENDROOT
BRANCH   3   6
HETATM    6  N   UNL     1      -9.693  13.088  68.578  1.00  0.00    -0.367 N  
HETATM    7  H   UNL     1      -9.562  12.699  69.512  1.00  0.00     0.000 HD 
BRANCH   6   8
HETATM    8  C   UNL     1     -10.998  13.424  68.099  1.00  0.00    -0.255 C  
HETATM    9  N   UNL     1     -10.934  14.313  66.983  1.00  0.00    -0.298 NA 
HETATM   10  C   UNL     1     -11.800  13.934  65.986  1.00  0.00    -0.393 C  
HETATM   11  O   UNL     1     -12.072  14.604  65.007  1.00  0.00    -0.386 OA 
HETATM   12  N   UNL     1     -12.284  12.703  66.271  1.00  0.00    -0.566 NA 
HETATM   13  C   UNL     1     -11.783  12.257  67.458  1.00  0.00    -0.332 C  
HETATM   14  O   UNL     1     -11.943  11.132  67.904  1.00  0.00    -0.624 OA 
ENDBRANCH   6   8
ENDBRANCH   3   6
TORSDOF 2
ENDMDL
MODEL       82
REMARK 921   NORMALIZED FREE ENERGY PREDICTED BY IDOCK:   -3.37 KCAL/MOL
REMARK 922        TOTAL FREE ENERGY PREDICTED BY IDOCK:   -4.10 KCAL/MOL
REMARK 923 INTER-LIGAND FREE ENERGY PREDICTED BY IDOCK:   -3.68 KCAL/MOL
REMARK 924 INTRA-LIGAND FREE ENERGY PREDICTED BY IDOCK:   -0.42 KCAL/MOL
REMARK 927      BINDING AFFINITY PREDICTED BY RF-SCORE:    0.00 PKD
ROOT
HETATM    1  N   UNL     1      -8.011  13.355  68.917  1.00  0.00    -0.339 N  
HETATM    2  H1  UNL     1      -8.283  13.521  69.886  1.00  0.00     0.000 HD 
HETATM    3  C   UNL     1      -8.779  12.622  68.074  1.00  0.00    -0.190 C  
HETATM    4  H2  UNL     1      -7.137  13.752  68.574  1.00  0.00     0.000 HD 
HETATM    5  O   UNL     1      -8.453  12.423  66.915  1.00  0.00    -0.190 OA 
ENDROOT
BRANCH   3   6
HETATM    6  N   UNL     1      -9.895  12.130  68.677  1.00  0.00    -0.369 N  
HETATM    7  H   UNL     1      -9.895  11.204  69.106  1.00  0.00     0.000 HD 
BRANCH   6   8
HETATM    8  C   UNL     1     -11.069  12.946  68.694  1.00  0.00    -0.269 C  
HETATM    9  N   UNL     1     -10.753  14.315  68.952  1.00  0.00    -0.254 NA 
HETATM   10  C   UNL     1     -11.439  15.158  68.112  1.00  0.00    -0.342 C  
HETATM   11  O   UNL     1     -11.489  16.369  68.228  1.00  0.00    -0.312 OA 
HETATM   12  N   UNL     1     -12.033  14.424  67.143  1.00  0.00    -0.414 NA 
HETATM   13  C   UNL     1     -11.784  13.097  67.331  1.00  0.00    -0.370 C  
HETATM   14  O   UNL     1     -12.084  12.212  66.544  1.00  0.00    -0.627 OA 
ENDBRANCH   6   8
ENDBRANCH   3   6
TORSDOF 2
ENDMDL
MODEL       83
REMARK 921   NORMALIZED FREE ENERGY PREDICTED BY IDOCK:   -3.36 KCAL/MOL
REMARK 922        TOTAL FREE ENERGY PREDICTED BY IDOCK:   -4.08 KCAL/MOL
REMARK 923 INTER-LIGAND FREE ENERGY PREDICTED BY IDOCK:   -3.75 KCAL/MOL
REMARK 924 INTRA-LIGAND FREE ENERGY PREDICTED BY IDOCK:   -0.34 KCAL/MOL
REMARK 927      BINDING AFFINITY PREDICTED BY RF-SCORE:    0.00 PKD
ROOT
HETATM    1  N   UNL     1     -10.733  18.002  67.446  1.00  0.00    -0.366 N  
HETATM    2  H1  UNL     1     -11.370  17.743  68.199  1.00  0.00     0.000 HD 
HETATM    3  C   UNL     1      -9.820  17.130  66.950  1.00  0.00    -0.285 C  
HETATM    4  H2  UNL     1     -10.783  18.943  67.055  1.00  0.00     0.000 HD 
HETATM    5  O   UNL     1      -9.057  17.439  66.049  1.00  0.00    -0.487 OA 
ENDROOT
BRANCH   3   6
HETATM    6  N   UNL     1      -9.845  15.929  67.588  1.00  0.00    -0.232 N  
HETATM    7  H   UNL     1      -8.993  15.525  67.978  1.00  0.00     0.000 HD 
BRANCH   6   8
HETATM    8  C   UNL     1     -11.097  15.247  67.696  1.00  0.00    -0.323 C  
HETATM    9  N   UNL     1     -11.832  15.303  66.473  1.00  0.00     0.060 NA 
HETATM   10  C   UNL     1     -12.377  14.082  66.155  1.00  0.00    -0.458 C  
HETATM   11  O   UNL     1     -13.188  13.890  65.267  1.00  0.00    -0.774 OA 
HETATM   12  N   UNL     1     -11.860  13.144  66.982  1.00  0.00    -0.379 NA 
HETATM   13  C   UNL     1     -10.998  13.713  67.870  1.00  0.00    -0.259 C  
HETATM   14  O   UNL     1     -10.289  13.095  68.649  1.00  0.00    -0.243 OA 
ENDBRANCH   6   8
ENDBRANCH   3   6
TORSDOF 2
ENDMDL
MODEL       84
REMARK 921   NORMALIZED FREE ENERGY PREDICTED BY IDOCK:   -3.36 KCAL/MOL
REMARK 922        TOTAL FREE ENERGY PREDICTED BY IDOCK:   -4.08 KCAL/MOL
REMARK 923 INTER-LIGAND FREE ENERGY PREDICTED BY IDOCK:   -3.73 KCAL/MOL
REMARK 924 INTRA-LIGAND FREE ENERGY PREDICTED BY IDOCK:   -0.35 KCAL/MOL
REMARK 927      BINDING AFFINITY PREDICTED BY RF-SCORE:    0.00 PKD
ROOT
HETATM    1  N   UNL     1     -12.228   6.145  72.386  1.00  0.00    -0.532 N  
HETATM    2  H1  UNL     1     -11.474   6.181  73.073  1.00  0.00     0.000 HD 
HETATM    3  C   UNL     1     -12.890   7.260  71.992  1.00  0.00    -0.178 C  
HETATM    4  H2  UNL     1     -12.490   5.245  71.985  1.00  0.00     0.000 HD 
HETATM    5  O   UNL     1     -13.792   7.218  71.170  1.00  0.00    -0.319 OA 
ENDROOT
BRANCH   3   6
HETATM    6  N   UNL     1     -12.458   8.380  72.633  1.00  0.00    -0.587 N  
HETATM    7  H   UNL     1     -12.772   8.597  73.579  1.00  0.00     0.000 HD 
BRANCH   6   8
HETATM    8  C   UNL     1     -11.549   9.244  71.945  1.00  0.00    -0.334 C  
HETATM    9  N   UNL     1     -10.923   8.578  70.846  1.00  0.00    -0.243 NA 
HETATM   10  C   UNL     1     -10.897   9.371  69.725  1.00  0.00    -0.232 C  
HETATM   11  O   UNL     1     -10.274   9.122  68.709  1.00  0.00    -0.198 OA 
HETATM   12  N   UNL     1     -11.677  10.456  69.937  1.00  0.00    -0.267 NA 
HETATM   13  C   UNL     1     -12.206  10.424  71.193  1.00  0.00    -0.394 C  
HETATM   14  O   UNL     1     -13.047  11.203  71.616  1.00  0.00    -0.449 OA 
ENDBRANCH   6   8
ENDBRANCH   3   6
TORSDOF 2
ENDMDL
MODEL       85
REMARK 921   NORMALIZED FREE ENERGY PREDICTED BY IDOCK:   -3.36 KCAL/MOL
REMARK 922        TOTAL FREE ENERGY PREDICTED BY IDOCK:   -4.08 KCAL/MOL
REMARK 923 INTER-LIGAND FREE ENERGY PREDICTED BY IDOCK:   -4.03 KCAL/MOL
REMARK 924 INTRA-LIGAND FREE ENERGY PREDICTED BY IDOCK:   -0.05 KCAL/MOL
REMARK 927      BINDING AFFINITY PREDICTED BY RF-SCORE:    0.00 PKD
ROOT
HETATM    1  N   UNL     1      -9.009  20.447  66.318  1.00  0.00    -0.587 N  
HETATM    2  H1  UNL     1      -8.508  20.902  67.081  1.00  0.00     0.000 HD 
HETATM    3  C   UNL     1     -10.154  19.752  66.528  1.00  0.00    -0.476 C  
HETATM    4  H2  UNL     1      -8.639  20.519  65.371  1.00  0.00     0.000 HD 
HETATM    5  O   UNL     1     -10.754  19.208  65.615  1.00  0.00    -0.477 OA 
ENDROOT
BRANCH   3   6
HETATM    6  N   UNL     1     -10.509  19.713  67.841  1.00  0.00    -0.440 N  
HETATM    7  H   UNL     1     -11.053  20.468  68.259  1.00  0.00     0.000 HD 
BRANCH   6   8
HETATM    8  C   UNL     1     -10.099  18.585  68.619  1.00  0.00    -0.369 C  
HETATM    9  N   UNL     1     -10.586  17.361  68.065  1.00  0.00    -0.386 NA 
HETATM   10  C   UNL     1      -9.613  16.392  68.049  1.00  0.00    -0.226 C  
HETATM   11  O   UNL     1      -9.803  15.217  67.794  1.00  0.00    -0.221 OA 
HETATM   12  N   UNL     1      -8.423  16.961  68.353  1.00  0.00    -0.230 NA 
HETATM   13  C   UNL     1      -8.581  18.292  68.602  1.00  0.00    -0.283 C  
HETATM   14  O   UNL     1      -7.667  19.083  68.775  1.00  0.00    -0.337 OA 
ENDBRANCH   6   8
ENDBRANCH   3   6
TORSDOF 2
ENDMDL
MODEL       86
REMARK 921   NORMALIZED FREE ENERGY PREDICTED BY IDOCK:   -3.35 KCAL/MOL
REMARK 922        TOTAL FREE ENERGY PREDICTED BY IDOCK:   -4.07 KCAL/MOL
REMARK 923 INTER-LIGAND FREE ENERGY PREDICTED BY IDOCK:   -3.99 KCAL/MOL
REMARK 924 INTRA-LIGAND FREE ENERGY PREDICTED BY IDOCK:   -0.08 KCAL/MOL
REMARK 927      BINDING AFFINITY PREDICTED BY RF-SCORE:    0.00 PKD
ROOT
HETATM    1  N   UNL     1      -8.935  20.508  66.657  1.00  0.00    -0.568 N  
HETATM    2  H1  UNL     1      -7.931  20.538  66.833  1.00  0.00     0.000 HD 
HETATM    3  C   UNL     1      -9.745  19.622  67.288  1.00  0.00    -0.356 C  
HETATM    4  H2  UNL     1      -9.340  21.162  65.988  1.00  0.00     0.000 HD 
HETATM    5  O   UNL     1     -10.948  19.586  67.077  1.00  0.00    -0.477 OA 
ENDROOT
BRANCH   3   6
HETATM    6  N   UNL     1      -9.064  18.793  68.124  1.00  0.00    -0.298 N  
HETATM    7  H   UNL     1      -8.740  19.117  69.035  1.00  0.00     0.000 HD 
BRANCH   6   8
HETATM    8  C   UNL     1      -8.814  17.453  67.690  1.00  0.00    -0.225 C  
HETATM    9  N   UNL     1     -10.019  16.686  67.635  1.00  0.00    -0.257 NA 
HETATM   10  C   UNL     1     -10.090  15.941  66.484  1.00  0.00    -0.282 C  
HETATM   11  O   UNL     1     -10.917  15.075  66.264  1.00  0.00    -0.332 OA 
HETATM   12  N   UNL     1      -9.104  16.335  65.645  1.00  0.00    -0.394 NA 
HETATM   13  C   UNL     1      -8.351  17.313  66.221  1.00  0.00    -0.254 C  
HETATM   14  O   UNL     1      -7.474  17.946  65.653  1.00  0.00    -0.544 OA 
ENDBRANCH   6   8
ENDBRANCH   3   6
TORSDOF 2
ENDMDL
MODEL       87
REMARK 921   NORMALIZED FREE ENERGY PREDICTED BY IDOCK:   -3.34 KCAL/MOL
REMARK 922        TOTAL FREE ENERGY PREDICTED BY IDOCK:   -4.06 KCAL/MOL
REMARK 923 INTER-LIGAND FREE ENERGY PREDICTED BY IDOCK:   -3.74 KCAL/MOL
REMARK 924 INTRA-LIGAND FREE ENERGY PREDICTED BY IDOCK:   -0.33 KCAL/MOL
REMARK 927      BINDING AFFINITY PREDICTED BY RF-SCORE:    0.00 PKD
ROOT
HETATM    1  N   UNL     1     -10.402   9.403  68.294  1.00  0.00    -0.204 N  
HETATM    2  H1  UNL     1     -11.228   9.691  67.770  1.00  0.00     0.000 HD 
HETATM    3  C   UNL     1      -9.959  10.099  69.370  1.00  0.00    -0.228 C  
HETATM    4  H2  UNL     1      -9.894   8.569  68.001  1.00  0.00     0.000 HD 
HETATM    5  O   UNL     1      -8.970   9.755  69.998  1.00  0.00    -0.217 OA 
ENDROOT
BRANCH   3   6
HETATM    6  N   UNL     1     -10.712  11.204  69.624  1.00  0.00    -0.447 N  
HETATM    7  H   UNL     1     -10.311  12.139  69.551  1.00  0.00     0.000 HD 
BRANCH   6   8
HETATM    8  C   UNL     1     -12.080  11.018  69.997  1.00  0.00    -0.364 C  
HETATM    9  N   UNL     1     -12.251   9.844  70.792  1.00  0.00    -0.298 NA 
HETATM   10  C   UNL     1     -13.072  10.079  71.869  1.00  0.00    -0.460 C  
HETATM   11  O   UNL     1     -13.522   9.219  72.604  1.00  0.00    -0.444 OA 
HETATM   12  N   UNL     1     -13.284  11.411  71.974  1.00  0.00    -0.455 NA 
HETATM   13  C   UNL     1     -12.645  12.077  70.972  1.00  0.00    -0.273 C  
HETATM   14  O   UNL     1     -12.554  13.292  70.888  1.00  0.00    -0.345 OA 
ENDBRANCH   6   8
ENDBRANCH   3   6
TORSDOF 2
ENDMDL
MODEL       88
REMARK 921   NORMALIZED FREE ENERGY PREDICTED BY IDOCK:   -3.34 KCAL/MOL
REMARK 922        TOTAL FREE ENERGY PREDICTED BY IDOCK:   -4.06 KCAL/MOL
REMARK 923 INTER-LIGAND FREE ENERGY PREDICTED BY IDOCK:   -3.80 KCAL/MOL
REMARK 924 INTRA-LIGAND FREE ENERGY PREDICTED BY IDOCK:   -0.26 KCAL/MOL
REMARK 927      BINDING AFFINITY PREDICTED BY RF-SCORE:    0.00 PKD
ROOT
HETATM    1  N   UNL     1     -11.783   5.102  73.089  1.00  0.00    -0.514 N  
HETATM    2  H1  UNL     1     -12.639   5.573  72.794  1.00  0.00     0.000 HD 
HETATM    3  C   UNL     1     -10.695   5.791  73.512  1.00  0.00    -0.269 C  
HETATM    4  H2  UNL     1     -11.745   4.083  73.064  1.00  0.00     0.000 HD 
HETATM    5  O   UNL     1      -9.672   5.227  73.864  1.00  0.00    -0.143 OA 
ENDROOT
BRANCH   3   6
HETATM    6  N   UNL     1     -10.878   7.139  73.461  1.00  0.00    -0.542 N  
HETATM    7  H   UNL     1     -10.727   7.720  74.285  1.00  0.00     0.000 HD 
BRANCH   6   8
HETATM    8  C   UNL     1     -11.286   7.718  72.219  1.00  0.00    -0.321 C  
HETATM    9  N   UNL     1     -12.612   8.244  72.296  1.00  0.00    -0.330 NA 
HETATM   10  C   UNL     1     -12.698   9.484  71.711  1.00  0.00    -0.404 C  
HETATM   11  O   UNL     1     -13.736  10.079  71.485  1.00  0.00    -0.239 OA 
HETATM   12  N   UNL     1     -11.448   9.928  71.441  1.00  0.00    -0.361 NA 
HETATM   13  C   UNL     1     -10.522   8.998  71.807  1.00  0.00    -0.348 C  
HETATM   14  O   UNL     1      -9.314   9.175  71.801  1.00  0.00    -0.328 OA 
ENDBRANCH   6   8
ENDBRANCH   3   6
TORSDOF 2
ENDMDL
MODEL       89
REMARK 921   NORMALIZED FREE ENERGY PREDICTED BY IDOCK:   -3.34 KCAL/MOL
REMARK 922        TOTAL FREE ENERGY PREDICTED BY IDOCK:   -4.06 KCAL/MOL
REMARK 923 INTER-LIGAND FREE ENERGY PREDICTED BY IDOCK:   -3.65 KCAL/MOL
REMARK 924 INTRA-LIGAND FREE ENERGY PREDICTED BY IDOCK:   -0.41 KCAL/MOL
REMARK 927      BINDING AFFINITY PREDICTED BY RF-SCORE:    0.00 PKD
ROOT
HETATM    1  N   UNL     1      -7.424  17.510  68.569  1.00  0.00    -0.253 N  
HETATM    2  H1  UNL     1      -7.985  17.830  69.359  1.00  0.00     0.000 HD 
HETATM    3  C   UNL     1      -7.905  16.625  67.662  1.00  0.00    -0.174 C  
HETATM    4  H2  UNL     1      -6.475  17.866  68.460  1.00  0.00     0.000 HD 
HETATM    5  O   UNL     1      -7.233  16.242  66.717  1.00  0.00    -0.214 OA 
ENDROOT
BRANCH   3   6
HETATM    6  N   UNL     1      -9.168  16.212  67.952  1.00  0.00    -0.199 N  
HETATM    7  H   UNL     1      -9.331  15.416  68.569  1.00  0.00     0.000 HD 
BRANCH   6   8
HETATM    8  C   UNL     1     -10.262  16.924  67.369  1.00  0.00    -0.298 C  
HETATM    9  N   UNL     1     -10.104  18.336  67.511  1.00  0.00    -0.333 NA 
HETATM   10  C   UNL     1     -10.405  18.998  66.345  1.00  0.00    -0.448 C  
HETATM   11  O   UNL     1     -10.521  20.205  66.238  1.00  0.00    -0.423 OA 
HETATM   12  N   UNL     1     -10.539  18.091  65.350  1.00  0.00    -0.580 NA 
HETATM   13  C   UNL     1     -10.363  16.828  65.829  1.00  0.00    -0.305 C  
HETATM   14  O   UNL     1     -10.300  15.822  65.139  1.00  0.00    -0.425 OA 
ENDBRANCH   6   8
ENDBRANCH   3   6
TORSDOF 2
ENDMDL
MODEL       90
REMARK 921   NORMALIZED FREE ENERGY PREDICTED BY IDOCK:   -3.34 KCAL/MOL
REMARK 922        TOTAL FREE ENERGY PREDICTED BY IDOCK:   -4.06 KCAL/MOL
REMARK 923 INTER-LIGAND FREE ENERGY PREDICTED BY IDOCK:   -3.72 KCAL/MOL
REMARK 924 INTRA-LIGAND FREE ENERGY PREDICTED BY IDOCK:   -0.34 KCAL/MOL
REMARK 927      BINDING AFFINITY PREDICTED BY RF-SCORE:    0.00 PKD
ROOT
HETATM    1  N   UNL     1      -8.324  15.454  66.383  1.00  0.00    -0.386 N  
HETATM    2  H1  UNL     1      -7.721  16.100  65.873  1.00  0.00     0.000 HD 
HETATM    3  C   UNL     1      -9.645  15.698  66.562  1.00  0.00    -0.270 C  
HETATM    4  H2  UNL     1      -7.920  14.600  66.769  1.00  0.00     0.000 HD 
HETATM    5  O   UNL     1     -10.366  14.925  67.172  1.00  0.00    -0.255 OA 
ENDROOT
BRANCH   3   6
HETATM    6  N   UNL     1     -10.035  16.886  66.024  1.00  0.00    -0.311 N  
HETATM    7  H   UNL     1     -10.219  16.973  65.025  1.00  0.00     0.000 HD 
BRANCH   6   8
HETATM    8  C   UNL     1     -10.180  18.008  66.899  1.00  0.00    -0.362 C  
HETATM    9  N   UNL     1      -9.022  18.189  67.715  1.00  0.00    -0.260 NA 
HETATM   10  C   UNL     1      -8.649  19.510  67.775  1.00  0.00    -0.315 C  
HETATM   11  O   UNL     1      -7.809  19.965  68.531  1.00  0.00    -0.292 OA 
HETATM   12  N   UNL     1      -9.357  20.207  66.857  1.00  0.00    -0.379 NA 
HETATM   13  C   UNL     1     -10.223  19.386  66.198  1.00  0.00    -0.484 C  
HETATM   14  O   UNL     1     -10.896  19.711  65.233  1.00  0.00    -0.407 OA 
ENDBRANCH   6   8
ENDBRANCH   3   6
TORSDOF 2
ENDMDL
MODEL       91
REMARK 921   NORMALIZED FREE ENERGY PREDICTED BY IDOCK:   -3.32 KCAL/MOL
REMARK 922        TOTAL FREE ENERGY PREDICTED BY IDOCK:   -4.04 KCAL/MOL
REMARK 923 INTER-LIGAND FREE ENERGY PREDICTED BY IDOCK:   -3.76 KCAL/MOL
REMARK 924 INTRA-LIGAND FREE ENERGY PREDICTED BY IDOCK:   -0.28 KCAL/MOL
REMARK 927      BINDING AFFINITY PREDICTED BY RF-SCORE:    0.00 PKD
ROOT
HETATM    1  N   UNL     1      -9.230  20.379  66.368  1.00  0.00    -0.612 N  
HETATM    2  H1  UNL     1      -8.641  20.227  67.187  1.00  0.00     0.000 HD 
HETATM    3  C   UNL     1     -10.393  19.706  66.187  1.00  0.00    -0.530 C  
HETATM    4  H2  UNL     1      -8.934  21.056  65.664  1.00  0.00     0.000 HD 
HETATM    5  O   UNL     1     -11.097  19.888  65.207  1.00  0.00    -0.360 OA 
ENDROOT
BRANCH   3   6
HETATM    6  N   UNL     1     -10.642  18.815  67.185  1.00  0.00    -0.423 N  
HETATM    7  H   UNL     1     -11.333  19.017  67.908  1.00  0.00     0.000 HD 
BRANCH   6   8
HETATM    8  C   UNL     1      -9.909  17.587  67.192  1.00  0.00    -0.297 C  
HETATM    9  N   UNL     1      -8.564  17.782  67.633  1.00  0.00    -0.228 NA 
HETATM   10  C   UNL     1      -8.179  16.812  68.526  1.00  0.00    -0.242 C  
HETATM   11  O   UNL     1      -7.041  16.639  68.921  1.00  0.00    -0.180 OA 
HETATM   12  N   UNL     1      -9.268  16.097  68.891  1.00  0.00    -0.223 NA 
HETATM   13  C   UNL     1     -10.376  16.549  68.238  1.00  0.00    -0.293 C  
HETATM   14  O   UNL     1     -11.519  16.180  68.463  1.00  0.00    -0.376 OA 
ENDBRANCH   6   8
ENDBRANCH   3   6
TORSDOF 2
ENDMDL
MODEL       92
REMARK 921   NORMALIZED FREE ENERGY PREDICTED BY IDOCK:   -3.32 KCAL/MOL
REMARK 922        TOTAL FREE ENERGY PREDICTED BY IDOCK:   -4.04 KCAL/MOL
REMARK 923 INTER-LIGAND FREE ENERGY PREDICTED BY IDOCK:   -3.78 KCAL/MOL
REMARK 924 INTRA-LIGAND FREE ENERGY PREDICTED BY IDOCK:   -0.26 KCAL/MOL
REMARK 927      BINDING AFFINITY PREDICTED BY RF-SCORE:    0.00 PKD
ROOT
HETATM    1  N   UNL     1      -9.055   9.678  62.857  1.00  0.00    -0.334 N  
HETATM    2  H1  UNL     1     -10.068   9.772  62.778  1.00  0.00     0.000 HD 
HETATM    3  C   UNL     1      -8.347  10.348  63.800  1.00  0.00    -0.149 C  
HETATM    4  H2  UNL     1      -8.563   9.064  62.210  1.00  0.00     0.000 HD 
HETATM    5  O   UNL     1      -7.135  10.235  63.895  1.00  0.00    -0.127 OA 
ENDROOT
BRANCH   3   6
HETATM    6  N   UNL     1      -9.128  11.153  64.569  1.00  0.00    -0.367 N  
HETATM    7  H   UNL     1      -9.064  11.130  65.586  1.00  0.00     0.000 HD 
BRANCH   6   8
HETATM    8  C   UNL     1     -10.044  12.033  63.911  1.00  0.00    -0.369 C  
HETATM    9  N   UNL     1     -11.281  11.380  63.620  1.00  0.00    -0.368 NA 
HETATM   10  C   UNL     1     -12.357  12.176  63.931  1.00  0.00    -0.487 C  
HETATM   11  O   UNL     1     -13.511  11.940  63.626  1.00  0.00    -0.517 OA 
HETATM   12  N   UNL     1     -11.920  13.248  64.633  1.00  0.00    -0.375 NA 
HETATM   13  C   UNL     1     -10.565  13.205  64.775  1.00  0.00    -0.372 C  
HETATM   14  O   UNL     1      -9.911  13.968  65.468  1.00  0.00    -0.316 OA 
ENDBRANCH   6   8
ENDBRANCH   3   6
TORSDOF 2
ENDMDL
MODEL       93
REMARK 921   NORMALIZED FREE ENERGY PREDICTED BY IDOCK:   -3.30 KCAL/MOL
REMARK 922        TOTAL FREE ENERGY PREDICTED BY IDOCK:   -4.02 KCAL/MOL
REMARK 923 INTER-LIGAND FREE ENERGY PREDICTED BY IDOCK:   -3.61 KCAL/MOL
REMARK 924 INTRA-LIGAND FREE ENERGY PREDICTED BY IDOCK:   -0.41 KCAL/MOL
REMARK 927      BINDING AFFINITY PREDICTED BY RF-SCORE:    0.00 PKD
ROOT
HETATM    1  N   UNL     1      -9.493  15.060  65.639  1.00  0.00    -0.460 N  
HETATM    2  H1  UNL     1      -9.176  15.321  64.705  1.00  0.00     0.000 HD 
HETATM    3  C   UNL     1      -8.896  15.541  66.758  1.00  0.00    -0.265 C  
HETATM    4  H2  UNL     1     -10.281  14.420  65.734  1.00  0.00     0.000 HD 
HETATM    5  O   UNL     1      -9.276  15.229  67.875  1.00  0.00    -0.182 OA 
ENDROOT
BRANCH   3   6
HETATM    6  N   UNL     1      -7.842  16.355  66.480  1.00  0.00    -0.284 N  
HETATM    7  H   UNL     1      -6.932  15.968  66.230  1.00  0.00     0.000 HD 
BRANCH   6   8
HETATM    8  C   UNL     1      -8.045  17.769  66.546  1.00  0.00    -0.272 C  
HETATM    9  N   UNL     1      -9.331  18.139  66.046  1.00  0.00    -0.519 NA 
HETATM   10  C   UNL     1      -9.944  19.059  66.861  1.00  0.00    -0.351 C  
HETATM   11  O   UNL     1     -10.961  19.669  66.583  1.00  0.00    -0.424 OA 
HETATM   12  N   UNL     1      -9.239  19.164  68.011  1.00  0.00    -0.303 NA 
HETATM   13  C   UNL     1      -8.145  18.352  67.975  1.00  0.00    -0.274 C  
HETATM   14  O   UNL     1      -7.399  18.144  68.919  1.00  0.00    -0.275 OA 
ENDBRANCH   6   8
ENDBRANCH   3   6
TORSDOF 2
ENDMDL
MODEL       94
REMARK 921   NORMALIZED FREE ENERGY PREDICTED BY IDOCK:   -3.27 KCAL/MOL
REMARK 922        TOTAL FREE ENERGY PREDICTED BY IDOCK:   -3.98 KCAL/MOL
REMARK 923 INTER-LIGAND FREE ENERGY PREDICTED BY IDOCK:   -3.56 KCAL/MOL
REMARK 924 INTRA-LIGAND FREE ENERGY PREDICTED BY IDOCK:   -0.42 KCAL/MOL
REMARK 927      BINDING AFFINITY PREDICTED BY RF-SCORE:    0.00 PKD
ROOT
HETATM    1  N   UNL     1     -10.513  10.883  69.846  1.00  0.00    -0.441 N  
HETATM    2  H1  UNL     1     -10.168  11.147  70.770  1.00  0.00     0.000 HD 
HETATM    3  C   UNL     1     -10.484   9.600  69.411  1.00  0.00    -0.220 C  
HETATM    4  H2  UNL     1     -10.891  11.607  69.235  1.00  0.00     0.000 HD 
HETATM    5  O   UNL     1     -10.898   9.285  68.306  1.00  0.00    -0.179 OA 
ENDROOT
BRANCH   3   6
HETATM    6  N   UNL     1      -9.925   8.753  70.316  1.00  0.00    -0.180 N  
HETATM    7  H   UNL     1      -8.927   8.541  70.289  1.00  0.00     0.000 HD 
BRANCH   6   8
HETATM    8  C   UNL     1     -10.773   8.167  71.307  1.00  0.00    -0.227 C  
HETATM    9  N   UNL     1     -11.736   9.104  71.794  1.00  0.00    -0.369 NA 
HETATM   10  C   UNL     1     -12.986   8.542  71.884  1.00  0.00    -0.362 C  
HETATM   11  O   UNL     1     -13.945   9.059  72.428  1.00  0.00    -0.465 OA 
HETATM   12  N   UNL     1     -12.970   7.338  71.268  1.00  0.00    -0.363 NA 
HETATM   13  C   UNL     1     -11.725   7.063  70.789  1.00  0.00    -0.349 C  
HETATM   14  O   UNL     1     -11.444   6.110  70.079  1.00  0.00    -0.406 OA 
ENDBRANCH   6   8
ENDBRANCH   3   6
TORSDOF 2
ENDMDL
MODEL       95
REMARK 921   NORMALIZED FREE ENERGY PREDICTED BY IDOCK:   -3.27 KCAL/MOL
REMARK 922        TOTAL FREE ENERGY PREDICTED BY IDOCK:   -3.98 KCAL/MOL
REMARK 923 INTER-LIGAND FREE ENERGY PREDICTED BY IDOCK:   -3.56 KCAL/MOL
REMARK 924 INTRA-LIGAND FREE ENERGY PREDICTED BY IDOCK:   -0.42 KCAL/MOL
REMARK 927      BINDING AFFINITY PREDICTED BY RF-SCORE:    0.00 PKD
ROOT
HETATM    1  N   UNL     1     -10.474   5.346  69.490  1.00  0.00    -0.282 N  
HETATM    2  H1  UNL     1     -11.028   4.565  69.841  1.00  0.00     0.000 HD 
HETATM    3  C   UNL     1     -10.967   6.608  69.439  1.00  0.00    -0.309 C  
HETATM    4  H2  UNL     1      -9.522   5.173  69.168  1.00  0.00     0.000 HD 
HETATM    5  O   UNL     1     -10.303   7.543  69.019  1.00  0.00    -0.204 OA 
ENDROOT
BRANCH   3   6
HETATM    6  N   UNL     1     -12.256   6.684  69.867  1.00  0.00    -0.479 N  
HETATM    7  H   UNL     1     -13.031   6.486  69.235  1.00  0.00     0.000 HD 
BRANCH   6   8
HETATM    8  C   UNL     1     -12.495   7.048  71.230  1.00  0.00    -0.386 C  
HETATM    9  N   UNL     1     -11.554   6.431  72.110  1.00  0.00    -0.300 NA 
HETATM   10  C   UNL     1     -11.078   7.321  73.042  1.00  0.00    -0.317 C  
HETATM   11  O   UNL     1     -10.403   7.022  74.011  1.00  0.00    -0.364 OA 
HETATM   12  N   UNL     1     -11.474   8.568  72.700  1.00  0.00    -0.301 NA 
HETATM   13  C   UNL     1     -12.234   8.533  71.569  1.00  0.00    -0.311 C  
HETATM   14  O   UNL     1     -12.621   9.517  70.957  1.00  0.00    -0.306 OA 
ENDBRANCH   6   8
ENDBRANCH   3   6
TORSDOF 2
ENDMDL
MODEL       96
REMARK 921   NORMALIZED FREE ENERGY PREDICTED BY IDOCK:   -3.26 KCAL/MOL
REMARK 922        TOTAL FREE ENERGY PREDICTED BY IDOCK:   -3.98 KCAL/MOL
REMARK 923 INTER-LIGAND FREE ENERGY PREDICTED BY IDOCK:   -3.67 KCAL/MOL
REMARK 924 INTRA-LIGAND FREE ENERGY PREDICTED BY IDOCK:   -0.30 KCAL/MOL
REMARK 927      BINDING AFFINITY PREDICTED BY RF-SCORE:    0.00 PKD
ROOT
HETATM    1  N   UNL     1     -11.326  14.495  70.742  1.00  0.00    -0.506 N  
HETATM    2  H1  UNL     1     -11.418  13.490  70.887  1.00  0.00     0.000 HD 
HETATM    3  C   UNL     1     -11.784  15.101  69.619  1.00  0.00    -0.327 C  
HETATM    4  H2  UNL     1     -10.875  15.060  71.462  1.00  0.00     0.000 HD 
HETATM    5  O   UNL     1     -11.674  16.305  69.445  1.00  0.00    -0.255 OA 
ENDROOT
BRANCH   3   6
HETATM    6  N   UNL     1     -12.329  14.222  68.735  1.00  0.00    -0.573 N  
HETATM    7  H   UNL     1     -13.323  13.996  68.765  1.00  0.00     0.000 HD 
BRANCH   6   8
HETATM    8  C   UNL     1     -11.469  13.622  67.762  1.00  0.00    -0.318 C  
HETATM    9  N   UNL     1     -10.110  14.025  67.944  1.00  0.00    -0.232 NA 
HETATM   10  C   UNL     1      -9.250  12.959  67.839  1.00  0.00    -0.208 C  
HETATM   11  O   UNL     1      -8.037  13.045  67.780  1.00  0.00    -0.140 OA 
HETATM   12  N   UNL     1      -9.972  11.814  67.823  1.00  0.00    -0.186 NA 
HETATM   13  C   UNL     1     -11.305  12.090  67.885  1.00  0.00    -0.305 C  
HETATM   14  O   UNL     1     -12.185  11.254  68.015  1.00  0.00    -0.621 OA 
ENDBRANCH   6   8
ENDBRANCH   3   6
TORSDOF 2
ENDMDL
MODEL       97
REMARK 921   NORMALIZED FREE ENERGY PREDICTED BY IDOCK:   -3.26 KCAL/MOL
REMARK 922        TOTAL FREE ENERGY PREDICTED BY IDOCK:   -3.97 KCAL/MOL
REMARK 923 INTER-LIGAND FREE ENERGY PREDICTED BY IDOCK:   -3.68 KCAL/MOL
REMARK 924 INTRA-LIGAND FREE ENERGY PREDICTED BY IDOCK:   -0.29 KCAL/MOL
REMARK 927      BINDING AFFINITY PREDICTED BY RF-SCORE:    0.00 PKD
ROOT
HETATM    1  N   UNL     1     -10.577  11.268  69.617  1.00  0.00    -0.454 N  
HETATM    2  H1  UNL     1     -10.226  10.681  68.860  1.00  0.00     0.000 HD 
HETATM    3  C   UNL     1     -11.646  12.085  69.452  1.00  0.00    -0.330 C  
HETATM    4  H2  UNL     1     -10.109  11.240  70.522  1.00  0.00     0.000 HD 
HETATM    5  O   UNL     1     -12.066  12.788  70.358  1.00  0.00    -0.363 OA 
ENDROOT
BRANCH   3   6
HETATM    6  N   UNL     1     -12.146  12.044  68.187  1.00  0.00    -0.138 N  
HETATM    7  H   UNL     1     -13.111  11.761  68.014  1.00  0.00     0.000 HD 
BRANCH   6   8
HETATM    8  C   UNL     1     -11.282  12.407  67.107  1.00  0.00    -0.298 C  
HETATM    9  N   UNL     1     -10.793  11.256  66.417  1.00  0.00    -0.270 NA 
HETATM   10  C   UNL     1     -10.852  11.422  65.054  1.00  0.00    -0.246 C  
HETATM   11  O   UNL     1     -10.344  10.675  64.238  1.00  0.00    -0.360 OA 
HETATM   12  N   UNL     1     -11.570  12.536  64.780  1.00  0.00    -0.324 NA 
HETATM   13  C   UNL     1     -11.971  13.141  65.933  1.00  0.00    -0.427 C  
HETATM   14  O   UNL     1     -12.737  14.091  65.994  1.00  0.00    -0.475 OA 
ENDBRANCH   6   8
ENDBRANCH   3   6
TORSDOF 2
ENDMDL
MODEL       98
REMARK 921   NORMALIZED FREE ENERGY PREDICTED BY IDOCK:   -3.25 KCAL/MOL
REMARK 922        TOTAL FREE ENERGY PREDICTED BY IDOCK:   -3.96 KCAL/MOL
REMARK 923 INTER-LIGAND FREE ENERGY PREDICTED BY IDOCK:   -3.61 KCAL/MOL
REMARK 924 INTRA-LIGAND FREE ENERGY PREDICTED BY IDOCK:   -0.35 KCAL/MOL
REMARK 927      BINDING AFFINITY PREDICTED BY RF-SCORE:    0.00 PKD
ROOT
HETATM    1  N   UNL     1      -8.678  14.393  68.993  1.00  0.00    -0.355 N  
HETATM    2  H1  UNL     1      -9.596  14.839  68.983  1.00  0.00     0.000 HD 
HETATM    3  C   UNL     1      -8.096  13.929  67.860  1.00  0.00    -0.158 C  
HETATM    4  H2  UNL     1      -8.186  14.293  69.880  1.00  0.00     0.000 HD 
HETATM    5  O   UNL     1      -6.998  13.395  67.872  1.00  0.00    -0.106 OA 
ENDROOT
BRANCH   3   6
HETATM    6  N   UNL     1      -8.880  14.099  66.761  1.00  0.00    -0.387 N  
HETATM    7  H   UNL     1      -8.879  14.980  66.247  1.00  0.00     0.000 HD 
BRANCH   6   8
HETATM    8  C   UNL     1      -9.707  13.008  66.346  1.00  0.00    -0.268 C  
HETATM    9  N   UNL     1     -10.189  12.261  67.464  1.00  0.00    -0.202 NA 
HETATM   10  C   UNL     1     -11.524  11.965  67.335  1.00  0.00    -0.323 C  
HETATM   11  O   UNL     1     -12.141  11.197  68.052  1.00  0.00    -0.635 OA 
HETATM   12  N   UNL     1     -12.030  12.669  66.296  1.00  0.00    -0.531 NA 
HETATM   13  C   UNL     1     -11.054  13.412  65.703  1.00  0.00    -0.285 C  
HETATM   14  O   UNL     1     -11.243  14.240  64.826  1.00  0.00    -0.359 OA 
ENDBRANCH   6   8
ENDBRANCH   3   6
TORSDOF 2
ENDMDL
MODEL       99
REMARK 921   NORMALIZED FREE ENERGY PREDICTED BY IDOCK:   -3.25 KCAL/MOL
REMARK 922        TOTAL FREE ENERGY PREDICTED BY IDOCK:   -3.96 KCAL/MOL
REMARK 923 INTER-LIGAND FREE ENERGY PREDICTED BY IDOCK:   -3.70 KCAL/MOL
REMARK 924 INTRA-LIGAND FREE ENERGY PREDICTED BY IDOCK:   -0.25 KCAL/MOL
REMARK 927      BINDING AFFINITY PREDICTED BY RF-SCORE:    0.00 PKD
ROOT
HETATM    1  N   UNL     1     -11.199   6.209  66.464  1.00  0.00    -0.744 N  
HETATM    2  H1  UNL     1     -12.022   6.583  65.990  1.00  0.00     0.000 HD 
HETATM    3  C   UNL     1     -10.559   6.901  67.438  1.00  0.00    -0.303 C  
HETATM    4  H2  UNL     1     -10.850   5.288  66.198  1.00  0.00     0.000 HD 
HETATM    5  O   UNL     1      -9.575   6.453  68.006  1.00  0.00    -0.120 OA 
ENDROOT
BRANCH   3   6
HETATM    6  N   UNL     1     -11.114   8.122  67.664  1.00  0.00    -0.416 N  
HETATM    7  H   UNL     1     -12.075   8.208  67.995  1.00  0.00     0.000 HD 
BRANCH   6   8
HETATM    8  C   UNL     1     -10.314   9.283  67.425  1.00  0.00    -0.263 C  
HETATM    9  N   UNL     1      -9.875   9.346  66.066  1.00  0.00    -0.288 NA 
HETATM   10  C   UNL     1     -10.015  10.612  65.550  1.00  0.00    -0.272 C  
HETATM   11  O   UNL     1      -9.562  10.984  64.483  1.00  0.00    -0.228 OA 
HETATM   12  N   UNL     1     -10.739  11.360  66.414  1.00  0.00    -0.268 NA 
HETATM   13  C   UNL     1     -11.066  10.631  67.519  1.00  0.00    -0.300 C  
HETATM   14  O   UNL     1     -11.820  11.004  68.404  1.00  0.00    -0.503 OA 
ENDBRANCH   6   8
ENDBRANCH   3   6
TORSDOF 2
ENDMDL
MODEL      100
REMARK 921   NORMALIZED FREE ENERGY PREDICTED BY IDOCK:   -3.23 KCAL/MOL
REMARK 922        TOTAL FREE ENERGY PREDICTED BY IDOCK:   -3.94 KCAL/MOL
REMARK 923 INTER-LIGAND FREE ENERGY PREDICTED BY IDOCK:   -3.61 KCAL/MOL
REMARK 924 INTRA-LIGAND FREE ENERGY PREDICTED BY IDOCK:   -0.33 KCAL/MOL
REMARK 927      BINDING AFFINITY PREDICTED BY RF-SCORE:    0.00 PKD
ROOT
HETATM    1  N   UNL     1     -10.702  10.592  69.974  1.00  0.00    -0.420 N  
HETATM    2  H1  UNL     1     -11.720  10.524  69.964  1.00  0.00     0.000 HD 
HETATM    3  C   UNL     1      -9.999  10.972  68.880  1.00  0.00    -0.188 C  
HETATM    4  H2  UNL     1     -10.200  10.367  70.833  1.00  0.00     0.000 HD 
HETATM    5  O   UNL     1      -8.781  11.053  68.892  1.00  0.00    -0.164 OA 
ENDROOT
BRANCH   3   6
HETATM    6  N   UNL     1     -10.796  11.207  67.802  1.00  0.00    -0.221 N  
HETATM    7  H   UNL     1     -10.710  10.646  66.955  1.00  0.00     0.000 HD 
BRANCH   6   8
HETATM    8  C   UNL     1     -11.757  12.262  67.890  1.00  0.00    -0.347 C  
HETATM    9  N   UNL     1     -11.241  13.382  68.612  1.00  0.00    -0.254 NA 
HETATM   10  C   UNL     1     -11.537  14.567  67.983  1.00  0.00    -0.336 C  
HETATM   11  O   UNL     1     -11.371  15.673  68.466  1.00  0.00    -0.322 OA 
HETATM   12  N   UNL     1     -12.030  14.299  66.752  1.00  0.00    -0.431 NA 
HETATM   13  C   UNL     1     -12.099  12.953  66.549  1.00  0.00    -0.305 C  
HETATM   14  O   UNL     1     -12.383  12.421  65.487  1.00  0.00    -0.621 OA 
ENDBRANCH   6   8
ENDBRANCH   3   6
TORSDOF 2
ENDMDL
MODEL      101
REMARK 921   NORMALIZED FREE ENERGY PREDICTED BY IDOCK:   -3.23 KCAL/MOL
REMARK 922        TOTAL FREE ENERGY PREDICTED BY IDOCK:   -3.93 KCAL/MOL
REMARK 923 INTER-LIGAND FREE ENERGY PREDICTED BY IDOCK:   -3.79 KCAL/MOL
REMARK 924 INTRA-LIGAND FREE ENERGY PREDICTED BY IDOCK:   -0.14 KCAL/MOL
REMARK 927      BINDING AFFINITY PREDICTED BY RF-SCORE:    0.00 PKD
ROOT
HETATM    1  N   UNL     1     -10.733  18.002  67.446  1.00  0.00    -0.366 N  
HETATM    2  H1  UNL     1     -11.370  17.743  68.199  1.00  0.00     0.000 HD 
HETATM    3  C   UNL     1      -9.820  17.130  66.950  1.00  0.00    -0.285 C  
HETATM    4  H2  UNL     1     -10.783  18.943  67.055  1.00  0.00     0.000 HD 
HETATM    5  O   UNL     1      -9.057  17.439  66.049  1.00  0.00    -0.487 OA 
ENDROOT
BRANCH   3   6
HETATM    6  N   UNL     1      -9.845  15.929  67.588  1.00  0.00    -0.232 N  
HETATM    7  H   UNL     1      -8.993  15.525  67.978  1.00  0.00     0.000 HD 
BRANCH   6   8
HETATM    8  C   UNL     1     -11.097  15.247  67.696  1.00  0.00    -0.323 C  
HETATM    9  N   UNL     1     -11.007  13.904  67.216  1.00  0.00    -0.286 NA 
HETATM   10  C   UNL     1     -11.635  13.022  68.061  1.00  0.00    -0.343 C  
HETATM   11  O   UNL     1     -11.858  11.852  67.808  1.00  0.00    -0.518 OA 
HETATM   12  N   UNL     1     -11.951  13.666  69.209  1.00  0.00    -0.331 NA 
HETATM   13  C   UNL     1     -11.574  14.973  69.142  1.00  0.00    -0.310 C  
HETATM   14  O   UNL     1     -11.616  15.761  70.074  1.00  0.00    -0.310 OA 
ENDBRANCH   6   8
ENDBRANCH   3   6
TORSDOF 2
ENDMDL
MODEL      102
REMARK 921   NORMALIZED FREE ENERGY PREDICTED BY IDOCK:   -3.22 KCAL/MOL
REMARK 922        TOTAL FREE ENERGY PREDICTED BY IDOCK:   -3.93 KCAL/MOL
REMARK 923 INTER-LIGAND FREE ENERGY PREDICTED BY IDOCK:   -3.63 KCAL/MOL
REMARK 924 INTRA-LIGAND FREE ENERGY PREDICTED BY IDOCK:   -0.31 KCAL/MOL
REMARK 927      BINDING AFFINITY PREDICTED BY RF-SCORE:    0.00 PKD
ROOT
HETATM    1  N   UNL     1     -10.209  17.862  66.621  1.00  0.00    -0.356 N  
HETATM    2  H1  UNL     1     -11.209  17.844  66.826  1.00  0.00     0.000 HD 
HETATM    3  C   UNL     1      -9.590  16.839  65.983  1.00  0.00    -0.234 C  
HETATM    4  H2  UNL     1      -9.661  18.673  66.906  1.00  0.00     0.000 HD 
HETATM    5  O   UNL     1      -8.394  16.861  65.739  1.00  0.00    -0.472 OA 
ENDROOT
BRANCH   3   6
HETATM    6  N   UNL     1     -10.437  15.814  65.694  1.00  0.00    -0.360 N  
HETATM    7  H   UNL     1     -11.051  15.853  64.880  1.00  0.00     0.000 HD 
BRANCH   6   8
HETATM    8  C   UNL     1     -10.444  14.678  66.563  1.00  0.00    -0.290 C  
HETATM    9  N   UNL     1     -11.003  14.997  67.839  1.00  0.00    -0.281 NA 
HETATM   10  C   UNL     1     -11.875  14.024  68.265  1.00  0.00    -0.371 C  
HETATM   11  O   UNL     1     -12.354  13.958  69.382  1.00  0.00    -0.329 OA 
HETATM   12  N   UNL     1     -12.112  13.171  67.242  1.00  0.00    -0.325 NA 
HETATM   13  C   UNL     1     -11.393  13.533  66.142  1.00  0.00    -0.308 C  
HETATM   14  O   UNL     1     -11.504  13.025  65.037  1.00  0.00    -0.301 OA 
ENDBRANCH   6   8
ENDBRANCH   3   6
TORSDOF 2
ENDMDL
MODEL      103
REMARK 921   NORMALIZED FREE ENERGY PREDICTED BY IDOCK:   -3.22 KCAL/MOL
REMARK 922        TOTAL FREE ENERGY PREDICTED BY IDOCK:   -3.92 KCAL/MOL
REMARK 923 INTER-LIGAND FREE ENERGY PREDICTED BY IDOCK:   -3.81 KCAL/MOL
REMARK 924 INTRA-LIGAND FREE ENERGY PREDICTED BY IDOCK:   -0.12 KCAL/MOL
REMARK 927      BINDING AFFINITY PREDICTED BY RF-SCORE:    0.00 PKD
ROOT
HETATM    1  N   UNL     1     -11.307   6.579  67.557  1.00  0.00    -0.732 N  
HETATM    2  H1  UNL     1     -12.110   7.185  67.388  1.00  0.00     0.000 HD 
HETATM    3  C   UNL     1     -10.997   6.131  68.798  1.00  0.00    -0.348 C  
HETATM    4  H2  UNL     1     -10.721   6.303  66.769  1.00  0.00     0.000 HD 
HETATM    5  O   UNL     1     -10.036   5.406  69.001  1.00  0.00    -0.179 OA 
ENDROOT
BRANCH   3   6
HETATM    6  N   UNL     1     -11.844   6.605  69.752  1.00  0.00    -0.654 N  
HETATM    7  H   UNL     1     -12.797   6.251  69.830  1.00  0.00     0.000 HD 
BRANCH   6   8
HETATM    8  C   UNL     1     -11.360   7.614  70.643  1.00  0.00    -0.272 C  
HETATM    9  N   UNL     1     -12.025   8.861  70.433  1.00  0.00     0.010 NA 
HETATM   10  C   UNL     1     -12.381   9.449  71.623  1.00  0.00    -0.385 C  
HETATM   11  O   UNL     1     -12.800  10.586  71.741  1.00  0.00    -0.429 OA 
HETATM   12  N   UNL     1     -12.197   8.558  72.624  1.00  0.00    -0.326 NA 
HETATM   13  C   UNL     1     -11.696   7.389  72.136  1.00  0.00    -0.290 C  
HETATM   14  O   UNL     1     -11.550   6.365  72.786  1.00  0.00    -0.200 OA 
ENDBRANCH   6   8
ENDBRANCH   3   6
TORSDOF 2
ENDMDL
MODEL      104
REMARK 921   NORMALIZED FREE ENERGY PREDICTED BY IDOCK:   -3.17 KCAL/MOL
REMARK 922        TOTAL FREE ENERGY PREDICTED BY IDOCK:   -3.87 KCAL/MOL
REMARK 923 INTER-LIGAND FREE ENERGY PREDICTED BY IDOCK:   -3.57 KCAL/MOL
REMARK 924 INTRA-LIGAND FREE ENERGY PREDICTED BY IDOCK:   -0.30 KCAL/MOL
REMARK 927      BINDING AFFINITY PREDICTED BY RF-SCORE:    0.00 PKD
ROOT
HETATM    1  N   UNL     1     -10.469   9.355  67.010  1.00  0.00    -0.248 N  
HETATM    2  H1  UNL     1     -11.296   9.639  66.484  1.00  0.00     0.000 HD 
HETATM    3  C   UNL     1      -9.261   9.938  66.813  1.00  0.00    -0.148 C  
HETATM    4  H2  UNL     1     -10.554   8.612  67.703  1.00  0.00     0.000 HD 
HETATM    5  O   UNL     1      -8.271   9.599  67.442  1.00  0.00    -0.113 OA 
ENDROOT
BRANCH   3   6
HETATM    6  N   UNL     1      -9.291  10.886  65.837  1.00  0.00    -0.192 N  
HETATM    7  H   UNL     1      -8.510  11.530  65.708  1.00  0.00     0.000 HD 
BRANCH   6   8
HETATM    8  C   UNL     1     -10.446  10.955  64.997  1.00  0.00    -0.261 C  
HETATM    9  N   UNL     1     -11.429  11.844  65.530  1.00  0.00    -0.295 NA 
HETATM   10  C   UNL     1     -11.954  12.659  64.556  1.00  0.00    -0.399 C  
HETATM   11  O   UNL     1     -12.923  13.382  64.698  1.00  0.00    -0.675 OA 
HETATM   12  N   UNL     1     -11.214  12.527  63.430  1.00  0.00    -0.458 NA 
HETATM   13  C   UNL     1     -10.218  11.616  63.618  1.00  0.00    -0.412 C  
HETATM   14  O   UNL     1      -9.321  11.388  62.821  1.00  0.00    -0.369 OA 
ENDBRANCH   6   8
ENDBRANCH   3   6
TORSDOF 2
ENDMDL
MODEL      105
REMARK 921   NORMALIZED FREE ENERGY PREDICTED BY IDOCK:   -3.15 KCAL/MOL
REMARK 922        TOTAL FREE ENERGY PREDICTED BY IDOCK:   -3.85 KCAL/MOL
REMARK 923 INTER-LIGAND FREE ENERGY PREDICTED BY IDOCK:   -3.65 KCAL/MOL
REMARK 924 INTRA-LIGAND FREE ENERGY PREDICTED BY IDOCK:   -0.20 KCAL/MOL
REMARK 927      BINDING AFFINITY PREDICTED BY RF-SCORE:    0.00 PKD
ROOT
HETATM    1  N   UNL     1      -8.196  13.812  68.846  1.00  0.00    -0.343 N  
HETATM    2  H1  UNL     1      -8.937  14.420  69.196  1.00  0.00     0.000 HD 
HETATM    3  C   UNL     1      -8.132  13.438  67.545  1.00  0.00    -0.181 C  
HETATM    4  H2  UNL     1      -7.484  13.476  69.494  1.00  0.00     0.000 HD 
HETATM    5  O   UNL     1      -7.246  12.710  67.126  1.00  0.00    -0.128 OA 
ENDROOT
BRANCH   3   6
HETATM    6  N   UNL     1      -9.163  13.933  66.807  1.00  0.00    -0.283 N  
HETATM    7  H   UNL     1      -9.977  13.357  66.591  1.00  0.00     0.000 HD 
BRANCH   6   8
HETATM    8  C   UNL     1      -9.074  15.282  66.342  1.00  0.00    -0.312 C  
HETATM    9  N   UNL     1      -9.873  15.489  65.175  1.00  0.00    -0.306 NA 
HETATM   10  C   UNL     1     -10.587  16.659  65.253  1.00  0.00    -0.205 C  
HETATM   11  O   UNL     1     -11.207  17.161  64.333  1.00  0.00    -1.143 OA 
HETATM   12  N   UNL     1     -10.492  17.147  66.512  1.00  0.00    -0.292 NA 
HETATM   13  C   UNL     1      -9.702  16.342  67.277  1.00  0.00    -0.239 C  
HETATM   14  O   UNL     1      -9.541  16.463  68.482  1.00  0.00    -0.215 OA 
ENDBRANCH   6   8
ENDBRANCH   3   6
TORSDOF 2
ENDMDL
MODEL      106
REMARK 921   NORMALIZED FREE ENERGY PREDICTED BY IDOCK:   -3.15 KCAL/MOL
REMARK 922        TOTAL FREE ENERGY PREDICTED BY IDOCK:   -3.85 KCAL/MOL
REMARK 923 INTER-LIGAND FREE ENERGY PREDICTED BY IDOCK:   -3.69 KCAL/MOL
REMARK 924 INTRA-LIGAND FREE ENERGY PREDICTED BY IDOCK:   -0.16 KCAL/MOL
REMARK 927      BINDING AFFINITY PREDICTED BY RF-SCORE:    0.00 PKD
ROOT
HETATM    1  N   UNL     1      -9.247  12.973  66.271  1.00  0.00    -0.443 N  
HETATM    2  H1  UNL     1      -8.634  12.468  66.911  1.00  0.00     0.000 HD 
HETATM    3  C   UNL     1     -10.313  13.684  66.713  1.00  0.00    -0.268 C  
HETATM    4  H2  UNL     1      -9.052  12.942  65.270  1.00  0.00     0.000 HD 
HETATM    5  O   UNL     1     -11.046  14.289  65.946  1.00  0.00    -0.302 OA 
ENDROOT
BRANCH   3   6
HETATM    6  N   UNL     1     -10.469  13.609  68.062  1.00  0.00    -0.242 N  
HETATM    7  H   UNL     1      -9.734  13.223  68.654  1.00  0.00     0.000 HD 
BRANCH   6   8
HETATM    8  C   UNL     1     -11.694  14.084  68.628  1.00  0.00    -0.354 C  
HETATM    9  N   UNL     1     -12.092  13.299  69.753  1.00  0.00    -0.312 NA 
HETATM   10  C   UNL     1     -12.512  14.088  70.796  1.00  0.00    -0.372 C  
HETATM   11  O   UNL     1     -13.063  13.680  71.801  1.00  0.00    -0.349 OA 
HETATM   12  N   UNL     1     -12.205  15.377  70.521  1.00  0.00    -0.365 NA 
HETATM   13  C   UNL     1     -11.611  15.476  69.298  1.00  0.00    -0.357 C  
HETATM   14  O   UNL     1     -11.113  16.494  68.844  1.00  0.00    -0.329 OA 
ENDBRANCH   6   8
ENDBRANCH   3   6
TORSDOF 2
ENDMDL
MODEL      107
REMARK 921   NORMALIZED FREE ENERGY PREDICTED BY IDOCK:   -3.15 KCAL/MOL
REMARK 922        TOTAL FREE ENERGY PREDICTED BY IDOCK:   -3.85 KCAL/MOL
REMARK 923 INTER-LIGAND FREE ENERGY PREDICTED BY IDOCK:   -3.55 KCAL/MOL
REMARK 924 INTRA-LIGAND FREE ENERGY PREDICTED BY IDOCK:   -0.29 KCAL/MOL
REMARK 927      BINDING AFFINITY PREDICTED BY RF-SCORE:    0.00 PKD
ROOT
HETATM    1  N   UNL     1      -8.324  11.140  65.068  1.00  0.00    -0.373 N  
HETATM    2  H1  UNL     1      -7.605  11.845  65.235  1.00  0.00     0.000 HD 
HETATM    3  C   UNL     1      -9.580  11.475  64.685  1.00  0.00    -0.162 C  
HETATM    4  H2  UNL     1      -8.089  10.155  65.194  1.00  0.00     0.000 HD 
HETATM    5  O   UNL     1     -10.440  10.631  64.485  1.00  0.00    -0.345 OA 
ENDROOT
BRANCH   3   6
HETATM    6  N   UNL     1      -9.757  12.820  64.590  1.00  0.00    -0.528 N  
HETATM    7  H   UNL     1      -9.277  13.363  63.871  1.00  0.00     0.000 HD 
BRANCH   6   8
HETATM    8  C   UNL     1     -10.634  13.454  65.525  1.00  0.00    -0.290 C  
HETATM    9  N   UNL     1     -10.253  13.174  66.873  1.00  0.00    -0.243 NA 
HETATM   10  C   UNL     1     -10.293  14.305  67.653  1.00  0.00    -0.248 C  
HETATM   11  O   UNL     1     -10.186  14.319  68.866  1.00  0.00    -0.235 OA 
HETATM   12  N   UNL     1     -10.460  15.383  66.853  1.00  0.00    -0.289 NA 
HETATM   13  C   UNL     1     -10.563  14.999  65.550  1.00  0.00    -0.363 C  
HETATM   14  O   UNL     1     -10.592  15.762  64.597  1.00  0.00    -0.479 OA 
ENDBRANCH   6   8
ENDBRANCH   3   6
TORSDOF 2
ENDMDL
MODEL      108
REMARK 921   NORMALIZED FREE ENERGY PREDICTED BY IDOCK:   -3.15 KCAL/MOL
REMARK 922        TOTAL FREE ENERGY PREDICTED BY IDOCK:   -3.85 KCAL/MOL
REMARK 923 INTER-LIGAND FREE ENERGY PREDICTED BY IDOCK:   -3.53 KCAL/MOL
REMARK 924 INTRA-LIGAND FREE ENERGY PREDICTED BY IDOCK:   -0.32 KCAL/MOL
REMARK 927      BINDING AFFINITY PREDICTED BY RF-SCORE:    0.00 PKD
ROOT
HETATM    1  N   UNL     1      -8.603  15.103  69.585  1.00  0.00    -0.436 N  
HETATM    2  H1  UNL     1      -7.958  15.863  69.799  1.00  0.00     0.000 HD 
HETATM    3  C   UNL     1      -9.815  15.330  69.022  1.00  0.00    -0.230 C  
HETATM    4  H2  UNL     1      -8.328  14.145  69.801  1.00  0.00     0.000 HD 
HETATM    5  O   UNL     1     -10.588  14.420  68.766  1.00  0.00    -0.242 OA 
ENDROOT
BRANCH   3   6
HETATM    6  N   UNL     1     -10.059  16.654  68.821  1.00  0.00    -0.254 N  
HETATM    7  H   UNL     1     -11.007  17.026  68.869  1.00  0.00     0.000 HD 
BRANCH   6   8
HETATM    8  C   UNL     1      -8.948  17.510  68.542  1.00  0.00    -0.279 C  
HETATM    9  N   UNL     1      -8.375  17.226  67.264  1.00  0.00    -0.197 NA 
HETATM   10  C   UNL     1      -8.106  18.377  66.564  1.00  0.00    -0.269 C  
HETATM   11  O   UNL     1      -7.463  18.432  65.532  1.00  0.00    -0.528 OA 
HETATM   12  N   UNL     1      -8.677  19.423  67.206  1.00  0.00    -0.290 NA 
HETATM   13  C   UNL     1      -9.302  19.002  68.341  1.00  0.00    -0.355 C  
HETATM   14  O   UNL     1     -10.008  19.702  69.050  1.00  0.00    -0.447 OA 
ENDBRANCH   6   8
ENDBRANCH   3   6
TORSDOF 2
ENDMDL
MODEL      109
REMARK 921   NORMALIZED FREE ENERGY PREDICTED BY IDOCK:   -3.15 KCAL/MOL
REMARK 922        TOTAL FREE ENERGY PREDICTED BY IDOCK:   -3.84 KCAL/MOL
REMARK 923 INTER-LIGAND FREE ENERGY PREDICTED BY IDOCK:   -3.58 KCAL/MOL
REMARK 924 INTRA-LIGAND FREE ENERGY PREDICTED BY IDOCK:   -0.26 KCAL/MOL
REMARK 927      BINDING AFFINITY PREDICTED BY RF-SCORE:    0.00 PKD
ROOT
HETATM    1  N   UNL     1     -12.794  14.259  66.030  1.00  0.00    -0.432 N  
HETATM    2  H1  UNL     1     -12.502  14.152  67.001  1.00  0.00     0.000 HD 
HETATM    3  C   UNL     1     -11.991  13.899  64.998  1.00  0.00    -0.390 C  
HETATM    4  H2  UNL     1     -13.715  14.648  65.829  1.00  0.00     0.000 HD 
HETATM    5  O   UNL     1     -12.340  14.027  63.835  1.00  0.00    -0.659 OA 
ENDROOT
BRANCH   3   6
HETATM    6  N   UNL     1     -10.784  13.429  65.414  1.00  0.00    -0.292 N  
HETATM    7  H   UNL     1     -10.024  14.069  65.648  1.00  0.00     0.000 HD 
BRANCH   6   8
HETATM    8  C   UNL     1     -10.608  12.014  65.515  1.00  0.00    -0.273 C  
HETATM    9  N   UNL     1      -9.227  11.652  65.465  1.00  0.00    -0.155 NA 
HETATM   10  C   UNL     1      -8.917  10.713  66.419  1.00  0.00    -0.162 C  
HETATM   11  O   UNL     1      -7.863  10.107  66.484  1.00  0.00    -0.107 OA 
HETATM   12  N   UNL     1      -9.965  10.585  67.265  1.00  0.00    -0.179 NA 
HETATM   13  C   UNL     1     -10.988  11.400  66.883  1.00  0.00    -0.299 C  
HETATM   14  O   UNL     1     -12.008  11.590  67.528  1.00  0.00    -0.629 OA 
ENDBRANCH   6   8
ENDBRANCH   3   6
TORSDOF 2
ENDMDL
MODEL      110
REMARK 921   NORMALIZED FREE ENERGY PREDICTED BY IDOCK:   -3.13 KCAL/MOL
REMARK 922        TOTAL FREE ENERGY PREDICTED BY IDOCK:   -3.82 KCAL/MOL
REMARK 923 INTER-LIGAND FREE ENERGY PREDICTED BY IDOCK:   -3.77 KCAL/MOL
REMARK 924 INTRA-LIGAND FREE ENERGY PREDICTED BY IDOCK:   -0.06 KCAL/MOL
REMARK 927      BINDING AFFINITY PREDICTED BY RF-SCORE:    0.00 PKD
ROOT
HETATM    1  N   UNL     1     -10.275  13.212  64.049  1.00  0.00    -0.627 N  
HETATM    2  H1  UNL     1     -11.010  13.541  63.424  1.00  0.00     0.000 HD 
HETATM    3  C   UNL     1     -10.426  13.217  65.397  1.00  0.00    -0.297 C  
HETATM    4  H2  UNL     1      -9.401  12.869  63.650  1.00  0.00     0.000 HD 
HETATM    5  O   UNL     1      -9.546  12.823  66.145  1.00  0.00    -0.254 OA 
ENDROOT
BRANCH   3   6
HETATM    6  N   UNL     1     -11.624  13.731  65.786  1.00  0.00    -0.322 N  
HETATM    7  H   UNL     1     -12.480  13.180  65.712  1.00  0.00     0.000 HD 
BRANCH   6   8
HETATM    8  C   UNL     1     -11.651  15.064  66.304  1.00  0.00    -0.160 C  
HETATM    9  N   UNL     1     -10.810  15.198  67.451  1.00  0.00    -0.295 NA 
HETATM   10  C   UNL     1     -10.058  16.346  67.393  1.00  0.00    -0.262 C  
HETATM   11  O   UNL     1      -9.392  16.791  68.310  1.00  0.00    -0.218 OA 
HETATM   12  N   UNL     1     -10.176  16.885  66.157  1.00  0.00    -0.335 NA 
HETATM   13  C   UNL     1     -11.017  16.137  65.389  1.00  0.00    -0.227 C  
HETATM   14  O   UNL     1     -11.212  16.310  64.196  1.00  0.00    -0.766 OA 
ENDBRANCH   6   8
ENDBRANCH   3   6
TORSDOF 2
ENDMDL
MODEL      111
REMARK 921   NORMALIZED FREE ENERGY PREDICTED BY IDOCK:   -3.11 KCAL/MOL
REMARK 922        TOTAL FREE ENERGY PREDICTED BY IDOCK:   -3.81 KCAL/MOL
REMARK 923 INTER-LIGAND FREE ENERGY PREDICTED BY IDOCK:   -3.52 KCAL/MOL
REMARK 924 INTRA-LIGAND FREE ENERGY PREDICTED BY IDOCK:   -0.28 KCAL/MOL
REMARK 927      BINDING AFFINITY PREDICTED BY RF-SCORE:    0.00 PKD
ROOT
HETATM    1  N   UNL     1      -8.135  11.088  65.387  1.00  0.00    -0.364 N  
HETATM    2  H1  UNL     1      -8.815  11.098  64.627  1.00  0.00     0.000 HD 
HETATM    3  C   UNL     1      -8.411  11.622  66.602  1.00  0.00    -0.165 C  
HETATM    4  H2  UNL     1      -7.221  10.663  65.228  1.00  0.00     0.000 HD 
HETATM    5  O   UNL     1      -7.597  11.610  67.512  1.00  0.00    -0.112 OA 
ENDROOT
BRANCH   3   6
HETATM    6  N   UNL     1      -9.650  12.181  66.658  1.00  0.00    -0.214 N  
HETATM    7  H   UNL     1     -10.343  11.856  67.332  1.00  0.00     0.000 HD 
BRANCH   6   8
HETATM    8  C   UNL     1      -9.956  13.239  65.745  1.00  0.00    -0.251 C  
HETATM    9  N   UNL     1     -10.815  12.793  64.694  1.00  0.00    -0.316 NA 
HETATM   10  C   UNL     1     -11.825  13.692  64.452  1.00  0.00    -0.424 C  
HETATM   11  O   UNL     1     -12.587  13.646  63.504  1.00  0.00    -0.754 OA 
HETATM   12  N   UNL     1     -11.832  14.619  65.438  1.00  0.00    -0.334 NA 
HETATM   13  C   UNL     1     -10.826  14.378  66.326  1.00  0.00    -0.313 C  
HETATM   14  O   UNL     1     -10.669  14.972  67.381  1.00  0.00    -0.276 OA 
ENDBRANCH   6   8
ENDBRANCH   3   6
TORSDOF 2
ENDMDL
MODEL      112
REMARK 921   NORMALIZED FREE ENERGY PREDICTED BY IDOCK:   -3.08 KCAL/MOL
REMARK 922        TOTAL FREE ENERGY PREDICTED BY IDOCK:   -3.77 KCAL/MOL
REMARK 923 INTER-LIGAND FREE ENERGY PREDICTED BY IDOCK:   -3.36 KCAL/MOL
REMARK 924 INTRA-LIGAND FREE ENERGY PREDICTED BY IDOCK:   -0.42 KCAL/MOL
REMARK 927      BINDING AFFINITY PREDICTED BY RF-SCORE:    0.00 PKD
ROOT
HETATM    1  N   UNL     1     -11.327   4.474  65.185  1.00  0.00    -0.949 N  
HETATM    2  H1  UNL     1     -11.805   5.273  64.767  1.00  0.00     0.000 HD 
HETATM    3  C   UNL     1     -10.121   4.599  65.791  1.00  0.00    -0.244 C  
HETATM    4  H2  UNL     1     -11.770   3.556  65.145  1.00  0.00     0.000 HD 
HETATM    5  O   UNL     1      -9.549   3.643  66.291  1.00  0.00    -0.185 OA 
ENDROOT
BRANCH   3   6
HETATM    6  N   UNL     1      -9.639   5.870  65.739  1.00  0.00    -0.370 N  
HETATM    7  H   UNL     1      -9.115   6.199  64.928  1.00  0.00     0.000 HD 
BRANCH   6   8
HETATM    8  C   UNL     1      -9.887   6.733  66.852  1.00  0.00    -0.175 C  
HETATM    9  N   UNL     1     -11.062   6.343  67.566  1.00  0.00    -0.357 NA 
HETATM   10  C   UNL     1     -10.857   6.365  68.924  1.00  0.00    -0.325 C  
HETATM   11  O   UNL     1     -11.731   6.247  69.763  1.00  0.00    -0.403 OA 
HETATM   12  N   UNL     1      -9.536   6.529  69.166  1.00  0.00    -0.136 NA 
HETATM   13  C   UNL     1      -8.848   6.647  67.995  1.00  0.00    -0.115 C  
HETATM   14  O   UNL     1      -7.631   6.677  67.899  1.00  0.00    -0.102 OA 
ENDBRANCH   6   8
ENDBRANCH   3   6
TORSDOF 2
ENDMDL
MODEL      113
REMARK 921   NORMALIZED FREE ENERGY PREDICTED BY IDOCK:   -3.07 KCAL/MOL
REMARK 922        TOTAL FREE ENERGY PREDICTED BY IDOCK:   -3.75 KCAL/MOL
REMARK 923 INTER-LIGAND FREE ENERGY PREDICTED BY IDOCK:   -3.59 KCAL/MOL
REMARK 924 INTRA-LIGAND FREE ENERGY PREDICTED BY IDOCK:   -0.17 KCAL/MOL
REMARK 927      BINDING AFFINITY PREDICTED BY RF-SCORE:    0.00 PKD
ROOT
HETATM    1  N   UNL     1     -12.768  14.187  66.322  1.00  0.00    -0.487 N  
HETATM    2  H1  UNL     1     -13.610  14.271  66.892  1.00  0.00     0.000 HD 
HETATM    3  C   UNL     1     -11.544  14.007  66.877  1.00  0.00    -0.386 C  
HETATM    4  H2  UNL     1     -12.849  14.241  65.307  1.00  0.00     0.000 HD 
HETATM    5  O   UNL     1     -10.536  13.907  66.195  1.00  0.00    -0.284 OA 
ENDROOT
BRANCH   3   6
HETATM    6  N   UNL     1     -11.584  13.987  68.237  1.00  0.00    -0.309 N  
HETATM    7  H   UNL     1     -11.285  13.163  68.758  1.00  0.00     0.000 HD 
BRANCH   6   8
HETATM    8  C   UNL     1     -12.055  15.154  68.915  1.00  0.00    -0.194 C  
HETATM    9  N   UNL     1     -12.719  14.819  70.135  1.00  0.00    -0.269 NA 
HETATM   10  C   UNL     1     -12.334  15.646  71.163  1.00  0.00    -0.427 C  
HETATM   11  O   UNL     1     -12.867  15.694  72.256  1.00  0.00    -0.382 OA 
HETATM   12  N   UNL     1     -11.272  16.380  70.759  1.00  0.00    -0.288 NA 
HETATM   13  C   UNL     1     -10.951  16.085  69.468  1.00  0.00    -0.326 C  
HETATM   14  O   UNL     1      -9.961  16.497  68.883  1.00  0.00    -0.238 OA 
ENDBRANCH   6   8
ENDBRANCH   3   6
TORSDOF 2
ENDMDL
MODEL      114
REMARK 921   NORMALIZED FREE ENERGY PREDICTED BY IDOCK:   -3.06 KCAL/MOL
REMARK 922        TOTAL FREE ENERGY PREDICTED BY IDOCK:   -3.75 KCAL/MOL
REMARK 923 INTER-LIGAND FREE ENERGY PREDICTED BY IDOCK:   -3.64 KCAL/MOL
REMARK 924 INTRA-LIGAND FREE ENERGY PREDICTED BY IDOCK:   -0.11 KCAL/MOL
REMARK 927      BINDING AFFINITY PREDICTED BY RF-SCORE:    0.00 PKD
ROOT
HETATM    1  N   UNL     1     -11.316   6.491  66.897  1.00  0.00    -0.817 N  
HETATM    2  H1  UNL     1     -12.225   6.294  67.317  1.00  0.00     0.000 HD 
HETATM    3  C   UNL     1     -10.459   7.392  67.437  1.00  0.00    -0.296 C  
HETATM    4  H2  UNL     1     -11.044   5.996  66.048  1.00  0.00     0.000 HD 
HETATM    5  O   UNL     1      -9.371   7.628  66.936  1.00  0.00    -0.145 OA 
ENDROOT
BRANCH   3   6
HETATM    6  N   UNL     1     -10.966   7.998  68.545  1.00  0.00    -0.414 N  
HETATM    7  H   UNL     1     -11.663   7.531  69.125  1.00  0.00     0.000 HD 
BRANCH   6   8
HETATM    8  C   UNL     1     -10.496   9.308  68.873  1.00  0.00    -0.215 C  
HETATM    9  N   UNL     1     -11.161  10.312  68.105  1.00  0.00    -0.265 NA 
HETATM   10  C   UNL     1     -11.534  11.380  68.885  1.00  0.00    -0.298 C  
HETATM   11  O   UNL     1     -11.957  12.440  68.460  1.00  0.00    -0.318 OA 
HETATM   12  N   UNL     1     -11.359  11.054  70.186  1.00  0.00    -0.281 NA 
HETATM   13  C   UNL     1     -10.849   9.795  70.298  1.00  0.00    -0.301 C  
HETATM   14  O   UNL     1     -10.708   9.189  71.349  1.00  0.00    -0.290 OA 
ENDBRANCH   6   8
ENDBRANCH   3   6
TORSDOF 2
ENDMDL
MODEL      115
REMARK 921   NORMALIZED FREE ENERGY PREDICTED BY IDOCK:   -3.05 KCAL/MOL
REMARK 922        TOTAL FREE ENERGY PREDICTED BY IDOCK:   -3.74 KCAL/MOL
REMARK 923 INTER-LIGAND FREE ENERGY PREDICTED BY IDOCK:   -3.35 KCAL/MOL
REMARK 924 INTRA-LIGAND FREE ENERGY PREDICTED BY IDOCK:   -0.39 KCAL/MOL
REMARK 927      BINDING AFFINITY PREDICTED BY RF-SCORE:    0.00 PKD
ROOT
HETATM    1  N   UNL     1     -11.312   9.136  69.216  1.00  0.00    -0.420 N  
HETATM    2  H1  UNL     1     -11.849   8.500  68.626  1.00  0.00     0.000 HD 
HETATM    3  C   UNL     1     -11.473   9.171  70.561  1.00  0.00    -0.229 C  
HETATM    4  H2  UNL     1     -10.635   9.763  68.781  1.00  0.00     0.000 HD 
HETATM    5  O   UNL     1     -10.830   9.932  71.268  1.00  0.00    -0.289 OA 
ENDROOT
BRANCH   3   6
HETATM    6  N   UNL     1     -12.429   8.307  70.996  1.00  0.00    -0.493 N  
HETATM    7  H   UNL     1     -13.392   8.615  71.132  1.00  0.00     0.000 HD 
BRANCH   6   8
HETATM    8  C   UNL     1     -12.048   6.954  71.259  1.00  0.00    -0.373 C  
HETATM    9  N   UNL     1     -11.403   6.362  70.130  1.00  0.00    -0.393 NA 
HETATM   10  C   UNL     1     -10.285   5.655  70.500  1.00  0.00    -0.231 C  
HETATM   11  O   UNL     1      -9.653   4.915  69.768  1.00  0.00    -0.138 OA 
HETATM   12  N   UNL     1     -10.006   5.925  71.796  1.00  0.00    -0.164 NA 
HETATM   13  C   UNL     1     -10.932   6.778  72.316  1.00  0.00    -0.243 C  
HETATM   14  O   UNL     1     -10.864   7.295  73.421  1.00  0.00    -0.374 OA 
ENDBRANCH   6   8
ENDBRANCH   3   6
TORSDOF 2
ENDMDL
MODEL      116
REMARK 921   NORMALIZED FREE ENERGY PREDICTED BY IDOCK:   -3.05 KCAL/MOL
REMARK 922        TOTAL FREE ENERGY PREDICTED BY IDOCK:   -3.73 KCAL/MOL
REMARK 923 INTER-LIGAND FREE ENERGY PREDICTED BY IDOCK:   -3.39 KCAL/MOL
REMARK 924 INTRA-LIGAND FREE ENERGY PREDICTED BY IDOCK:   -0.35 KCAL/MOL
REMARK 927      BINDING AFFINITY PREDICTED BY RF-SCORE:    0.00 PKD
ROOT
HETATM    1  N   UNL     1     -12.688  14.417  66.152  1.00  0.00    -0.411 N  
HETATM    2  H1  UNL     1     -12.590  14.618  67.147  1.00  0.00     0.000 HD 
HETATM    3  C   UNL     1     -11.637  14.010  65.398  1.00  0.00    -0.328 C  
HETATM    4  H2  UNL     1     -13.601  14.527  65.712  1.00  0.00     0.000 HD 
HETATM    5  O   UNL     1     -11.753  13.770  64.207  1.00  0.00    -0.394 OA 
ENDROOT
BRANCH   3   6
HETATM    6  N   UNL     1     -10.479  13.940  66.109  1.00  0.00    -0.291 N  
HETATM    7  H   UNL     1      -9.787  14.688  66.057  1.00  0.00     0.000 HD 
BRANCH   6   8
HETATM    8  C   UNL     1     -10.259  12.791  66.931  1.00  0.00    -0.236 C  
HETATM    9  N   UNL     1     -11.255  12.675  67.948  1.00  0.00    -0.248 NA 
HETATM   10  C   UNL     1     -11.709  11.384  68.065  1.00  0.00    -0.254 C  
HETATM   11  O   UNL     1     -12.425  10.974  68.960  1.00  0.00    -0.449 OA 
HETATM   12  N   UNL     1     -11.237  10.658  67.024  1.00  0.00    -0.277 NA 
HETATM   13  C   UNL     1     -10.450  11.430  66.223  1.00  0.00    -0.255 C  
HETATM   14  O   UNL     1      -9.994  11.079  65.145  1.00  0.00    -0.243 OA 
ENDBRANCH   6   8
ENDBRANCH   3   6
TORSDOF 2
ENDMDL
MODEL      117
REMARK 921   NORMALIZED FREE ENERGY PREDICTED BY IDOCK:   -3.05 KCAL/MOL
REMARK 922        TOTAL FREE ENERGY PREDICTED BY IDOCK:   -3.73 KCAL/MOL
REMARK 923 INTER-LIGAND FREE ENERGY PREDICTED BY IDOCK:   -3.56 KCAL/MOL
REMARK 924 INTRA-LIGAND FREE ENERGY PREDICTED BY IDOCK:   -0.17 KCAL/MOL
REMARK 927      BINDING AFFINITY PREDICTED BY RF-SCORE:    0.00 PKD
ROOT
HETATM    1  N   UNL     1     -11.020  14.584  69.839  1.00  0.00    -0.433 N  
HETATM    2  H1  UNL     1     -10.632  15.371  70.359  1.00  0.00     0.000 HD 
HETATM    3  C   UNL     1     -11.440  14.711  68.556  1.00  0.00    -0.302 C  
HETATM    4  H2  UNL     1     -11.095  13.676  70.298  1.00  0.00     0.000 HD 
HETATM    5  O   UNL     1     -11.904  13.769  67.934  1.00  0.00    -0.345 OA 
ENDROOT
BRANCH   3   6
HETATM    6  N   UNL     1     -11.311  15.982  68.088  1.00  0.00    -0.325 N  
HETATM    7  H   UNL     1     -11.814  16.287  67.255  1.00  0.00     0.000 HD 
BRANCH   6   8
HETATM    8  C   UNL     1     -10.450  16.879  68.795  1.00  0.00    -0.343 C  
HETATM    9  N   UNL     1      -9.110  16.387  68.848  1.00  0.00    -0.249 NA 
HETATM   10  C   UNL     1      -8.198  17.377  68.576  1.00  0.00    -0.268 C  
HETATM   11  O   UNL     1      -6.994  17.276  68.723  1.00  0.00    -0.208 OA 
HETATM   12  N   UNL     1      -8.858  18.465  68.115  1.00  0.00    -0.294 NA 
HETATM   13  C   UNL     1     -10.201  18.237  68.099  1.00  0.00    -0.387 C  
HETATM   14  O   UNL     1     -11.032  18.990  67.614  1.00  0.00    -0.407 OA 
ENDBRANCH   6   8
ENDBRANCH   3   6
TORSDOF 2
ENDMDL
MODEL      118
REMARK 921   NORMALIZED FREE ENERGY PREDICTED BY IDOCK:   -3.04 KCAL/MOL
REMARK 922        TOTAL FREE ENERGY PREDICTED BY IDOCK:   -3.72 KCAL/MOL
REMARK 923 INTER-LIGAND FREE ENERGY PREDICTED BY IDOCK:   -3.63 KCAL/MOL
REMARK 924 INTRA-LIGAND FREE ENERGY PREDICTED BY IDOCK:   -0.09 KCAL/MOL
REMARK 927      BINDING AFFINITY PREDICTED BY RF-SCORE:    0.00 PKD
ROOT
HETATM    1  N   UNL     1     -12.177  11.517  63.121  1.00  0.00    -0.932 N  
HETATM    2  H1  UNL     1     -13.025  11.670  63.666  1.00  0.00     0.000 HD 
HETATM    3  C   UNL     1     -10.955  11.881  63.581  1.00  0.00    -0.440 C  
HETATM    4  H2  UNL     1     -12.251  11.078  62.203  1.00  0.00     0.000 HD 
HETATM    5  O   UNL     1      -9.939  11.698  62.928  1.00  0.00    -0.341 OA 
ENDROOT
BRANCH   3   6
HETATM    6  N   UNL     1     -11.013  12.483  64.800  1.00  0.00    -0.292 N  
HETATM    7  H   UNL     1     -11.362  13.437  64.898  1.00  0.00     0.000 HD 
BRANCH   6   8
HETATM    8  C   UNL     1     -10.572  11.742  65.941  1.00  0.00    -0.271 C  
HETATM    9  N   UNL     1      -9.186  11.965  66.207  1.00  0.00    -0.222 NA 
HETATM   10  C   UNL     1      -8.955  12.167  67.546  1.00  0.00    -0.177 C  
HETATM   11  O   UNL     1      -7.855  12.207  68.066  1.00  0.00    -0.125 OA 
HETATM   12  N   UNL     1     -10.143  12.320  68.177  1.00  0.00    -0.206 NA 
HETATM   13  C   UNL     1     -11.172  12.196  67.292  1.00  0.00    -0.306 C  
HETATM   14  O   UNL     1     -12.346  12.413  67.551  1.00  0.00    -0.322 OA 
ENDBRANCH   6   8
ENDBRANCH   3   6
TORSDOF 2
ENDMDL
MODEL      119
REMARK 921   NORMALIZED FREE ENERGY PREDICTED BY IDOCK:   -3.03 KCAL/MOL
REMARK 922        TOTAL FREE ENERGY PREDICTED BY IDOCK:   -3.72 KCAL/MOL
REMARK 923 INTER-LIGAND FREE ENERGY PREDICTED BY IDOCK:   -3.36 KCAL/MOL
REMARK 924 INTRA-LIGAND FREE ENERGY PREDICTED BY IDOCK:   -0.36 KCAL/MOL
REMARK 927      BINDING AFFINITY PREDICTED BY RF-SCORE:    0.00 PKD
ROOT
HETATM    1  N   UNL     1     -10.703   6.764  73.953  1.00  0.00    -0.500 N  
HETATM    2  H1  UNL     1     -10.830   7.737  74.232  1.00  0.00     0.000 HD 
HETATM    3  C   UNL     1     -11.403   6.216  72.930  1.00  0.00    -0.169 C  
HETATM    4  H2  UNL     1     -10.030   6.188  74.459  1.00  0.00     0.000 HD 
HETATM    5  O   UNL     1     -11.251   5.052  72.595  1.00  0.00    -0.226 OA 
ENDROOT
BRANCH   3   6
HETATM    6  N   UNL     1     -12.284   7.090  72.372  1.00  0.00    -0.505 N  
HETATM    7  H   UNL     1     -13.259   7.115  72.672  1.00  0.00     0.000 HD 
BRANCH   6   8
HETATM    8  C   UNL     1     -11.807   7.972  71.353  1.00  0.00    -0.295 C  
HETATM    9  N   UNL     1     -10.744   8.800  71.831  1.00  0.00    -0.339 NA 
HETATM   10  C   UNL     1      -9.715   8.873  70.924  1.00  0.00    -0.239 C  
HETATM   11  O   UNL     1      -8.772   9.640  71.000  1.00  0.00    -0.208 OA 
HETATM   12  N   UNL     1      -9.922   7.955  69.952  1.00  0.00    -0.189 NA 
HETATM   13  C   UNL     1     -11.087   7.283  70.170  1.00  0.00    -0.258 C  
HETATM   14  O   UNL     1     -11.465   6.315  69.530  1.00  0.00    -0.428 OA 
ENDBRANCH   6   8
ENDBRANCH   3   6
TORSDOF 2
ENDMDL
MODEL      120
REMARK 921   NORMALIZED FREE ENERGY PREDICTED BY IDOCK:   -3.02 KCAL/MOL
REMARK 922        TOTAL FREE ENERGY PREDICTED BY IDOCK:   -3.71 KCAL/MOL
REMARK 923 INTER-LIGAND FREE ENERGY PREDICTED BY IDOCK:   -3.54 KCAL/MOL
REMARK 924 INTRA-LIGAND FREE ENERGY PREDICTED BY IDOCK:   -0.17 KCAL/MOL
REMARK 927      BINDING AFFINITY PREDICTED BY RF-SCORE:    0.00 PKD
ROOT
HETATM    1  N   UNL     1     -12.125  14.878  68.031  1.00  0.00    -0.557 N  
HETATM    2  H1  UNL     1     -11.671  14.323  67.305  1.00  0.00     0.000 HD 
HETATM    3  C   UNL     1     -12.001  14.575  69.346  1.00  0.00    -0.322 C  
HETATM    4  H2  UNL     1     -12.688  15.683  67.758  1.00  0.00     0.000 HD 
HETATM    5  O   UNL     1     -12.544  15.240  70.215  1.00  0.00    -0.370 OA 
ENDROOT
BRANCH   3   6
HETATM    6  N   UNL     1     -11.250  13.460  69.558  1.00  0.00    -0.449 N  
HETATM    7  H   UNL     1     -10.313  13.526  69.955  1.00  0.00     0.000 HD 
BRANCH   6   8
HETATM    8  C   UNL     1     -11.812  12.192  69.210  1.00  0.00    -0.313 C  
HETATM    9  N   UNL     1     -10.813  11.289  68.732  1.00  0.00    -0.195 NA 
HETATM   10  C   UNL     1     -10.961  10.038  69.278  1.00  0.00    -0.228 C  
HETATM   11  O   UNL     1     -10.359   9.043  68.916  1.00  0.00    -0.207 OA 
HETATM   12  N   UNL     1     -11.871  10.101  70.278  1.00  0.00    -0.270 NA 
HETATM   13  C   UNL     1     -12.360  11.367  70.397  1.00  0.00    -0.319 C  
HETATM   14  O   UNL     1     -13.098  11.749  71.293  1.00  0.00    -0.307 OA 
ENDBRANCH   6   8
ENDBRANCH   3   6
TORSDOF 2
ENDMDL
MODEL      121
REMARK 921   NORMALIZED FREE ENERGY PREDICTED BY IDOCK:   -3.00 KCAL/MOL
REMARK 922        TOTAL FREE ENERGY PREDICTED BY IDOCK:   -3.68 KCAL/MOL
REMARK 923 INTER-LIGAND FREE ENERGY PREDICTED BY IDOCK:   -3.67 KCAL/MOL
REMARK 924 INTRA-LIGAND FREE ENERGY PREDICTED BY IDOCK:   -0.01 KCAL/MOL
REMARK 927      BINDING AFFINITY PREDICTED BY RF-SCORE:    0.00 PKD
ROOT
HETATM    1  N   UNL     1      -6.738  17.873  69.345  1.00  0.00    -0.213 N  
HETATM    2  H1  UNL     1      -7.006  18.010  70.320  1.00  0.00     0.000 HD 
HETATM    3  C   UNL     1      -7.187  18.688  68.359  1.00  0.00    -0.280 C  
HETATM    4  H2  UNL     1      -6.116  17.101  69.106  1.00  0.00     0.000 HD 
HETATM    5  O   UNL     1      -6.867  18.525  67.192  1.00  0.00    -0.198 OA 
ENDROOT
BRANCH   3   6
HETATM    6  N   UNL     1      -8.031  19.650  68.820  1.00  0.00    -0.322 N  
HETATM    7  H   UNL     1      -7.694  20.399  69.425  1.00  0.00     0.000 HD 
BRANCH   6   8
HETATM    8  C   UNL     1      -9.406  19.584  68.431  1.00  0.00    -0.367 C  
HETATM    9  N   UNL     1      -9.615  20.158  67.140  1.00  0.00    -0.393 NA 
HETATM   10  C   UNL     1     -10.435  19.373  66.366  1.00  0.00    -0.488 C  
HETATM   11  O   UNL     1     -10.913  19.707  65.296  1.00  0.00    -0.422 OA 
HETATM   12  N   UNL     1     -10.611  18.182  66.983  1.00  0.00    -0.363 NA 
HETATM   13  C   UNL     1      -9.948  18.159  68.173  1.00  0.00    -0.359 C  
HETATM   14  O   UNL     1      -9.823  17.173  68.883  1.00  0.00    -0.271 OA 
ENDBRANCH   6   8
ENDBRANCH   3   6
TORSDOF 2
ENDMDL
MODEL      122
REMARK 921   NORMALIZED FREE ENERGY PREDICTED BY IDOCK:   -3.00 KCAL/MOL
REMARK 922        TOTAL FREE ENERGY PREDICTED BY IDOCK:   -3.68 KCAL/MOL
REMARK 923 INTER-LIGAND FREE ENERGY PREDICTED BY IDOCK:   -3.31 KCAL/MOL
REMARK 924 INTRA-LIGAND FREE ENERGY PREDICTED BY IDOCK:   -0.36 KCAL/MOL
REMARK 927      BINDING AFFINITY PREDICTED BY RF-SCORE:    0.00 PKD
ROOT
HETATM    1  N   UNL     1      -9.993  12.917  68.891  1.00  0.00    -0.427 N  
HETATM    2  H1  UNL     1     -10.997  12.932  69.068  1.00  0.00     0.000 HD 
HETATM    3  C   UNL     1      -9.368  11.814  68.410  1.00  0.00    -0.185 C  
HETATM    4  H2  UNL     1      -9.443  13.755  69.082  1.00  0.00     0.000 HD 
HETATM    5  O   UNL     1      -8.165  11.796  68.198  1.00  0.00    -0.138 OA 
ENDROOT
BRANCH   3   6
HETATM    6  N   UNL     1     -10.217  10.766  68.236  1.00  0.00    -0.161 N  
HETATM    7  H   UNL     1     -10.293  10.030  68.938  1.00  0.00     0.000 HD 
BRANCH   6   8
HETATM    8  C   UNL     1     -11.001  10.724  67.041  1.00  0.00    -0.227 C  
HETATM    9  N   UNL     1     -11.794  11.903  66.892  1.00  0.00    -0.610 NA 
HETATM   10  C   UNL     1     -11.747  12.383  65.605  1.00  0.00    -0.414 C  
HETATM   11  O   UNL     1     -12.460  13.266  65.164  1.00  0.00    -0.438 OA 
HETATM   12  N   UNL     1     -10.781  11.722  64.926  1.00  0.00    -0.284 NA 
HETATM   13  C   UNL     1     -10.195  10.784  65.723  1.00  0.00    -0.257 C  
HETATM   14  O   UNL     1      -9.211  10.128  65.420  1.00  0.00    -0.173 OA 
ENDBRANCH   6   8
ENDBRANCH   3   6
TORSDOF 2
ENDMDL
MODEL      123
REMARK 921   NORMALIZED FREE ENERGY PREDICTED BY IDOCK:   -2.99 KCAL/MOL
REMARK 922        TOTAL FREE ENERGY PREDICTED BY IDOCK:   -3.67 KCAL/MOL
REMARK 923 INTER-LIGAND FREE ENERGY PREDICTED BY IDOCK:   -3.35 KCAL/MOL
REMARK 924 INTRA-LIGAND FREE ENERGY PREDICTED BY IDOCK:   -0.32 KCAL/MOL
REMARK 927      BINDING AFFINITY PREDICTED BY RF-SCORE:    0.00 PKD
ROOT
HETATM    1  N   UNL     1     -14.116   7.631  71.203  1.00  0.00    -0.661 N  
HETATM    2  H1  UNL     1     -14.115   7.342  70.225  1.00  0.00     0.000 HD 
HETATM    3  C   UNL     1     -13.411   8.707  71.633  1.00  0.00    -0.357 C  
HETATM    4  H2  UNL     1     -14.664   7.096  71.877  1.00  0.00     0.000 HD 
HETATM    5  O   UNL     1     -13.413   9.052  72.803  1.00  0.00    -0.428 OA 
ENDROOT
BRANCH   3   6
HETATM    6  N   UNL     1     -12.705   9.302  70.634  1.00  0.00    -0.495 N  
HETATM    7  H   UNL     1     -13.149   9.968  70.002  1.00  0.00     0.000 HD 
BRANCH   6   8
HETATM    8  C   UNL     1     -11.321   8.968  70.493  1.00  0.00    -0.243 C  
HETATM    9  N   UNL     1     -11.145   7.586  70.175  1.00  0.00    -0.255 NA 
HETATM   10  C   UNL     1     -10.218   7.413  69.175  1.00  0.00    -0.196 C  
HETATM   11  O   UNL     1      -9.753   6.341  68.833  1.00  0.00    -0.128 OA 
HETATM   12  N   UNL     1      -9.922   8.620  68.640  1.00  0.00    -0.178 NA 
HETATM   13  C   UNL     1     -10.610   9.608  69.278  1.00  0.00    -0.219 C  
HETATM   14  O   UNL     1     -10.640  10.777  68.928  1.00  0.00    -0.191 OA 
ENDBRANCH   6   8
ENDBRANCH   3   6
TORSDOF 2
ENDMDL
MODEL      124
REMARK 921   NORMALIZED FREE ENERGY PREDICTED BY IDOCK:   -2.99 KCAL/MOL
REMARK 922        TOTAL FREE ENERGY PREDICTED BY IDOCK:   -3.67 KCAL/MOL
REMARK 923 INTER-LIGAND FREE ENERGY PREDICTED BY IDOCK:   -3.53 KCAL/MOL
REMARK 924 INTRA-LIGAND FREE ENERGY PREDICTED BY IDOCK:   -0.14 KCAL/MOL
REMARK 927      BINDING AFFINITY PREDICTED BY RF-SCORE:    0.00 PKD
ROOT
HETATM    1  N   UNL     1     -11.582   9.821  69.725  1.00  0.00    -0.439 N  
HETATM    2  H1  UNL     1     -12.123  10.561  70.173  1.00  0.00     0.000 HD 
HETATM    3  C   UNL     1     -10.838  10.051  68.615  1.00  0.00    -0.229 C  
HETATM    4  H2  UNL     1     -11.602   8.882  70.123  1.00  0.00     0.000 HD 
HETATM    5  O   UNL     1     -10.191   9.165  68.078  1.00  0.00    -0.190 OA 
ENDROOT
BRANCH   3   6
HETATM    6  N   UNL     1     -10.933  11.336  68.178  1.00  0.00    -0.212 N  
HETATM    7  H   UNL     1     -10.742  12.118  68.804  1.00  0.00     0.000 HD 
BRANCH   6   8
HETATM    8  C   UNL     1     -11.307  11.560  66.816  1.00  0.00    -0.238 C  
HETATM    9  N   UNL     1     -12.380  12.498  66.715  1.00  0.00    -0.351 NA 
HETATM   10  C   UNL     1     -12.156  13.416  65.718  1.00  0.00    -0.436 C  
HETATM   11  O   UNL     1     -12.979  14.213  65.305  1.00  0.00    -0.725 OA 
HETATM   12  N   UNL     1     -10.879  13.290  65.286  1.00  0.00    -0.293 NA 
HETATM   13  C   UNL     1     -10.247  12.284  65.954  1.00  0.00    -0.249 C  
HETATM   14  O   UNL     1      -9.056  12.028  65.865  1.00  0.00    -0.164 OA 
ENDBRANCH   6   8
ENDBRANCH   3   6
TORSDOF 2
ENDMDL
MODEL      125
REMARK 921   NORMALIZED FREE ENERGY PREDICTED BY IDOCK:   -2.98 KCAL/MOL
REMARK 922        TOTAL FREE ENERGY PREDICTED BY IDOCK:   -3.66 KCAL/MOL
REMARK 923 INTER-LIGAND FREE ENERGY PREDICTED BY IDOCK:   -3.55 KCAL/MOL
REMARK 924 INTRA-LIGAND FREE ENERGY PREDICTED BY IDOCK:   -0.11 KCAL/MOL
REMARK 927      BINDING AFFINITY PREDICTED BY RF-SCORE:    0.00 PKD
ROOT
HETATM    1  N   UNL     1     -11.138   5.700  66.292  1.00  0.00    -0.772 N  
HETATM    2  H1  UNL     1     -11.414   4.766  66.594  1.00  0.00     0.000 HD 
HETATM    3  C   UNL     1     -10.940   6.709  67.176  1.00  0.00    -0.408 C  
HETATM    4  H2  UNL     1     -11.008   5.881  65.297  1.00  0.00     0.000 HD 
HETATM    5  O   UNL     1     -10.610   7.827  66.815  1.00  0.00    -0.331 OA 
ENDROOT
BRANCH   3   6
HETATM    6  N   UNL     1     -11.182   6.333  68.461  1.00  0.00    -0.491 N  
HETATM    7  H   UNL     1     -11.892   5.634  68.678  1.00  0.00     0.000 HD 
BRANCH   6   8
HETATM    8  C   UNL     1     -10.413   6.945  69.500  1.00  0.00    -0.223 C  
HETATM    9  N   UNL     1     -11.246   7.653  70.421  1.00  0.00    -0.264 NA 
HETATM   10  C   UNL     1     -10.882   7.405  71.722  1.00  0.00    -0.223 C  
HETATM   11  O   UNL     1     -11.306   8.008  72.692  1.00  0.00    -0.372 OA 
HETATM   12  N   UNL     1      -9.991   6.387  71.742  1.00  0.00    -0.177 NA 
HETATM   13  C   UNL     1      -9.724   5.962  70.475  1.00  0.00    -0.175 C  
HETATM   14  O   UNL     1      -9.059   4.978  70.194  1.00  0.00    -0.113 OA 
ENDBRANCH   6   8
ENDBRANCH   3   6
TORSDOF 2
ENDMDL
MODEL      126
REMARK 921   NORMALIZED FREE ENERGY PREDICTED BY IDOCK:   -2.98 KCAL/MOL
REMARK 922        TOTAL FREE ENERGY PREDICTED BY IDOCK:   -3.66 KCAL/MOL
REMARK 923 INTER-LIGAND FREE ENERGY PREDICTED BY IDOCK:   -3.24 KCAL/MOL
REMARK 924 INTRA-LIGAND FREE ENERGY PREDICTED BY IDOCK:   -0.42 KCAL/MOL
REMARK 927      BINDING AFFINITY PREDICTED BY RF-SCORE:    0.00 PKD
ROOT
HETATM    1  N   UNL     1      -7.488  14.589  69.517  1.00  0.00    -0.349 N  
HETATM    2  H1  UNL     1      -7.811  14.749  70.471  1.00  0.00     0.000 HD 
HETATM    3  C   UNL     1      -8.323  14.150  68.544  1.00  0.00    -0.155 C  
HETATM    4  H2  UNL     1      -6.510  14.765  69.289  1.00  0.00     0.000 HD 
HETATM    5  O   UNL     1      -7.937  13.958  67.401  1.00  0.00    -0.171 OA 
ENDROOT
BRANCH   3   6
HETATM    6  N   UNL     1      -9.585  13.926  68.999  1.00  0.00    -0.407 N  
HETATM    7  H   UNL     1      -9.857  13.015  69.366  1.00  0.00     0.000 HD 
BRANCH   6   8
HETATM    8  C   UNL     1     -10.522  15.006  68.948  1.00  0.00    -0.241 C  
HETATM    9  N   UNL     1      -9.939  16.228  69.405  1.00  0.00    -0.249 NA 
HETATM   10  C   UNL     1     -10.263  17.280  68.582  1.00  0.00    -0.351 C  
HETATM   11  O   UNL     1     -10.046  18.452  68.830  1.00  0.00    -0.388 OA 
HETATM   12  N   UNL     1     -10.848  16.795  67.462  1.00  0.00    -0.270 NA 
HETATM   13  C   UNL     1     -10.951  15.438  67.527  1.00  0.00    -0.315 C  
HETATM   14  O   UNL     1     -11.319  14.721  66.609  1.00  0.00    -0.345 OA 
ENDBRANCH   6   8
ENDBRANCH   3   6
TORSDOF 2
ENDMDL
MODEL      127
REMARK 921   NORMALIZED FREE ENERGY PREDICTED BY IDOCK:   -2.96 KCAL/MOL
REMARK 922        TOTAL FREE ENERGY PREDICTED BY IDOCK:   -3.64 KCAL/MOL
REMARK 923 INTER-LIGAND FREE ENERGY PREDICTED BY IDOCK:   -3.24 KCAL/MOL
REMARK 924 INTRA-LIGAND FREE ENERGY PREDICTED BY IDOCK:   -0.40 KCAL/MOL
REMARK 927      BINDING AFFINITY PREDICTED BY RF-SCORE:    0.00 PKD
ROOT
HETATM    1  N   UNL     1      -7.938  10.856  69.618  1.00  0.00    -0.372 N  
HETATM    2  H1  UNL     1      -7.916   9.875  69.897  1.00  0.00     0.000 HD 
HETATM    3  C   UNL     1      -8.637  11.276  68.535  1.00  0.00    -0.156 C  
HETATM    4  H2  UNL     1      -7.419  11.539  70.169  1.00  0.00     0.000 HD 
HETATM    5  O   UNL     1      -8.662  12.450  68.201  1.00  0.00    -0.179 OA 
ENDROOT
BRANCH   3   6
HETATM    6  N   UNL     1      -9.250  10.254  67.879  1.00  0.00    -0.137 N  
HETATM    7  H   UNL     1      -8.776   9.755  67.126  1.00  0.00     0.000 HD 
BRANCH   6   8
HETATM    8  C   UNL     1     -10.578   9.899  68.274  1.00  0.00    -0.229 C  
HETATM    9  N   UNL     1     -10.667   9.690  69.685  1.00  0.00    -0.229 NA 
HETATM   10  C   UNL     1     -11.785  10.289  70.213  1.00  0.00    -0.306 C  
HETATM   11  O   UNL     1     -12.194  10.124  71.348  1.00  0.00    -0.357 OA 
HETATM   12  N   UNL     1     -12.341  11.087  69.273  1.00  0.00    -0.408 NA 
HETATM   13  C   UNL     1     -11.634  11.016  68.109  1.00  0.00    -0.272 C  
HETATM   14  O   UNL     1     -11.826  11.722  67.131  1.00  0.00    -0.599 OA 
ENDBRANCH   6   8
ENDBRANCH   3   6
TORSDOF 2
ENDMDL
MODEL      128
REMARK 921   NORMALIZED FREE ENERGY PREDICTED BY IDOCK:   -2.95 KCAL/MOL
REMARK 922        TOTAL FREE ENERGY PREDICTED BY IDOCK:   -3.63 KCAL/MOL
REMARK 923 INTER-LIGAND FREE ENERGY PREDICTED BY IDOCK:   -3.38 KCAL/MOL
REMARK 924 INTRA-LIGAND FREE ENERGY PREDICTED BY IDOCK:   -0.25 KCAL/MOL
REMARK 927      BINDING AFFINITY PREDICTED BY RF-SCORE:    0.00 PKD
ROOT
HETATM    1  N   UNL     1     -12.159  11.272  70.269  1.00  0.00    -0.349 N  
HETATM    2  H1  UNL     1     -12.553  12.068  70.771  1.00  0.00     0.000 HD 
HETATM    3  C   UNL     1     -11.805  11.353  68.963  1.00  0.00    -0.348 C  
HETATM    4  H2  UNL     1     -12.029  10.390  70.764  1.00  0.00     0.000 HD 
HETATM    5  O   UNL     1     -11.334  10.401  68.362  1.00  0.00    -0.276 OA 
ENDROOT
BRANCH   3   6
HETATM    6  N   UNL     1     -12.066  12.576  68.426  1.00  0.00    -0.195 N  
HETATM    7  H   UNL     1     -12.806  12.697  67.734  1.00  0.00     0.000 HD 
BRANCH   6   8
HETATM    8  C   UNL     1     -11.275  13.686  68.857  1.00  0.00    -0.270 C  
HETATM    9  N   UNL     1     -10.919  14.533  67.763  1.00  0.00    -0.268 NA 
HETATM   10  C   UNL     1     -11.083  15.860  68.078  1.00  0.00    -0.334 C  
HETATM   11  O   UNL     1     -10.693  16.792  67.398  1.00  0.00    -0.314 OA 
HETATM   12  N   UNL     1     -11.748  15.952  69.253  1.00  0.00    -0.370 NA 
HETATM   13  C   UNL     1     -12.012  14.711  69.750  1.00  0.00    -0.329 C  
HETATM   14  O   UNL     1     -12.708  14.483  70.727  1.00  0.00    -0.330 OA 
ENDBRANCH   6   8
ENDBRANCH   3   6
TORSDOF 2
ENDMDL
MODEL      129
REMARK 921   NORMALIZED FREE ENERGY PREDICTED BY IDOCK:   -2.94 KCAL/MOL
REMARK 922        TOTAL FREE ENERGY PREDICTED BY IDOCK:   -3.62 KCAL/MOL
REMARK 923 INTER-LIGAND FREE ENERGY PREDICTED BY IDOCK:   -3.35 KCAL/MOL
REMARK 924 INTRA-LIGAND FREE ENERGY PREDICTED BY IDOCK:   -0.26 KCAL/MOL
REMARK 927      BINDING AFFINITY PREDICTED BY RF-SCORE:    0.00 PKD
ROOT
HETATM    1  N   UNL     1      -8.911  12.159  67.404  1.00  0.00    -0.174 N  
HETATM    2  H1  UNL     1      -9.348  11.238  67.411  1.00  0.00     0.000 HD 
HETATM    3  C   UNL     1      -9.557  13.255  66.935  1.00  0.00    -0.249 C  
HETATM    4  H2  UNL     1      -7.960  12.259  67.759  1.00  0.00     0.000 HD 
HETATM    5  O   UNL     1      -9.034  14.358  66.926  1.00  0.00    -0.231 OA 
ENDROOT
BRANCH   3   6
HETATM    6  N   UNL     1     -10.801  12.967  66.464  1.00  0.00    -0.268 N  
HETATM    7  H   UNL     1     -10.992  12.953  65.462  1.00  0.00     0.000 HD 
BRANCH   6   8
HETATM    8  C   UNL     1     -11.833  12.683  67.412  1.00  0.00    -0.328 C  
HETATM    9  N   UNL     1     -11.623  11.424  68.055  1.00  0.00    -0.473 NA 
HETATM   10  C   UNL     1     -11.836  11.507  69.409  1.00  0.00    -0.350 C  
HETATM   11  O   UNL     1     -11.896  10.555  70.166  1.00  0.00    -0.274 OA 
HETATM   12  N   UNL     1     -11.957  12.810  69.754  1.00  0.00    -0.314 NA 
HETATM   13  C   UNL     1     -11.859  13.606  68.653  1.00  0.00    -0.374 C  
HETATM   14  O   UNL     1     -11.803  14.826  68.676  1.00  0.00    -0.318 OA 
ENDBRANCH   6   8
ENDBRANCH   3   6
TORSDOF 2
ENDMDL
MODEL      130
REMARK 921   NORMALIZED FREE ENERGY PREDICTED BY IDOCK:   -2.93 KCAL/MOL
REMARK 922        TOTAL FREE ENERGY PREDICTED BY IDOCK:   -3.61 KCAL/MOL
REMARK 923 INTER-LIGAND FREE ENERGY PREDICTED BY IDOCK:   -3.35 KCAL/MOL
REMARK 924 INTRA-LIGAND FREE ENERGY PREDICTED BY IDOCK:   -0.26 KCAL/MOL
REMARK 927      BINDING AFFINITY PREDICTED BY RF-SCORE:    0.00 PKD
ROOT
HETATM    1  N   UNL     1     -11.459   6.484  67.200  1.00  0.00    -0.745 N  
HETATM    2  H1  UNL     1     -11.868   5.856  67.893  1.00  0.00     0.000 HD 
HETATM    3  C   UNL     1     -10.553   7.433  67.541  1.00  0.00    -0.269 C  
HETATM    4  H2  UNL     1     -11.740   6.395  66.224  1.00  0.00     0.000 HD 
HETATM    5  O   UNL     1     -10.064   8.184  66.713  1.00  0.00    -0.254 OA 
ENDROOT
BRANCH   3   6
HETATM    6  N   UNL     1     -10.299   7.458  68.878  1.00  0.00    -0.203 N  
HETATM    7  H   UNL     1      -9.464   7.914  69.245  1.00  0.00     0.000 HD 
BRANCH   6   8
HETATM    8  C   UNL     1     -11.236   6.827  69.755  1.00  0.00    -0.315 C  
HETATM    9  N   UNL     1     -10.665   5.686  70.399  1.00  0.00    -0.292 NA 
HETATM   10  C   UNL     1     -10.972   5.657  71.738  1.00  0.00    -0.226 C  
HETATM   11  O   UNL     1     -10.763   4.716  72.481  1.00  0.00    -0.200 OA 
HETATM   12  N   UNL     1     -11.532   6.840  72.085  1.00  0.00    -0.271 NA 
HETATM   13  C   UNL     1     -11.634   7.656  70.998  1.00  0.00    -0.282 C  
HETATM   14  O   UNL     1     -11.981   8.826  71.034  1.00  0.00    -0.290 OA 
ENDBRANCH   6   8
ENDBRANCH   3   6
TORSDOF 2
ENDMDL
MODEL      131
REMARK 921   NORMALIZED FREE ENERGY PREDICTED BY IDOCK:   -2.93 KCAL/MOL
REMARK 922        TOTAL FREE ENERGY PREDICTED BY IDOCK:   -3.61 KCAL/MOL
REMARK 923 INTER-LIGAND FREE ENERGY PREDICTED BY IDOCK:   -3.23 KCAL/MOL
REMARK 924 INTRA-LIGAND FREE ENERGY PREDICTED BY IDOCK:   -0.37 KCAL/MOL
REMARK 927      BINDING AFFINITY PREDICTED BY RF-SCORE:    0.00 PKD
ROOT
HETATM    1  N   UNL     1     -10.219   4.534  72.340  1.00  0.00    -0.186 N  
HETATM    2  H1  UNL     1     -10.313   4.431  73.350  1.00  0.00     0.000 HD 
HETATM    3  C   UNL     1     -10.899   5.483  71.651  1.00  0.00    -0.204 C  
HETATM    4  H2  UNL     1      -9.596   3.905  71.834  1.00  0.00     0.000 HD 
HETATM    5  O   UNL     1     -10.787   5.607  70.441  1.00  0.00    -0.292 OA 
ENDROOT
BRANCH   3   6
HETATM    6  N   UNL     1     -11.714   6.226  72.448  1.00  0.00    -0.429 N  
HETATM    7  H   UNL     1     -12.643   5.891  72.705  1.00  0.00     0.000 HD 
BRANCH   6   8
HETATM    8  C   UNL     1     -11.233   7.488  72.917  1.00  0.00    -0.346 C  
HETATM    9  N   UNL     1      -9.932   7.371  73.497  1.00  0.00    -0.307 NA 
HETATM   10  C   UNL     1      -9.101   8.382  73.079  1.00  0.00    -0.188 C  
HETATM   11  O   UNL     1      -8.003   8.621  73.548  1.00  0.00    -0.410 OA 
HETATM   12  N   UNL     1      -9.700   9.051  72.067  1.00  0.00    -0.288 NA 
HETATM   13  C   UNL     1     -10.933   8.528  71.813  1.00  0.00    -0.306 C  
HETATM   14  O   UNL     1     -11.646   8.846  70.874  1.00  0.00    -0.279 OA 
ENDBRANCH   6   8
ENDBRANCH   3   6
TORSDOF 2
ENDMDL
MODEL      132
REMARK 921   NORMALIZED FREE ENERGY PREDICTED BY IDOCK:   -2.91 KCAL/MOL
REMARK 922        TOTAL FREE ENERGY PREDICTED BY IDOCK:   -3.58 KCAL/MOL
REMARK 923 INTER-LIGAND FREE ENERGY PREDICTED BY IDOCK:   -3.53 KCAL/MOL
REMARK 924 INTRA-LIGAND FREE ENERGY PREDICTED BY IDOCK:   -0.05 KCAL/MOL
REMARK 927      BINDING AFFINITY PREDICTED BY RF-SCORE:    0.00 PKD
ROOT
HETATM    1  N   UNL     1      -9.645  15.452  68.407  1.00  0.00    -0.197 N  
HETATM    2  H1  UNL     1     -10.410  15.678  69.043  1.00  0.00     0.000 HD 
HETATM    3  C   UNL     1      -9.835  15.343  67.070  1.00  0.00    -0.232 C  
HETATM    4  H2  UNL     1      -8.711  15.302  68.789  1.00  0.00     0.000 HD 
HETATM    5  O   UNL     1      -8.920  15.072  66.308  1.00  0.00    -0.275 OA 
ENDROOT
BRANCH   3   6
HETATM    6  N   UNL     1     -11.133  15.535  66.709  1.00  0.00    -0.261 N  
HETATM    7  H   UNL     1     -11.547  16.467  66.716  1.00  0.00     0.000 HD 
BRANCH   6   8
HETATM    8  C   UNL     1     -11.901  14.394  66.318  1.00  0.00    -0.379 C  
HETATM    9  N   UNL     1     -11.326  13.738  65.185  1.00  0.00    -0.303 NA 
HETATM   10  C   UNL     1     -11.309  12.374  65.348  1.00  0.00    -0.337 C  
HETATM   11  O   UNL     1     -11.037  11.571  64.474  1.00  0.00    -0.321 OA 
HETATM   12  N   UNL     1     -11.633  12.081  66.629  1.00  0.00    -0.513 NA 
HETATM   13  C   UNL     1     -11.897  13.222  67.326  1.00  0.00    -0.372 C  
HETATM   14  O   UNL     1     -12.090  13.274  68.531  1.00  0.00    -0.341 OA 
ENDBRANCH   6   8
ENDBRANCH   3   6
TORSDOF 2
ENDMDL
MODEL      133
REMARK 921   NORMALIZED FREE ENERGY PREDICTED BY IDOCK:   -2.90 KCAL/MOL
REMARK 922        TOTAL FREE ENERGY PREDICTED BY IDOCK:   -3.57 KCAL/MOL
REMARK 923 INTER-LIGAND FREE ENERGY PREDICTED BY IDOCK:   -3.50 KCAL/MOL
REMARK 924 INTRA-LIGAND FREE ENERGY PREDICTED BY IDOCK:   -0.07 KCAL/MOL
REMARK 927      BINDING AFFINITY PREDICTED BY RF-SCORE:    0.00 PKD
ROOT
HETATM    1  N   UNL     1     -10.182  14.449  69.329  1.00  0.00    -0.415 N  
HETATM    2  H1  UNL     1      -9.323  13.985  69.033  1.00  0.00     0.000 HD 
HETATM    3  C   UNL     1     -10.871  15.275  68.503  1.00  0.00    -0.253 C  
HETATM    4  H2  UNL     1     -10.533  14.286  70.273  1.00  0.00     0.000 HD 
HETATM    5  O   UNL     1     -11.899  15.830  68.858  1.00  0.00    -0.393 OA 
ENDROOT
BRANCH   3   6
HETATM    6  N   UNL     1     -10.270  15.423  67.292  1.00  0.00    -0.250 N  
HETATM    7  H   UNL     1     -10.293  14.674  66.599  1.00  0.00     0.000 HD 
BRANCH   6   8
HETATM    8  C   UNL     1      -9.604  16.658  67.015  1.00  0.00    -0.244 C  
HETATM    9  N   UNL     1     -10.534  17.698  66.709  1.00  0.00    -0.320 NA 
HETATM   10  C   UNL     1     -10.213  18.868  67.353  1.00  0.00    -0.392 C  
HETATM   11  O   UNL     1     -10.731  19.949  67.137  1.00  0.00    -0.429 OA 
HETATM   12  N   UNL     1      -9.243  18.615  68.262  1.00  0.00    -0.312 NA 
HETATM   13  C   UNL     1      -8.883  17.301  68.222  1.00  0.00    -0.258 C  
HETATM   14  O   UNL     1      -8.126  16.760  69.013  1.00  0.00    -0.238 OA 
ENDBRANCH   6   8
ENDBRANCH   3   6
TORSDOF 2
ENDMDL
MODEL      134
REMARK 921   NORMALIZED FREE ENERGY PREDICTED BY IDOCK:   -2.90 KCAL/MOL
REMARK 922        TOTAL FREE ENERGY PREDICTED BY IDOCK:   -3.56 KCAL/MOL
REMARK 923 INTER-LIGAND FREE ENERGY PREDICTED BY IDOCK:   -3.14 KCAL/MOL
REMARK 924 INTRA-LIGAND FREE ENERGY PREDICTED BY IDOCK:   -0.42 KCAL/MOL
REMARK 927      BINDING AFFINITY PREDICTED BY RF-SCORE:    0.00 PKD
ROOT
HETATM    1  N   UNL     1      -8.145   9.157  70.157  1.00  0.00    -0.122 N  
HETATM    2  H1  UNL     1      -8.411   9.496  69.232  1.00  0.00     0.000 HD 
HETATM    3  C   UNL     1      -9.009   9.178  71.202  1.00  0.00    -0.179 C  
HETATM    4  H2  UNL     1      -7.203   8.792  70.299  1.00  0.00     0.000 HD 
HETATM    5  O   UNL     1      -8.691   8.773  72.309  1.00  0.00    -0.375 OA 
ENDROOT
BRANCH   3   6
HETATM    6  N   UNL     1     -10.213   9.720  70.875  1.00  0.00    -0.338 N  
HETATM    7  H   UNL     1     -10.386  10.719  70.987  1.00  0.00     0.000 HD 
BRANCH   6   8
HETATM    8  C   UNL     1     -11.230   8.851  70.369  1.00  0.00    -0.230 C  
HETATM    9  N   UNL     1     -10.669   7.755  69.644  1.00  0.00    -0.242 NA 
HETATM   10  C   UNL     1     -11.276   6.568  69.976  1.00  0.00    -0.393 C  
HETATM   11  O   UNL     1     -11.114   5.514  69.388  1.00  0.00    -0.202 OA 
HETATM   12  N   UNL     1     -12.064   6.766  71.057  1.00  0.00    -0.379 NA 
HETATM   13  C   UNL     1     -12.024   8.072  71.444  1.00  0.00    -0.298 C  
HETATM   14  O   UNL     1     -12.533   8.516  72.461  1.00  0.00    -0.383 OA 
ENDBRANCH   6   8
ENDBRANCH   3   6
TORSDOF 2
ENDMDL
MODEL      135
REMARK 921   NORMALIZED FREE ENERGY PREDICTED BY IDOCK:   -2.88 KCAL/MOL
REMARK 922        TOTAL FREE ENERGY PREDICTED BY IDOCK:   -3.55 KCAL/MOL
REMARK 923 INTER-LIGAND FREE ENERGY PREDICTED BY IDOCK:   -3.34 KCAL/MOL
REMARK 924 INTRA-LIGAND FREE ENERGY PREDICTED BY IDOCK:   -0.21 KCAL/MOL
REMARK 927      BINDING AFFINITY PREDICTED BY RF-SCORE:    0.00 PKD
ROOT
HETATM    1  N   UNL     1     -10.324  13.956  69.088  1.00  0.00    -0.425 N  
HETATM    2  H1  UNL     1      -9.908  13.429  69.856  1.00  0.00     0.000 HD 
HETATM    3  C   UNL     1     -11.598  13.742  68.679  1.00  0.00    -0.334 C  
HETATM    4  H2  UNL     1      -9.763  14.665  68.615  1.00  0.00     0.000 HD 
HETATM    5  O   UNL     1     -12.095  14.373  67.760  1.00  0.00    -0.356 OA 
ENDROOT
BRANCH   3   6
HETATM    6  N   UNL     1     -12.211  12.748  69.377  1.00  0.00    -0.157 N  
HETATM    7  H   UNL     1     -12.701  12.944  70.250  1.00  0.00     0.000 HD 
BRANCH   6   8
HETATM    8  C   UNL     1     -12.150  11.418  68.853  1.00  0.00    -0.219 C  
HETATM    9  N   UNL     1     -11.605  11.400  67.532  1.00  0.00    -0.558 NA 
HETATM   10  C   UNL     1     -10.688  10.388  67.379  1.00  0.00    -0.283 C  
HETATM   11  O   UNL     1     -10.205  10.040  66.317  1.00  0.00    -0.241 OA 
HETATM   12  N   UNL     1     -10.411   9.861  68.594  1.00  0.00    -0.198 NA 
HETATM   13  C   UNL     1     -11.147  10.478  69.561  1.00  0.00    -0.268 C  
HETATM   14  O   UNL     1     -11.013  10.299  70.761  1.00  0.00    -0.306 OA 
ENDBRANCH   6   8
ENDBRANCH   3   6
TORSDOF 2
ENDMDL
MODEL      136
REMARK 921   NORMALIZED FREE ENERGY PREDICTED BY IDOCK:   -2.86 KCAL/MOL
REMARK 922        TOTAL FREE ENERGY PREDICTED BY IDOCK:   -3.52 KCAL/MOL
REMARK 923 INTER-LIGAND FREE ENERGY PREDICTED BY IDOCK:   -3.28 KCAL/MOL
REMARK 924 INTRA-LIGAND FREE ENERGY PREDICTED BY IDOCK:   -0.24 KCAL/MOL
REMARK 927      BINDING AFFINITY PREDICTED BY RF-SCORE:    0.00 PKD
ROOT
HETATM    1  N   UNL     1     -10.338   2.415  64.276  1.00  0.00    -0.370 N  
HETATM    2  H1  UNL     1     -10.460   2.005  65.202  1.00  0.00     0.000 HD 
HETATM    3  C   UNL     1     -10.653   3.707  64.017  1.00  0.00    -0.263 C  
HETATM    4  H2  UNL     1      -9.968   1.834  63.523  1.00  0.00     0.000 HD 
HETATM    5  O   UNL     1     -10.507   4.197  62.909  1.00  0.00    -0.160 OA 
ENDROOT
BRANCH   3   6
HETATM    6  N   UNL     1     -11.165   4.348  65.103  1.00  0.00    -0.935 N  
HETATM    7  H   UNL     1     -12.170   4.368  65.275  1.00  0.00     0.000 HD 
BRANCH   6   8
HETATM    8  C   UNL     1     -10.254   4.993  65.998  1.00  0.00    -0.222 C  
HETATM    9  N   UNL     1     -10.895   6.034  66.737  1.00  0.00    -0.316 NA 
HETATM   10  C   UNL     1     -10.548   5.996  68.066  1.00  0.00    -0.262 C  
HETATM   11  O   UNL     1     -10.809   6.863  68.880  1.00  0.00    -0.229 OA 
HETATM   12  N   UNL     1      -9.882   4.844  68.312  1.00  0.00    -0.150 NA 
HETATM   13  C   UNL     1      -9.749   4.117  67.167  1.00  0.00    -0.186 C  
HETATM   14  O   UNL     1      -9.307   2.980  67.109  1.00  0.00    -0.186 OA 
ENDBRANCH   6   8
ENDBRANCH   3   6
TORSDOF 2
ENDMDL
MODEL      137
REMARK 921   NORMALIZED FREE ENERGY PREDICTED BY IDOCK:   -2.85 KCAL/MOL
REMARK 922        TOTAL FREE ENERGY PREDICTED BY IDOCK:   -3.52 KCAL/MOL
REMARK 923 INTER-LIGAND FREE ENERGY PREDICTED BY IDOCK:   -3.37 KCAL/MOL
REMARK 924 INTRA-LIGAND FREE ENERGY PREDICTED BY IDOCK:   -0.15 KCAL/MOL
REMARK 927      BINDING AFFINITY PREDICTED BY RF-SCORE:    0.00 PKD
ROOT
HETATM    1  N   UNL     1     -11.450   6.770  69.196  1.00  0.00    -0.593 N  
HETATM    2  H1  UNL     1     -12.109   7.498  69.472  1.00  0.00     0.000 HD 
HETATM    3  C   UNL     1     -11.017   5.827  70.069  1.00  0.00    -0.311 C  
HETATM    4  H2  UNL     1     -11.107   6.751  68.236  1.00  0.00     0.000 HD 
HETATM    5  O   UNL     1     -10.228   4.956  69.739  1.00  0.00    -0.252 OA 
ENDROOT
BRANCH   3   6
HETATM    6  N   UNL     1     -11.531   5.996  71.318  1.00  0.00    -0.241 N  
HETATM    7  H   UNL     1     -12.257   5.375  71.674  1.00  0.00     0.000 HD 
BRANCH   6   8
HETATM    8  C   UNL     1     -11.024   7.068  72.118  1.00  0.00    -0.234 C  
HETATM    9  N   UNL     1      -9.624   7.262  71.908  1.00  0.00    -0.149 NA 
HETATM   10  C   UNL     1      -9.313   8.594  71.777  1.00  0.00    -0.273 C  
HETATM   11  O   UNL     1      -8.184   9.049  71.764  1.00  0.00    -0.351 OA 
HETATM   12  N   UNL     1     -10.461   9.301  71.659  1.00  0.00    -0.330 NA 
HETATM   13  C   UNL     1     -11.541   8.474  71.736  1.00  0.00    -0.312 C  
HETATM   14  O   UNL     1     -12.697   8.814  71.535  1.00  0.00    -0.319 OA 
ENDBRANCH   6   8
ENDBRANCH   3   6
TORSDOF 2
ENDMDL
MODEL      138
REMARK 921   NORMALIZED FREE ENERGY PREDICTED BY IDOCK:   -2.85 KCAL/MOL
REMARK 922        TOTAL FREE ENERGY PREDICTED BY IDOCK:   -3.51 KCAL/MOL
REMARK 923 INTER-LIGAND FREE ENERGY PREDICTED BY IDOCK:   -3.30 KCAL/MOL
REMARK 924 INTRA-LIGAND FREE ENERGY PREDICTED BY IDOCK:   -0.21 KCAL/MOL
REMARK 927      BINDING AFFINITY PREDICTED BY RF-SCORE:    0.00 PKD
ROOT
HETATM    1  N   UNL     1     -11.767   4.995  73.289  1.00  0.00    -0.489 N  
HETATM    2  H1  UNL     1     -12.624   5.361  72.873  1.00  0.00     0.000 HD 
HETATM    3  C   UNL     1     -10.756   5.809  73.680  1.00  0.00    -0.251 C  
HETATM    4  H2  UNL     1     -11.669   3.987  73.413  1.00  0.00     0.000 HD 
HETATM    5  O   UNL     1      -9.731   5.370  74.177  1.00  0.00    -0.145 OA 
ENDROOT
BRANCH   3   6
HETATM    6  N   UNL     1     -11.012   7.120  73.424  1.00  0.00    -0.555 N  
HETATM    7  H   UNL     1     -11.149   7.786  74.184  1.00  0.00     0.000 HD 
BRANCH   6   8
HETATM    8  C   UNL     1     -11.082   7.541  72.059  1.00  0.00    -0.247 C  
HETATM    9  N   UNL     1     -10.487   6.581  71.183  1.00  0.00    -0.216 NA 
HETATM   10  C   UNL     1     -11.264   6.362  70.072  1.00  0.00    -0.411 C  
HETATM   11  O   UNL     1     -10.915   5.731  69.091  1.00  0.00    -0.320 OA 
HETATM   12  N   UNL     1     -12.467   6.953  70.255  1.00  0.00     0.012 NA 
HETATM   13  C   UNL     1     -12.506   7.591  71.459  1.00  0.00    -0.346 C  
HETATM   14  O   UNL     1     -13.503   8.100  71.947  1.00  0.00    -0.332 OA 
ENDBRANCH   6   8
ENDBRANCH   3   6
TORSDOF 2
ENDMDL
MODEL      139
REMARK 921   NORMALIZED FREE ENERGY PREDICTED BY IDOCK:   -2.84 KCAL/MOL
REMARK 922        TOTAL FREE ENERGY PREDICTED BY IDOCK:   -3.50 KCAL/MOL
REMARK 923 INTER-LIGAND FREE ENERGY PREDICTED BY IDOCK:   -3.42 KCAL/MOL
REMARK 924 INTRA-LIGAND FREE ENERGY PREDICTED BY IDOCK:   -0.08 KCAL/MOL
REMARK 927      BINDING AFFINITY PREDICTED BY RF-SCORE:    0.00 PKD
ROOT
HETATM    1  N   UNL     1      -9.079  16.321  69.126  1.00  0.00    -0.252 N  
HETATM    2  H1  UNL     1      -9.682  17.099  69.394  1.00  0.00     0.000 HD 
HETATM    3  C   UNL     1      -9.422  15.456  68.141  1.00  0.00    -0.202 C  
HETATM    4  H2  UNL     1      -8.193  16.190  69.615  1.00  0.00     0.000 HD 
HETATM    5  O   UNL     1      -8.701  14.524  67.821  1.00  0.00    -0.160 OA 
ENDROOT
BRANCH   3   6
HETATM    6  N   UNL     1     -10.641  15.732  67.603  1.00  0.00    -0.294 N  
HETATM    7  H   UNL     1     -10.782  16.556  67.018  1.00  0.00     0.000 HD 
BRANCH   6   8
HETATM    8  C   UNL     1     -11.721  14.836  67.880  1.00  0.00    -0.341 C  
HETATM    9  N   UNL     1     -11.576  13.605  67.169  1.00  0.00    -0.341 NA 
HETATM   10  C   UNL     1     -11.843  12.524  67.974  1.00  0.00    -0.325 C  
HETATM   11  O   UNL     1     -11.963  11.377  67.583  1.00  0.00    -0.630 OA 
HETATM   12  N   UNL     1     -11.940  12.945  69.256  1.00  0.00    -0.287 NA 
HETATM   13  C   UNL     1     -11.772  14.296  69.328  1.00  0.00    -0.321 C  
HETATM   14  O   UNL     1     -11.681  14.934  70.365  1.00  0.00    -0.265 OA 
ENDBRANCH   6   8
ENDBRANCH   3   6
TORSDOF 2
ENDMDL
MODEL      140
REMARK 921   NORMALIZED FREE ENERGY PREDICTED BY IDOCK:   -2.80 KCAL/MOL
REMARK 922        TOTAL FREE ENERGY PREDICTED BY IDOCK:   -3.45 KCAL/MOL
REMARK 923 INTER-LIGAND FREE ENERGY PREDICTED BY IDOCK:   -3.18 KCAL/MOL
REMARK 924 INTRA-LIGAND FREE ENERGY PREDICTED BY IDOCK:   -0.28 KCAL/MOL
REMARK 927      BINDING AFFINITY PREDICTED BY RF-SCORE:    0.00 PKD
ROOT
HETATM    1  N   UNL     1      -9.166   7.478  74.146  1.00  0.00    -0.399 N  
HETATM    2  H1  UNL     1      -8.953   8.326  73.620  1.00  0.00     0.000 HD 
HETATM    3  C   UNL     1     -10.055   6.560  73.694  1.00  0.00    -0.258 C  
HETATM    4  H2  UNL     1      -8.698   7.318  75.038  1.00  0.00     0.000 HD 
HETATM    5  O   UNL     1     -10.311   5.546  74.323  1.00  0.00    -0.253 OA 
ENDROOT
BRANCH   3   6
HETATM    6  N   UNL     1     -10.625   6.921  72.512  1.00  0.00    -0.213 N  
HETATM    7  H   UNL     1     -10.747   6.244  71.760  1.00  0.00     0.000 HD 
BRANCH   6   8
HETATM    8  C   UNL     1     -11.048   8.278  72.354  1.00  0.00    -0.377 C  
HETATM    9  N   UNL     1     -10.239   8.972  71.402  1.00  0.00    -0.304 NA 
HETATM   10  C   UNL     1     -11.003   9.724  70.543  1.00  0.00    -0.321 C  
HETATM   11  O   UNL     1     -10.565  10.542  69.754  1.00  0.00    -0.247 OA 
HETATM   12  N   UNL     1     -12.305   9.399  70.717  1.00  0.00    -0.185 NA 
HETATM   13  C   UNL     1     -12.436   8.462  71.697  1.00  0.00    -0.328 C  
HETATM   14  O   UNL     1     -13.476   7.889  71.981  1.00  0.00    -0.291 OA 
ENDBRANCH   6   8
ENDBRANCH   3   6
TORSDOF 2
ENDMDL
MODEL      141
REMARK 921   NORMALIZED FREE ENERGY PREDICTED BY IDOCK:   -2.77 KCAL/MOL
REMARK 922        TOTAL FREE ENERGY PREDICTED BY IDOCK:   -3.43 KCAL/MOL
REMARK 923 INTER-LIGAND FREE ENERGY PREDICTED BY IDOCK:   -3.13 KCAL/MOL
REMARK 924 INTRA-LIGAND FREE ENERGY PREDICTED BY IDOCK:   -0.30 KCAL/MOL
REMARK 927      BINDING AFFINITY PREDICTED BY RF-SCORE:    0.00 PKD
ROOT
HETATM    1  N   UNL     1      -7.815  12.213  67.773  1.00  0.00    -0.137 N  
HETATM    2  H1  UNL     1      -7.679  11.330  67.280  1.00  0.00     0.000 HD 
HETATM    3  C   UNL     1      -8.646  13.175  67.302  1.00  0.00    -0.210 C  
HETATM    4  H2  UNL     1      -7.310  12.377  68.644  1.00  0.00     0.000 HD 
HETATM    5  O   UNL     1      -8.808  14.232  67.892  1.00  0.00    -0.164 OA 
ENDROOT
BRANCH   3   6
HETATM    6  N   UNL     1      -9.224  12.834  66.118  1.00  0.00    -0.441 N  
HETATM    7  H   UNL     1      -8.903  13.243  65.241  1.00  0.00     0.000 HD 
BRANCH   6   8
HETATM    8  C   UNL     1     -10.294  11.885  66.137  1.00  0.00    -0.226 C  
HETATM    9  N   UNL     1      -9.834  10.583  66.505  1.00  0.00    -0.199 NA 
HETATM   10  C   UNL     1     -10.674   9.990  67.415  1.00  0.00    -0.274 C  
HETATM   11  O   UNL     1     -10.616   8.824  67.762  1.00  0.00    -0.239 OA 
HETATM   12  N   UNL     1     -11.560  10.911  67.859  1.00  0.00    -0.549 NA 
HETATM   13  C   UNL     1     -11.351  12.109  67.243  1.00  0.00    -0.334 C  
HETATM   14  O   UNL     1     -11.914  13.153  67.537  1.00  0.00    -0.358 OA 
ENDBRANCH   6   8
ENDBRANCH   3   6
TORSDOF 2
ENDMDL
MODEL      142
REMARK 921   NORMALIZED FREE ENERGY PREDICTED BY IDOCK:   -2.77 KCAL/MOL
REMARK 922        TOTAL FREE ENERGY PREDICTED BY IDOCK:   -3.43 KCAL/MOL
REMARK 923 INTER-LIGAND FREE ENERGY PREDICTED BY IDOCK:   -3.03 KCAL/MOL
REMARK 924 INTRA-LIGAND FREE ENERGY PREDICTED BY IDOCK:   -0.39 KCAL/MOL
REMARK 927      BINDING AFFINITY PREDICTED BY RF-SCORE:    0.00 PKD
ROOT
HETATM    1  N   UNL     1      -8.671   8.101  72.789  1.00  0.00    -0.197 N  
HETATM    2  H1  UNL     1      -8.273   8.750  72.110  1.00  0.00     0.000 HD 
HETATM    3  C   UNL     1     -10.010   7.973  72.957  1.00  0.00    -0.279 C  
HETATM    4  H2  UNL     1      -8.044   7.534  73.359  1.00  0.00     0.000 HD 
HETATM    5  O   UNL     1     -10.487   7.197  73.770  1.00  0.00    -0.371 OA 
ENDROOT
BRANCH   3   6
HETATM    6  N   UNL     1     -10.720   8.814  72.156  1.00  0.00    -0.343 N  
HETATM    7  H   UNL     1     -11.038   9.721  72.499  1.00  0.00     0.000 HD 
BRANCH   6   8
HETATM    8  C   UNL     1     -11.009   8.392  70.821  1.00  0.00    -0.247 C  
HETATM    9  N   UNL     1      -9.856   7.837  70.185  1.00  0.00    -0.184 NA 
HETATM   10  C   UNL     1     -10.161   6.681  69.508  1.00  0.00    -0.177 C  
HETATM   11  O   UNL     1      -9.411   6.103  68.743  1.00  0.00    -0.124 OA 
HETATM   12  N   UNL     1     -11.415   6.297  69.840  1.00  0.00    -0.436 NA 
HETATM   13  C   UNL     1     -11.974   7.188  70.706  1.00  0.00    -0.310 C  
HETATM   14  O   UNL     1     -13.044   7.034  71.273  1.00  0.00    -0.369 OA 
ENDBRANCH   6   8
ENDBRANCH   3   6
TORSDOF 2
ENDMDL
MODEL      143
REMARK 921   NORMALIZED FREE ENERGY PREDICTED BY IDOCK:   -2.77 KCAL/MOL
REMARK 922        TOTAL FREE ENERGY PREDICTED BY IDOCK:   -3.42 KCAL/MOL
REMARK 923 INTER-LIGAND FREE ENERGY PREDICTED BY IDOCK:   -3.30 KCAL/MOL
REMARK 924 INTRA-LIGAND FREE ENERGY PREDICTED BY IDOCK:   -0.13 KCAL/MOL
REMARK 927      BINDING AFFINITY PREDICTED BY RF-SCORE:    0.00 PKD
ROOT
HETATM    1  N   UNL     1     -11.186   5.523  66.073  1.00  0.00    -0.742 N  
HETATM    2  H1  UNL     1     -12.047   5.977  65.767  1.00  0.00     0.000 HD 
HETATM    3  C   UNL     1     -10.555   5.882  67.217  1.00  0.00    -0.291 C  
HETATM    4  H2  UNL     1     -10.789   4.779  65.500  1.00  0.00     0.000 HD 
HETATM    5  O   UNL     1      -9.524   5.339  67.583  1.00  0.00    -0.115 OA 
ENDROOT
BRANCH   3   6
HETATM    6  N   UNL     1     -11.177   6.908  67.859  1.00  0.00    -0.558 N  
HETATM    7  H   UNL     1     -12.184   7.048  67.770  1.00  0.00     0.000 HD 
BRANCH   6   8
HETATM    8  C   UNL     1     -10.382   7.784  68.662  1.00  0.00    -0.199 C  
HETATM    9  N   UNL     1     -10.552   9.149  68.274  1.00  0.00    -0.202 NA 
HETATM   10  C   UNL     1     -10.698   9.969  69.367  1.00  0.00    -0.233 C  
HETATM   11  O   UNL     1     -10.684  11.186  69.332  1.00  0.00    -0.224 OA 
HETATM   12  N   UNL     1     -10.865   9.204  70.470  1.00  0.00    -0.240 NA 
HETATM   13  C   UNL     1     -10.806   7.881  70.146  1.00  0.00    -0.243 C  
HETATM   14  O   UNL     1     -11.050   6.963  70.913  1.00  0.00    -0.250 OA 
ENDBRANCH   6   8
ENDBRANCH   3   6
TORSDOF 2
ENDMDL
MODEL      144
REMARK 921   NORMALIZED FREE ENERGY PREDICTED BY IDOCK:   -2.76 KCAL/MOL
REMARK 922        TOTAL FREE ENERGY PREDICTED BY IDOCK:   -3.42 KCAL/MOL
REMARK 923 INTER-LIGAND FREE ENERGY PREDICTED BY IDOCK:   -3.05 KCAL/MOL
REMARK 924 INTRA-LIGAND FREE ENERGY PREDICTED BY IDOCK:   -0.37 KCAL/MOL
REMARK 927      BINDING AFFINITY PREDICTED BY RF-SCORE:    0.00 PKD
ROOT
HETATM    1  N   UNL     1     -12.299  10.789  69.366  1.00  0.00    -0.508 N  
HETATM    2  H1  UNL     1     -11.984  10.385  70.248  1.00  0.00     0.000 HD 
HETATM    3  C   UNL     1     -11.435  11.079  68.362  1.00  0.00    -0.308 C  
HETATM    4  H2  UNL     1     -13.292  10.981  69.236  1.00  0.00     0.000 HD 
HETATM    5  O   UNL     1     -11.812  11.563  67.307  1.00  0.00    -0.609 OA 
ENDROOT
BRANCH   3   6
HETATM    6  N   UNL     1     -10.143  10.803  68.688  1.00  0.00    -0.176 N  
HETATM    7  H   UNL     1      -9.555  11.503  69.139  1.00  0.00     0.000 HD 
BRANCH   6   8
HETATM    8  C   UNL     1      -9.632   9.503  68.381  1.00  0.00    -0.142 C  
HETATM    9  N   UNL     1     -10.443   8.473  68.951  1.00  0.00    -0.211 NA 
HETATM   10  C   UNL     1     -10.670   7.457  68.055  1.00  0.00    -0.127 C  
HETATM   11  O   UNL     1     -11.178   6.385  68.330  1.00  0.00    -0.309 OA 
HETATM   12  N   UNL     1     -10.247   7.849  66.831  1.00  0.00    -0.291 NA 
HETATM   13  C   UNL     1      -9.711   9.101  66.890  1.00  0.00    -0.194 C  
HETATM   14  O   UNL     1      -9.366   9.759  65.921  1.00  0.00    -0.173 OA 
ENDBRANCH   6   8
ENDBRANCH   3   6
TORSDOF 2
ENDMDL
MODEL      145
REMARK 921   NORMALIZED FREE ENERGY PREDICTED BY IDOCK:   -2.76 KCAL/MOL
REMARK 922        TOTAL FREE ENERGY PREDICTED BY IDOCK:   -3.41 KCAL/MOL
REMARK 923 INTER-LIGAND FREE ENERGY PREDICTED BY IDOCK:   -3.33 KCAL/MOL
REMARK 924 INTRA-LIGAND FREE ENERGY PREDICTED BY IDOCK:   -0.09 KCAL/MOL
REMARK 927      BINDING AFFINITY PREDICTED BY RF-SCORE:    0.00 PKD
ROOT
HETATM    1  N   UNL     1      -8.880  11.288  64.908  1.00  0.00    -0.388 N  
HETATM    2  H1  UNL     1      -9.541  10.842  64.271  1.00  0.00     0.000 HD 
HETATM    3  C   UNL     1      -9.268  11.787  66.107  1.00  0.00    -0.210 C  
HETATM    4  H2  UNL     1      -7.900  11.359  64.635  1.00  0.00     0.000 HD 
HETATM    5  O   UNL     1      -8.477  12.320  66.870  1.00  0.00    -0.187 OA 
ENDROOT
BRANCH   3   6
HETATM    6  N   UNL     1     -10.604  11.652  66.322  1.00  0.00    -0.249 N  
HETATM    7  H   UNL     1     -11.006  10.749  66.577  1.00  0.00     0.000 HD 
BRANCH   6   8
HETATM    8  C   UNL     1     -11.432  12.810  66.183  1.00  0.00    -0.351 C  
HETATM    9  N   UNL     1     -11.157  13.776  67.199  1.00  0.00    -0.296 NA 
HETATM   10  C   UNL     1     -11.081  15.046  66.681  1.00  0.00    -0.326 C  
HETATM   11  O   UNL     1     -11.032  16.067  67.342  1.00  0.00    -0.315 OA 
HETATM   12  N   UNL     1     -11.063  14.967  65.330  1.00  0.00    -0.359 NA 
HETATM   13  C   UNL     1     -11.155  13.668  64.927  1.00  0.00    -0.351 C  
HETATM   14  O   UNL     1     -11.034  13.285  63.774  1.00  0.00    -0.296 OA 
ENDBRANCH   6   8
ENDBRANCH   3   6
TORSDOF 2
ENDMDL
MODEL      146
REMARK 921   NORMALIZED FREE ENERGY PREDICTED BY IDOCK:   -2.76 KCAL/MOL
REMARK 922        TOTAL FREE ENERGY PREDICTED BY IDOCK:   -3.41 KCAL/MOL
REMARK 923 INTER-LIGAND FREE ENERGY PREDICTED BY IDOCK:   -3.22 KCAL/MOL
REMARK 924 INTRA-LIGAND FREE ENERGY PREDICTED BY IDOCK:   -0.19 KCAL/MOL
REMARK 927      BINDING AFFINITY PREDICTED BY RF-SCORE:    0.00 PKD
ROOT
HETATM    1  N   UNL     1     -10.884   9.966  67.305  1.00  0.00    -0.246 N  
HETATM    2  H1  UNL     1     -11.387  10.194  68.163  1.00  0.00     0.000 HD 
HETATM    3  C   UNL     1     -10.772  10.851  66.285  1.00  0.00    -0.176 C  
HETATM    4  H2  UNL     1     -10.454   9.046  67.213  1.00  0.00     0.000 HD 
HETATM    5  O   UNL     1     -10.170  10.579  65.258  1.00  0.00    -0.298 OA 
ENDROOT
BRANCH   3   6
HETATM    6  N   UNL     1     -11.421  12.021  66.533  1.00  0.00    -0.357 N  
HETATM    7  H   UNL     1     -12.187  12.332  65.936  1.00  0.00     0.000 HD 
BRANCH   6   8
HETATM    8  C   UNL     1     -11.000  12.802  67.655  1.00  0.00    -0.244 C  
HETATM    9  N   UNL     1     -11.165  14.201  67.411  1.00  0.00    -0.306 NA 
HETATM   10  C   UNL     1     -11.719  14.839  68.494  1.00  0.00    -0.317 C  
HETATM   11  O   UNL     1     -11.807  16.047  68.622  1.00  0.00    -0.367 OA 
HETATM   12  N   UNL     1     -12.151  13.909  69.377  1.00  0.00    -0.339 NA 
HETATM   13  C   UNL     1     -11.872  12.655  68.923  1.00  0.00    -0.302 C  
HETATM   14  O   UNL     1     -12.257  11.621  69.447  1.00  0.00    -0.271 OA 
ENDBRANCH   6   8
ENDBRANCH   3   6
TORSDOF 2
ENDMDL
MODEL      147
REMARK 921   NORMALIZED FREE ENERGY PREDICTED BY IDOCK:   -2.74 KCAL/MOL
REMARK 922        TOTAL FREE ENERGY PREDICTED BY IDOCK:   -3.39 KCAL/MOL
REMARK 923 INTER-LIGAND FREE ENERGY PREDICTED BY IDOCK:   -3.14 KCAL/MOL
REMARK 924 INTRA-LIGAND FREE ENERGY PREDICTED BY IDOCK:   -0.25 KCAL/MOL
REMARK 927      BINDING AFFINITY PREDICTED BY RF-SCORE:    0.00 PKD
ROOT
HETATM    1  N   UNL     1      -9.389  13.015  66.023  1.00  0.00    -0.462 N  
HETATM    2  H1  UNL     1      -8.982  13.024  66.958  1.00  0.00     0.000 HD 
HETATM    3  C   UNL     1     -10.175  14.024  65.575  1.00  0.00    -0.343 C  
HETATM    4  H2  UNL     1      -9.200  12.223  65.409  1.00  0.00     0.000 HD 
HETATM    5  O   UNL     1     -10.662  14.013  64.456  1.00  0.00    -0.409 OA 
ENDROOT
BRANCH   3   6
HETATM    6  N   UNL     1     -10.367  14.992  66.511  1.00  0.00    -0.276 N  
HETATM    7  H   UNL     1     -11.283  15.136  66.937  1.00  0.00     0.000 HD 
BRANCH   6   8
HETATM    8  C   UNL     1      -9.250  15.804  66.883  1.00  0.00    -0.229 C  
HETATM    9  N   UNL     1      -9.634  17.167  67.078  1.00  0.00    -0.252 NA 
HETATM   10  C   UNL     1      -9.068  17.692  68.214  1.00  0.00    -0.276 C  
HETATM   11  O   UNL     1      -9.087  18.870  68.522  1.00  0.00    -0.330 OA 
HETATM   12  N   UNL     1      -8.503  16.689  68.926  1.00  0.00    -0.249 NA 
HETATM   13  C   UNL     1      -8.651  15.501  68.276  1.00  0.00    -0.161 C  
HETATM   14  O   UNL     1      -8.355  14.410  68.738  1.00  0.00    -0.157 OA 
ENDBRANCH   6   8
ENDBRANCH   3   6
TORSDOF 2
ENDMDL
MODEL      148
REMARK 921   NORMALIZED FREE ENERGY PREDICTED BY IDOCK:   -2.74 KCAL/MOL
REMARK 922        TOTAL FREE ENERGY PREDICTED BY IDOCK:   -3.39 KCAL/MOL
REMARK 923 INTER-LIGAND FREE ENERGY PREDICTED BY IDOCK:   -3.19 KCAL/MOL
REMARK 924 INTRA-LIGAND FREE ENERGY PREDICTED BY IDOCK:   -0.20 KCAL/MOL
REMARK 927      BINDING AFFINITY PREDICTED BY RF-SCORE:    0.00 PKD
ROOT
HETATM    1  N   UNL     1     -11.156   5.539  66.105  1.00  0.00    -0.778 N  
HETATM    2  H1  UNL     1     -11.528   6.480  66.236  1.00  0.00     0.000 HD 
HETATM    3  C   UNL     1     -10.223   5.016  66.938  1.00  0.00    -0.229 C  
HETATM    4  H2  UNL     1     -11.496   4.977  65.325  1.00  0.00     0.000 HD 
HETATM    5  O   UNL     1      -9.778   3.890  66.781  1.00  0.00    -0.214 OA 
ENDROOT
BRANCH   3   6
HETATM    6  N   UNL     1      -9.841   5.888  67.909  1.00  0.00    -0.119 N  
HETATM    7  H   UNL     1      -8.862   5.971  68.184  1.00  0.00     0.000 HD 
BRANCH   6   8
HETATM    8  C   UNL     1     -10.849   6.687  68.535  1.00  0.00    -0.258 C  
HETATM    9  N   UNL     1     -11.519   5.968  69.571  1.00  0.00    -0.275 NA 
HETATM   10  C   UNL     1     -11.679   6.738  70.698  1.00  0.00    -0.386 C  
HETATM   11  O   UNL     1     -12.364   6.436  71.658  1.00  0.00    -0.312 OA 
HETATM   12  N   UNL     1     -10.948   7.869  70.562  1.00  0.00    -0.246 NA 
HETATM   13  C   UNL     1     -10.322   7.890  69.352  1.00  0.00    -0.220 C  
HETATM   14  O   UNL     1      -9.497   8.722  69.007  1.00  0.00    -0.157 OA 
ENDBRANCH   6   8
ENDBRANCH   3   6
TORSDOF 2
ENDMDL
MODEL      149
REMARK 921   NORMALIZED FREE ENERGY PREDICTED BY IDOCK:   -2.72 KCAL/MOL
REMARK 922        TOTAL FREE ENERGY PREDICTED BY IDOCK:   -3.36 KCAL/MOL
REMARK 923 INTER-LIGAND FREE ENERGY PREDICTED BY IDOCK:   -3.19 KCAL/MOL
REMARK 924 INTRA-LIGAND FREE ENERGY PREDICTED BY IDOCK:   -0.18 KCAL/MOL
REMARK 927      BINDING AFFINITY PREDICTED BY RF-SCORE:    0.00 PKD
ROOT
HETATM    1  N   UNL     1     -11.920  10.635  69.858  1.00  0.00    -0.352 N  
HETATM    2  H1  UNL     1     -12.237  10.760  70.820  1.00  0.00     0.000 HD 
HETATM    3  C   UNL     1     -12.004  11.631  68.943  1.00  0.00    -0.292 C  
HETATM    4  H2  UNL     1     -11.531   9.735  69.578  1.00  0.00     0.000 HD 
HETATM    5  O   UNL     1     -11.625  11.482  67.792  1.00  0.00    -0.421 OA 
ENDROOT
BRANCH   3   6
HETATM    6  N   UNL     1     -12.573  12.759  69.447  1.00  0.00     0.314 N  
HETATM    7  H   UNL     1     -13.253  13.292  68.904  1.00  0.00     0.000 HD 
BRANCH   6   8
HETATM    8  C   UNL     1     -12.194  13.178  70.761  1.00  0.00    -0.290 C  
HETATM    9  N   UNL     1     -12.147  14.602  70.864  1.00  0.00    -0.307 NA 
HETATM   10  C   UNL     1     -12.740  15.044  72.022  1.00  0.00    -0.333 C  
HETATM   11  O   UNL     1     -12.687  16.186  72.441  1.00  0.00    -0.442 OA 
HETATM   12  N   UNL     1     -13.391  14.009  72.602  1.00  0.00    -0.527 NA 
HETATM   13  C   UNL     1     -13.224  12.871  71.872  1.00  0.00    -0.423 C  
HETATM   14  O   UNL     1     -13.799  11.814  72.084  1.00  0.00    -0.114 OA 
ENDBRANCH   6   8
ENDBRANCH   3   6
TORSDOF 2
ENDMDL
MODEL      150
REMARK 921   NORMALIZED FREE ENERGY PREDICTED BY IDOCK:   -2.68 KCAL/MOL
REMARK 922        TOTAL FREE ENERGY PREDICTED BY IDOCK:   -3.33 KCAL/MOL
REMARK 923 INTER-LIGAND FREE ENERGY PREDICTED BY IDOCK:   -3.18 KCAL/MOL
REMARK 924 INTRA-LIGAND FREE ENERGY PREDICTED BY IDOCK:   -0.14 KCAL/MOL
REMARK 927      BINDING AFFINITY PREDICTED BY RF-SCORE:    0.00 PKD
ROOT
HETATM    1  N   UNL     1     -11.917  10.428  69.818  1.00  0.00    -0.450 N  
HETATM    2  H1  UNL     1     -11.703  10.667  70.786  1.00  0.00     0.000 HD 
HETATM    3  C   UNL     1     -11.699  11.298  68.801  1.00  0.00    -0.338 C  
HETATM    4  H2  UNL     1     -12.308   9.509  69.609  1.00  0.00     0.000 HD 
HETATM    5  O   UNL     1     -11.956  11.012  67.642  1.00  0.00    -0.583 OA 
ENDROOT
BRANCH   3   6
HETATM    6  N   UNL     1     -11.209  12.492  69.230  1.00  0.00    -0.388 N  
HETATM    7  H   UNL     1     -11.291  12.772  70.207  1.00  0.00     0.000 HD 
BRANCH   6   8
HETATM    8  C   UNL     1     -10.576  13.346  68.272  1.00  0.00    -0.254 C  
HETATM    9  N   UNL     1     -10.619  14.714  68.681  1.00  0.00    -0.244 NA 
HETATM   10  C   UNL     1      -9.410  15.336  68.489  1.00  0.00    -0.200 C  
HETATM   11  O   UNL     1      -9.218  16.534  68.587  1.00  0.00    -0.221 OA 
HETATM   12  N   UNL     1      -8.480  14.401  68.184  1.00  0.00    -0.152 NA 
HETATM   13  C   UNL     1      -9.047  13.162  68.138  1.00  0.00    -0.200 C  
HETATM   14  O   UNL     1      -8.429  12.116  68.013  1.00  0.00    -0.153 OA 
ENDBRANCH   6   8
ENDBRANCH   3   6
TORSDOF 2
ENDMDL
MODEL      151
REMARK 921   NORMALIZED FREE ENERGY PREDICTED BY IDOCK:   -2.68 KCAL/MOL
REMARK 922        TOTAL FREE ENERGY PREDICTED BY IDOCK:   -3.32 KCAL/MOL
REMARK 923 INTER-LIGAND FREE ENERGY PREDICTED BY IDOCK:   -2.98 KCAL/MOL
REMARK 924 INTRA-LIGAND FREE ENERGY PREDICTED BY IDOCK:   -0.33 KCAL/MOL
REMARK 927      BINDING AFFINITY PREDICTED BY RF-SCORE:    0.00 PKD
ROOT
HETATM    1  N   UNL     1      -7.028  16.655  69.018  1.00  0.00    -0.201 N  
HETATM    2  H1  UNL     1      -7.911  16.906  69.462  1.00  0.00     0.000 HD 
HETATM    3  C   UNL     1      -6.830  16.801  67.685  1.00  0.00    -0.137 C  
HETATM    4  H2  UNL     1      -6.273  16.283  69.594  1.00  0.00     0.000 HD 
HETATM    5  O   UNL     1      -5.773  16.500  67.154  1.00  0.00    -0.148 OA 
ENDROOT
BRANCH   3   6
HETATM    6  N   UNL     1      -7.931  17.275  67.042  1.00  0.00    -0.203 N  
HETATM    7  H   UNL     1      -8.198  18.257  67.113  1.00  0.00     0.000 HD 
BRANCH   6   8
HETATM    8  C   UNL     1      -8.704  16.358  66.262  1.00  0.00    -0.334 C  
HETATM    9  N   UNL     1      -8.910  15.125  66.954  1.00  0.00    -0.239 NA 
HETATM   10  C   UNL     1     -10.212  14.699  66.848  1.00  0.00    -0.262 C  
HETATM   11  O   UNL     1     -10.617  13.603  67.191  1.00  0.00    -0.269 OA 
HETATM   12  N   UNL     1     -10.956  15.693  66.312  1.00  0.00    -0.257 NA 
HETATM   13  C   UNL     1     -10.175  16.773  66.027  1.00  0.00    -0.346 C  
HETATM   14  O   UNL     1     -10.594  17.859  65.656  1.00  0.00    -0.587 OA 
ENDBRANCH   6   8
ENDBRANCH   3   6
TORSDOF 2
ENDMDL
MODEL      152
REMARK 921   NORMALIZED FREE ENERGY PREDICTED BY IDOCK:   -2.67 KCAL/MOL
REMARK 922        TOTAL FREE ENERGY PREDICTED BY IDOCK:   -3.31 KCAL/MOL
REMARK 923 INTER-LIGAND FREE ENERGY PREDICTED BY IDOCK:   -2.96 KCAL/MOL
REMARK 924 INTRA-LIGAND FREE ENERGY PREDICTED BY IDOCK:   -0.35 KCAL/MOL
REMARK 927      BINDING AFFINITY PREDICTED BY RF-SCORE:    0.00 PKD
ROOT
HETATM    1  N   UNL     1      -7.578  16.474  69.061  1.00  0.00    -0.232 N  
HETATM    2  H1  UNL     1      -7.536  17.437  69.395  1.00  0.00     0.000 HD 
HETATM    3  C   UNL     1      -7.267  16.146  67.783  1.00  0.00    -0.138 C  
HETATM    4  H2  UNL     1      -7.861  15.737  69.707  1.00  0.00     0.000 HD 
HETATM    5  O   UNL     1      -7.317  14.994  67.383  1.00  0.00    -0.189 OA 
ENDROOT
BRANCH   3   6
HETATM    6  N   UNL     1      -6.940  17.231  67.029  1.00  0.00    -0.172 N  
HETATM    7  H   UNL     1      -5.982  17.583  67.004  1.00  0.00     0.000 HD 
BRANCH   6   8
HETATM    8  C   UNL     1      -7.975  17.865  66.273  1.00  0.00    -0.244 C  
HETATM    9  N   UNL     1      -9.227  17.822  66.959  1.00  0.00    -0.249 NA 
HETATM   10  C   UNL     1      -9.875  19.032  66.903  1.00  0.00    -0.331 C  
HETATM   11  O   UNL     1     -11.026  19.224  67.251  1.00  0.00    -0.483 OA 
HETATM   12  N   UNL     1      -9.024  19.961  66.409  1.00  0.00    -0.366 NA 
HETATM   13  C   UNL     1      -7.823  19.394  66.104  1.00  0.00    -0.307 C  
HETATM   14  O   UNL     1      -6.826  20.012  65.763  1.00  0.00    -0.249 OA 
ENDBRANCH   6   8
ENDBRANCH   3   6
TORSDOF 2
ENDMDL
MODEL      153
REMARK 921   NORMALIZED FREE ENERGY PREDICTED BY IDOCK:   -2.66 KCAL/MOL
REMARK 922        TOTAL FREE ENERGY PREDICTED BY IDOCK:   -3.30 KCAL/MOL
REMARK 923 INTER-LIGAND FREE ENERGY PREDICTED BY IDOCK:   -3.01 KCAL/MOL
REMARK 924 INTRA-LIGAND FREE ENERGY PREDICTED BY IDOCK:   -0.30 KCAL/MOL
REMARK 927      BINDING AFFINITY PREDICTED BY RF-SCORE:    0.00 PKD
ROOT
HETATM    1  N   UNL     1      -8.967   8.602  68.701  1.00  0.00    -0.142 N  
HETATM    2  H1  UNL     1      -8.794   9.179  69.525  1.00  0.00     0.000 HD 
HETATM    3  C   UNL     1     -10.192   8.087  68.434  1.00  0.00    -0.207 C  
HETATM    4  H2  UNL     1      -8.197   8.409  68.062  1.00  0.00     0.000 HD 
HETATM    5  O   UNL     1     -10.399   7.397  67.448  1.00  0.00    -0.215 OA 
ENDROOT
BRANCH   3   6
HETATM    6  N   UNL     1     -11.111   8.399  69.387  1.00  0.00    -0.438 N  
HETATM    7  H   UNL     1     -11.725   9.205  69.279  1.00  0.00     0.000 HD 
BRANCH   6   8
HETATM    8  C   UNL     1     -11.191   7.564  70.546  1.00  0.00    -0.269 C  
HETATM    9  N   UNL     1     -10.037   7.707  71.376  1.00  0.00    -0.182 NA 
HETATM   10  C   UNL     1     -10.380   7.808  72.703  1.00  0.00    -0.292 C  
HETATM   11  O   UNL     1      -9.593   7.763  73.631  1.00  0.00    -0.286 OA 
HETATM   12  N   UNL     1     -11.719   7.971  72.798  1.00  0.00    -0.368 NA 
HETATM   13  C   UNL     1     -12.291   7.953  71.561  1.00  0.00    -0.315 C  
HETATM   14  O   UNL     1     -13.464   8.204  71.330  1.00  0.00    -0.292 OA 
ENDBRANCH   6   8
ENDBRANCH   3   6
TORSDOF 2
ENDMDL
MODEL      154
REMARK 921   NORMALIZED FREE ENERGY PREDICTED BY IDOCK:   -2.65 KCAL/MOL
REMARK 922        TOTAL FREE ENERGY PREDICTED BY IDOCK:   -3.29 KCAL/MOL
REMARK 923 INTER-LIGAND FREE ENERGY PREDICTED BY IDOCK:   -2.96 KCAL/MOL
REMARK 924 INTRA-LIGAND FREE ENERGY PREDICTED BY IDOCK:   -0.33 KCAL/MOL
REMARK 927      BINDING AFFINITY PREDICTED BY RF-SCORE:    0.00 PKD
ROOT
HETATM    1  N   UNL     1      -6.954  16.538  68.272  1.00  0.00    -0.139 N  
HETATM    2  H1  UNL     1      -5.936  16.508  68.337  1.00  0.00     0.000 HD 
HETATM    3  C   UNL     1      -7.673  17.569  68.780  1.00  0.00    -0.252 C  
HETATM    4  H2  UNL     1      -7.444  15.771  67.813  1.00  0.00     0.000 HD 
HETATM    5  O   UNL     1      -8.891  17.606  68.703  1.00  0.00    -0.287 OA 
ENDROOT
BRANCH   3   6
HETATM    6  N   UNL     1      -6.892  18.500  69.392  1.00  0.00    -0.211 N  
HETATM    7  H   UNL     1      -7.007  18.713  70.382  1.00  0.00     0.000 HD 
BRANCH   6   8
HETATM    8  C   UNL     1      -5.903  19.173  68.607  1.00  0.00    -0.214 C  
HETATM    9  N   UNL     1      -6.321  19.319  67.249  1.00  0.00    -0.188 NA 
HETATM   10  C   UNL     1      -6.060  20.581  66.773  1.00  0.00    -0.192 C  
HETATM   11  O   UNL     1      -6.154  20.921  65.608  1.00  0.00    -0.231 OA 
HETATM   12  N   UNL     1      -5.693  21.371  67.809  1.00  0.00    -0.334 NA 
HETATM   13  C   UNL     1      -5.674  20.658  68.970  1.00  0.00    -0.358 C  
HETATM   14  O   UNL     1      -5.505  21.137  70.081  1.00  0.00    -0.553 OA 
ENDBRANCH   6   8
ENDBRANCH   3   6
TORSDOF 2
ENDMDL
MODEL      155
REMARK 921   NORMALIZED FREE ENERGY PREDICTED BY IDOCK:   -2.64 KCAL/MOL
REMARK 922        TOTAL FREE ENERGY PREDICTED BY IDOCK:   -3.28 KCAL/MOL
REMARK 923 INTER-LIGAND FREE ENERGY PREDICTED BY IDOCK:   -3.01 KCAL/MOL
REMARK 924 INTRA-LIGAND FREE ENERGY PREDICTED BY IDOCK:   -0.27 KCAL/MOL
REMARK 927      BINDING AFFINITY PREDICTED BY RF-SCORE:    0.00 PKD
ROOT
HETATM    1  N   UNL     1     -11.650   8.671  71.795  1.00  0.00    -0.308 N  
HETATM    2  H1  UNL     1     -12.446   8.610  71.159  1.00  0.00     0.000 HD 
HETATM    3  C   UNL     1     -10.441   9.125  71.386  1.00  0.00    -0.344 C  
HETATM    4  H2  UNL     1     -11.769   8.380  72.766  1.00  0.00     0.000 HD 
HETATM    5  O   UNL     1      -9.488   9.197  72.147  1.00  0.00    -0.291 OA 
ENDROOT
BRANCH   3   6
HETATM    6  N   UNL     1     -10.421   9.443  70.064  1.00  0.00    -0.218 N  
HETATM    7  H   UNL     1      -9.667   9.118  69.457  1.00  0.00     0.000 HD 
BRANCH   6   8
HETATM    8  C   UNL     1     -11.485  10.245  69.546  1.00  0.00    -0.210 C  
HETATM    9  N   UNL     1     -11.921  11.217  70.499  1.00  0.00    -0.361 NA 
HETATM   10  C   UNL     1     -12.100  12.448  69.917  1.00  0.00    -0.247 C  
HETATM   11  O   UNL     1     -12.628  13.404  70.456  1.00  0.00    -0.286 OA 
HETATM   12  N   UNL     1     -11.590  12.420  68.664  1.00  0.00    -0.296 NA 
HETATM   13  C   UNL     1     -11.095  11.182  68.379  1.00  0.00    -0.247 C  
HETATM   14  O   UNL     1     -10.462  10.898  67.375  1.00  0.00    -0.200 OA 
ENDBRANCH   6   8
ENDBRANCH   3   6
TORSDOF 2
ENDMDL
MODEL      156
REMARK 921   NORMALIZED FREE ENERGY PREDICTED BY IDOCK:   -2.64 KCAL/MOL
REMARK 922        TOTAL FREE ENERGY PREDICTED BY IDOCK:   -3.27 KCAL/MOL
REMARK 923 INTER-LIGAND FREE ENERGY PREDICTED BY IDOCK:   -3.11 KCAL/MOL
REMARK 924 INTRA-LIGAND FREE ENERGY PREDICTED BY IDOCK:   -0.17 KCAL/MOL
REMARK 927      BINDING AFFINITY PREDICTED BY RF-SCORE:    0.00 PKD
ROOT
HETATM    1  N   UNL     1     -11.414   6.863  67.224  1.00  0.00    -0.664 N  
HETATM    2  H1  UNL     1     -11.909   6.122  67.720  1.00  0.00     0.000 HD 
HETATM    3  C   UNL     1     -10.405   7.561  67.801  1.00  0.00    -0.216 C  
HETATM    4  H2  UNL     1     -11.688   7.086  66.267  1.00  0.00     0.000 HD 
HETATM    5  O   UNL     1      -9.814   8.449  67.207  1.00  0.00    -0.170 OA 
ENDROOT
BRANCH   3   6
HETATM    6  N   UNL     1     -10.173   7.179  69.086  1.00  0.00    -0.188 N  
HETATM    7  H   UNL     1      -9.658   6.324  69.294  1.00  0.00     0.000 HD 
BRANCH   6   8
HETATM    8  C   UNL     1     -10.672   8.010  70.138  1.00  0.00    -0.244 C  
HETATM    9  N   UNL     1     -11.046   7.240  71.282  1.00  0.00    -0.244 NA 
HETATM   10  C   UNL     1     -10.599   7.816  72.446  1.00  0.00    -0.278 C  
HETATM   11  O   UNL     1     -10.923   7.466  73.566  1.00  0.00    -0.344 OA 
HETATM   12  N   UNL     1      -9.744   8.818  72.138  1.00  0.00    -0.306 NA 
HETATM   13  C   UNL     1      -9.627   8.948  70.786  1.00  0.00    -0.229 C  
HETATM   14  O   UNL     1      -8.831   9.681  70.221  1.00  0.00    -0.223 OA 
ENDBRANCH   6   8
ENDBRANCH   3   6
TORSDOF 2
ENDMDL
MODEL      157
REMARK 921   NORMALIZED FREE ENERGY PREDICTED BY IDOCK:   -2.63 KCAL/MOL
REMARK 922        TOTAL FREE ENERGY PREDICTED BY IDOCK:   -3.27 KCAL/MOL
REMARK 923 INTER-LIGAND FREE ENERGY PREDICTED BY IDOCK:   -3.16 KCAL/MOL
REMARK 924 INTRA-LIGAND FREE ENERGY PREDICTED BY IDOCK:   -0.11 KCAL/MOL
REMARK 927      BINDING AFFINITY PREDICTED BY RF-SCORE:    0.00 PKD
ROOT
HETATM    1  N   UNL     1      -7.328   7.100  72.229  1.00  0.00    -0.079 N  
HETATM    2  H1  UNL     1      -7.439   6.473  71.432  1.00  0.00     0.000 HD 
HETATM    3  C   UNL     1      -8.305   7.962  72.603  1.00  0.00    -0.147 C  
HETATM    4  H2  UNL     1      -6.457   7.077  72.760  1.00  0.00     0.000 HD 
HETATM    5  O   UNL     1      -8.172   8.713  73.557  1.00  0.00    -0.404 OA 
ENDROOT
BRANCH   3   6
HETATM    6  N   UNL     1      -9.392   7.907  71.787  1.00  0.00    -0.143 N  
HETATM    7  H   UNL     1      -9.302   7.622  70.811  1.00  0.00     0.000 HD 
BRANCH   6   8
HETATM    8  C   UNL     1     -10.666   8.257  72.334  1.00  0.00    -0.341 C  
HETATM    9  N   UNL     1     -11.208   9.418  71.701  1.00  0.00    -0.382 NA 
HETATM   10  C   UNL     1     -12.540   9.257  71.407  1.00  0.00    -0.336 C  
HETATM   11  O   UNL     1     -13.283  10.144  71.028  1.00  0.00    -0.394 OA 
HETATM   12  N   UNL     1     -12.878   7.961  71.601  1.00  0.00    -0.329 NA 
HETATM   13  C   UNL     1     -11.805   7.250  72.048  1.00  0.00    -0.296 C  
HETATM   14  O   UNL     1     -11.779   6.037  72.185  1.00  0.00    -0.311 OA 
ENDBRANCH   6   8
ENDBRANCH   3   6
TORSDOF 2
ENDMDL
MODEL      158
REMARK 921   NORMALIZED FREE ENERGY PREDICTED BY IDOCK:   -2.61 KCAL/MOL
REMARK 922        TOTAL FREE ENERGY PREDICTED BY IDOCK:   -3.25 KCAL/MOL
REMARK 923 INTER-LIGAND FREE ENERGY PREDICTED BY IDOCK:   -2.90 KCAL/MOL
REMARK 924 INTRA-LIGAND FREE ENERGY PREDICTED BY IDOCK:   -0.35 KCAL/MOL
REMARK 927      BINDING AFFINITY PREDICTED BY RF-SCORE:    0.00 PKD
ROOT
HETATM    1  N   UNL     1      -6.313  15.365  68.199  1.00  0.00    -0.113 N  
HETATM    2  H1  UNL     1      -5.623  16.115  68.152  1.00  0.00     0.000 HD 
HETATM    3  C   UNL     1      -7.554  15.564  68.704  1.00  0.00    -0.141 C  
HETATM    4  H2  UNL     1      -6.060  14.438  67.856  1.00  0.00     0.000 HD 
HETATM    5  O   UNL     1      -8.380  14.666  68.761  1.00  0.00    -0.159 OA 
ENDROOT
BRANCH   3   6
HETATM    6  N   UNL     1      -7.738  16.836  69.153  1.00  0.00    -0.212 N  
HETATM    7  H   UNL     1      -7.668  17.056  70.147  1.00  0.00     0.000 HD 
BRANCH   6   8
HETATM    8  C   UNL     1      -8.031  17.855  68.194  1.00  0.00    -0.265 C  
HETATM    9  N   UNL     1      -6.952  18.036  67.275  1.00  0.00    -0.185 NA 
HETATM   10  C   UNL     1      -7.404  18.142  65.982  1.00  0.00    -0.255 C  
HETATM   11  O   UNL     1      -6.720  18.471  65.030  1.00  0.00    -0.515 OA 
HETATM   12  N   UNL     1      -8.716  17.812  65.948  1.00  0.00    -0.511 NA 
HETATM   13  C   UNL     1      -9.165  17.515  67.199  1.00  0.00    -0.243 C  
HETATM   14  O   UNL     1     -10.271  17.062  67.455  1.00  0.00    -0.302 OA 
ENDBRANCH   6   8
ENDBRANCH   3   6
TORSDOF 2
ENDMDL
MODEL      159
REMARK 921   NORMALIZED FREE ENERGY PREDICTED BY IDOCK:   -2.61 KCAL/MOL
REMARK 922        TOTAL FREE ENERGY PREDICTED BY IDOCK:   -3.25 KCAL/MOL
REMARK 923 INTER-LIGAND FREE ENERGY PREDICTED BY IDOCK:   -2.99 KCAL/MOL
REMARK 924 INTRA-LIGAND FREE ENERGY PREDICTED BY IDOCK:   -0.25 KCAL/MOL
REMARK 927      BINDING AFFINITY PREDICTED BY RF-SCORE:    0.00 PKD
ROOT
HETATM    1  N   UNL     1     -12.058  14.400  67.905  1.00  0.00    -0.582 N  
HETATM    2  H1  UNL     1     -11.979  14.250  66.900  1.00  0.00     0.000 HD 
HETATM    3  C   UNL     1     -11.954  13.380  68.792  1.00  0.00    -0.324 C  
HETATM    4  H2  UNL     1     -12.220  15.345  68.253  1.00  0.00     0.000 HD 
HETATM    5  O   UNL     1     -12.049  13.560  69.996  1.00  0.00    -0.321 OA 
ENDROOT
BRANCH   3   6
HETATM    6  N   UNL     1     -11.773  12.176  68.185  1.00  0.00    -0.337 N  
HETATM    7  H   UNL     1     -12.550  11.527  68.063  1.00  0.00     0.000 HD 
BRANCH   6   8
HETATM    8  C   UNL     1     -10.461  11.844  67.722  1.00  0.00    -0.202 C  
HETATM    9  N   UNL     1     -10.231  10.434  67.764  1.00  0.00    -0.183 NA 
HETATM   10  C   UNL     1      -9.620   9.989  66.617  1.00  0.00    -0.186 C  
HETATM   11  O   UNL     1      -9.157   8.873  66.462  1.00  0.00    -0.147 OA 
HETATM   12  N   UNL     1      -9.629  10.984  65.701  1.00  0.00    -0.215 NA 
HETATM   13  C   UNL     1     -10.209  12.104  66.218  1.00  0.00    -0.223 C  
HETATM   14  O   UNL     1     -10.470  13.113  65.582  1.00  0.00    -0.273 OA 
ENDBRANCH   6   8
ENDBRANCH   3   6
TORSDOF 2
ENDMDL
MODEL      160
REMARK 921   NORMALIZED FREE ENERGY PREDICTED BY IDOCK:   -2.61 KCAL/MOL
REMARK 922        TOTAL FREE ENERGY PREDICTED BY IDOCK:   -3.25 KCAL/MOL
REMARK 923 INTER-LIGAND FREE ENERGY PREDICTED BY IDOCK:   -2.87 KCAL/MOL
REMARK 924 INTRA-LIGAND FREE ENERGY PREDICTED BY IDOCK:   -0.37 KCAL/MOL
REMARK 927      BINDING AFFINITY PREDICTED BY RF-SCORE:    0.00 PKD
ROOT
HETATM    1  N   UNL     1     -12.449   8.329  72.722  1.00  0.00    -0.605 N  
HETATM    2  H1  UNL     1     -11.997   9.208  72.975  1.00  0.00     0.000 HD 
HETATM    3  C   UNL     1     -12.479   7.881  71.443  1.00  0.00    -0.309 C  
HETATM    4  H2  UNL     1     -12.893   7.773  73.453  1.00  0.00     0.000 HD 
HETATM    5  O   UNL     1     -13.021   6.830  71.141  1.00  0.00    -0.282 OA 
ENDROOT
BRANCH   3   6
HETATM    6  N   UNL     1     -11.880   8.740  70.574  1.00  0.00    -0.469 N  
HETATM    7  H   UNL     1     -12.412   9.483  70.121  1.00  0.00     0.000 HD 
BRANCH   6   8
HETATM    8  C   UNL     1     -10.484   8.572  70.313  1.00  0.00    -0.220 C  
HETATM    9  N   UNL     1      -9.865   7.736  71.292  1.00  0.00    -0.171 NA 
HETATM   10  C   UNL     1      -9.023   6.818  70.711  1.00  0.00    -0.151 C  
HETATM   11  O   UNL     1      -8.244   6.106  71.317  1.00  0.00    -0.120 OA 
HETATM   12  N   UNL     1      -9.213   6.837  69.371  1.00  0.00    -0.143 NA 
HETATM   13  C   UNL     1     -10.146   7.771  69.035  1.00  0.00    -0.196 C  
HETATM   14  O   UNL     1     -10.611   7.921  67.915  1.00  0.00    -0.208 OA 
ENDBRANCH   6   8
ENDBRANCH   3   6
TORSDOF 2
ENDMDL
MODEL      161
REMARK 921   NORMALIZED FREE ENERGY PREDICTED BY IDOCK:   -2.59 KCAL/MOL
REMARK 922        TOTAL FREE ENERGY PREDICTED BY IDOCK:   -3.22 KCAL/MOL
REMARK 923 INTER-LIGAND FREE ENERGY PREDICTED BY IDOCK:   -2.93 KCAL/MOL
REMARK 924 INTRA-LIGAND FREE ENERGY PREDICTED BY IDOCK:   -0.29 KCAL/MOL
REMARK 927      BINDING AFFINITY PREDICTED BY RF-SCORE:    0.00 PKD
ROOT
HETATM    1  N   UNL     1      -9.584   8.884  67.949  1.00  0.00    -0.145 N  
HETATM    2  H1  UNL     1     -10.597   8.840  68.069  1.00  0.00     0.000 HD 
HETATM    3  C   UNL     1      -8.837   9.856  68.525  1.00  0.00    -0.122 C  
HETATM    4  H2  UNL     1      -9.123   8.176  67.378  1.00  0.00     0.000 HD 
HETATM    5  O   UNL     1      -7.625   9.909  68.381  1.00  0.00    -0.082 OA 
ENDROOT
BRANCH   3   6
HETATM    6  N   UNL     1      -9.588  10.747  69.227  1.00  0.00    -0.385 N  
HETATM    7  H   UNL     1      -9.689  10.666  70.238  1.00  0.00     0.000 HD 
BRANCH   6   8
HETATM    8  C   UNL     1     -10.233  11.801  68.507  1.00  0.00    -0.210 C  
HETATM    9  N   UNL     1      -9.740  11.901  67.170  1.00  0.00    -0.184 NA 
HETATM   10  C   UNL     1     -10.762  12.063  66.266  1.00  0.00    -0.267 C  
HETATM   11  O   UNL     1     -10.616  12.346  65.091  1.00  0.00    -0.276 OA 
HETATM   12  N   UNL     1     -11.941  11.849  66.895  1.00  0.00    -0.591 NA 
HETATM   13  C   UNL     1     -11.735  11.574  68.214  1.00  0.00    -0.301 C  
HETATM   14  O   UNL     1     -12.601  11.216  68.996  1.00  0.00    -0.370 OA 
ENDBRANCH   6   8
ENDBRANCH   3   6
TORSDOF 2
ENDMDL
MODEL      162
REMARK 921   NORMALIZED FREE ENERGY PREDICTED BY IDOCK:   -2.58 KCAL/MOL
REMARK 922        TOTAL FREE ENERGY PREDICTED BY IDOCK:   -3.21 KCAL/MOL
REMARK 923 INTER-LIGAND FREE ENERGY PREDICTED BY IDOCK:   -3.55 KCAL/MOL
REMARK 924 INTRA-LIGAND FREE ENERGY PREDICTED BY IDOCK:    0.34 KCAL/MOL
REMARK 927      BINDING AFFINITY PREDICTED BY RF-SCORE:    0.00 PKD
ROOT
HETATM    1  N   UNL     1      -8.519  10.496  65.307  1.00  0.00    -0.172 N  
HETATM    2  H1  UNL     1      -7.797  10.919  65.891  1.00  0.00     0.000 HD 
HETATM    3  C   UNL     1      -9.450  11.243  64.665  1.00  0.00    -0.188 C  
HETATM    4  H2  UNL     1      -8.540   9.481  65.205  1.00  0.00     0.000 HD 
HETATM    5  O   UNL     1     -10.314  10.736  63.967  1.00  0.00    -0.354 OA 
ENDROOT
BRANCH   3   6
HETATM    6  N   UNL     1      -9.319  12.573  64.920  1.00  0.00    -0.269 N  
HETATM    7  H   UNL     1      -8.511  12.933  65.428  1.00  0.00     0.000 HD 
BRANCH   6   8
HETATM    8  C   UNL     1     -10.347  13.454  64.456  1.00  0.00    -0.373 C  
HETATM    9  N   UNL     1     -11.642  13.005  64.857  1.00  0.00    -0.314 NA 
HETATM   10  C   UNL     1     -12.410  14.040  65.332  1.00  0.00    -0.478 C  
HETATM   11  O   UNL     1     -13.601  13.971  65.575  1.00  0.00    -0.596 OA 
HETATM   12  N   UNL     1     -11.625  15.132  65.488  1.00  0.00    -0.214 NA 
HETATM   13  C   UNL     1     -10.348  14.859  65.100  1.00  0.00    -0.401 C  
HETATM   14  O   UNL     1      -9.397  15.612  65.249  1.00  0.00    -0.194 OA 
ENDBRANCH   6   8
ENDBRANCH   3   6
TORSDOF 2
ENDMDL
MODEL      163
REMARK 921   NORMALIZED FREE ENERGY PREDICTED BY IDOCK:   -2.57 KCAL/MOL
REMARK 922        TOTAL FREE ENERGY PREDICTED BY IDOCK:   -3.20 KCAL/MOL
REMARK 923 INTER-LIGAND FREE ENERGY PREDICTED BY IDOCK:   -3.16 KCAL/MOL
REMARK 924 INTRA-LIGAND FREE ENERGY PREDICTED BY IDOCK:   -0.04 KCAL/MOL
REMARK 927      BINDING AFFINITY PREDICTED BY RF-SCORE:    0.00 PKD
ROOT
HETATM    1  N   UNL     1      -9.026  11.388  62.709  1.00  0.00    -0.523 N  
HETATM    2  H1  UNL     1      -8.036  11.579  62.866  1.00  0.00     0.000 HD 
HETATM    3  C   UNL     1      -9.957  11.606  63.670  1.00  0.00    -0.379 C  
HETATM    4  H2  UNL     1      -9.322  11.023  61.804  1.00  0.00     0.000 HD 
HETATM    5  O   UNL     1     -11.142  11.377  63.482  1.00  0.00    -0.399 OA 
ENDROOT
BRANCH   3   6
HETATM    6  N   UNL     1      -9.414  12.060  64.831  1.00  0.00    -0.440 N  
HETATM    7  H   UNL     1      -9.200  13.049  64.958  1.00  0.00     0.000 HD 
BRANCH   6   8
HETATM    8  C   UNL     1      -9.153  11.113  65.871  1.00  0.00    -0.203 C  
HETATM    9  N   UNL     1     -10.316  10.345  66.184  1.00  0.00    -0.228 NA 
HETATM   10  C   UNL     1     -10.018   9.010  66.318  1.00  0.00    -0.281 C  
HETATM   11  O   UNL     1     -10.780   8.165  66.749  1.00  0.00    -0.278 OA 
HETATM   12  N   UNL     1      -8.753   8.799  65.886  1.00  0.00    -0.159 NA 
HETATM   13  C   UNL     1      -8.182   9.972  65.491  1.00  0.00    -0.146 C  
HETATM   14  O   UNL     1      -7.097  10.069  64.938  1.00  0.00    -0.127 OA 
ENDBRANCH   6   8
ENDBRANCH   3   6
TORSDOF 2
ENDMDL
MODEL      164
REMARK 921   NORMALIZED FREE ENERGY PREDICTED BY IDOCK:   -2.56 KCAL/MOL
REMARK 922        TOTAL FREE ENERGY PREDICTED BY IDOCK:   -3.19 KCAL/MOL
REMARK 923 INTER-LIGAND FREE ENERGY PREDICTED BY IDOCK:   -3.14 KCAL/MOL
REMARK 924 INTRA-LIGAND FREE ENERGY PREDICTED BY IDOCK:   -0.05 KCAL/MOL
REMARK 927      BINDING AFFINITY PREDICTED BY RF-SCORE:    0.00 PKD
ROOT
HETATM    1  N   UNL     1     -10.952  15.790  64.529  1.00  0.00    -0.677 N  
HETATM    2  H1  UNL     1     -10.512  14.990  64.074  1.00  0.00     0.000 HD 
HETATM    3  C   UNL     1     -10.303  16.528  65.462  1.00  0.00    -0.284 C  
HETATM    4  H2  UNL     1     -11.907  16.040  64.275  1.00  0.00     0.000 HD 
HETATM    5  O   UNL     1     -10.830  17.486  66.007  1.00  0.00    -0.175 OA 
ENDROOT
BRANCH   3   6
HETATM    6  N   UNL     1      -9.053  16.060  65.724  1.00  0.00    -0.237 N  
HETATM    7  H   UNL     1      -8.271  16.278  65.107  1.00  0.00     0.000 HD 
BRANCH   6   8
HETATM    8  C   UNL     1      -8.865  15.251  66.889  1.00  0.00    -0.254 C  
HETATM    9  N   UNL     1      -9.305  15.924  68.070  1.00  0.00    -0.200 NA 
HETATM   10  C   UNL     1     -10.037  15.092  68.882  1.00  0.00    -0.234 C  
HETATM   11  O   UNL     1     -10.381  15.354  70.020  1.00  0.00    -0.294 OA 
HETATM   12  N   UNL     1     -10.312  13.952  68.206  1.00  0.00    -0.242 NA 
HETATM   13  C   UNL     1      -9.754  13.988  66.963  1.00  0.00    -0.256 C  
HETATM   14  O   UNL     1      -9.943  13.157  66.088  1.00  0.00    -0.281 OA 
ENDBRANCH   6   8
ENDBRANCH   3   6
TORSDOF 2
ENDMDL
MODEL      165
REMARK 921   NORMALIZED FREE ENERGY PREDICTED BY IDOCK:   -2.52 KCAL/MOL
REMARK 922        TOTAL FREE ENERGY PREDICTED BY IDOCK:   -3.14 KCAL/MOL
REMARK 923 INTER-LIGAND FREE ENERGY PREDICTED BY IDOCK:   -2.85 KCAL/MOL
REMARK 924 INTRA-LIGAND FREE ENERGY PREDICTED BY IDOCK:   -0.29 KCAL/MOL
REMARK 927      BINDING AFFINITY PREDICTED BY RF-SCORE:    0.00 PKD
ROOT
HETATM    1  N   UNL     1      -9.250  11.269  66.501  1.00  0.00    -0.182 N  
HETATM    2  H1  UNL     1      -9.763  11.613  65.689  1.00  0.00     0.000 HD 
HETATM    3  C   UNL     1      -9.523  11.703  67.756  1.00  0.00    -0.178 C  
HETATM    4  H2  UNL     1      -8.511  10.580  66.364  1.00  0.00     0.000 HD 
HETATM    5  O   UNL     1      -8.909  11.292  68.728  1.00  0.00    -0.160 OA 
ENDROOT
BRANCH   3   6
HETATM    6  N   UNL     1     -10.507  12.643  67.782  1.00  0.00    -0.218 N  
HETATM    7  H   UNL     1     -11.474  12.384  67.977  1.00  0.00     0.000 HD 
BRANCH   6   8
HETATM    8  C   UNL     1     -10.147  14.004  67.530  1.00  0.00    -0.237 C  
HETATM    9  N   UNL     1     -10.077  14.277  66.129  1.00  0.00    -0.301 NA 
HETATM   10  C   UNL     1     -10.687  15.467  65.816  1.00  0.00    -0.353 C  
HETATM   11  O   UNL     1     -10.622  16.020  64.733  1.00  0.00    -0.600 OA 
HETATM   12  N   UNL     1     -11.368  15.908  66.899  1.00  0.00     0.014 NA 
HETATM   13  C   UNL     1     -11.206  15.051  67.946  1.00  0.00    -0.323 C  
HETATM   14  O   UNL     1     -11.804  15.125  69.008  1.00  0.00    -0.311 OA 
ENDBRANCH   6   8
ENDBRANCH   3   6
TORSDOF 2
ENDMDL
MODEL      166
REMARK 921   NORMALIZED FREE ENERGY PREDICTED BY IDOCK:   -2.48 KCAL/MOL
REMARK 922        TOTAL FREE ENERGY PREDICTED BY IDOCK:   -3.10 KCAL/MOL
REMARK 923 INTER-LIGAND FREE ENERGY PREDICTED BY IDOCK:   -2.79 KCAL/MOL
REMARK 924 INTRA-LIGAND FREE ENERGY PREDICTED BY IDOCK:   -0.31 KCAL/MOL
REMARK 927      BINDING AFFINITY PREDICTED BY RF-SCORE:    0.00 PKD
ROOT
HETATM    1  N   UNL     1     -11.749  12.179  66.961  1.00  0.00    -0.337 N  
HETATM    2  H1  UNL     1     -11.371  12.373  66.034  1.00  0.00     0.000 HD 
HETATM    3  C   UNL     1     -11.077  12.509  68.091  1.00  0.00    -0.243 C  
HETATM    4  H2  UNL     1     -12.658  11.724  67.040  1.00  0.00     0.000 HD 
HETATM    5  O   UNL     1     -11.529  12.277  69.201  1.00  0.00    -0.258 OA 
ENDROOT
BRANCH   3   6
HETATM    6  N   UNL     1      -9.868  13.078  67.834  1.00  0.00    -0.218 N  
HETATM    7  H   UNL     1      -9.003  12.630  68.137  1.00  0.00     0.000 HD 
BRANCH   6   8
HETATM    8  C   UNL     1      -9.842  14.321  67.127  1.00  0.00    -0.252 C  
HETATM    9  N   UNL     1     -10.806  15.239  67.647  1.00  0.00    -0.287 NA 
HETATM   10  C   UNL     1     -10.277  16.499  67.787  1.00  0.00    -0.278 C  
HETATM   11  O   UNL     1     -10.920  17.501  68.041  1.00  0.00    -0.328 OA 
HETATM   12  N   UNL     1      -8.937  16.435  67.606  1.00  0.00    -0.196 NA 
HETATM   13  C   UNL     1      -8.556  15.158  67.317  1.00  0.00    -0.198 C  
HETATM   14  O   UNL     1      -7.399  14.778  67.230  1.00  0.00    -0.195 OA 
ENDBRANCH   6   8
ENDBRANCH   3   6
TORSDOF 2
ENDMDL
MODEL      167
REMARK 921   NORMALIZED FREE ENERGY PREDICTED BY IDOCK:   -2.46 KCAL/MOL
REMARK 922        TOTAL FREE ENERGY PREDICTED BY IDOCK:   -3.07 KCAL/MOL
REMARK 923 INTER-LIGAND FREE ENERGY PREDICTED BY IDOCK:   -2.66 KCAL/MOL
REMARK 924 INTRA-LIGAND FREE ENERGY PREDICTED BY IDOCK:   -0.42 KCAL/MOL
REMARK 927      BINDING AFFINITY PREDICTED BY RF-SCORE:    0.00 PKD
ROOT
HETATM    1  N   UNL     1      -9.568  12.464  66.774  1.00  0.00    -0.219 N  
HETATM    2  H1  UNL     1      -9.503  11.744  66.054  1.00  0.00     0.000 HD 
HETATM    3  C   UNL     1     -10.517  12.423  67.741  1.00  0.00    -0.218 C  
HETATM    4  H2  UNL     1      -8.901  13.235  66.765  1.00  0.00     0.000 HD 
HETATM    5  O   UNL     1     -10.596  13.285  68.603  1.00  0.00    -0.253 OA 
ENDROOT
BRANCH   3   6
HETATM    6  N   UNL     1     -11.355  11.360  67.608  1.00  0.00    -0.288 N  
HETATM    7  H   UNL     1     -12.132  11.384  66.948  1.00  0.00     0.000 HD 
BRANCH   6   8
HETATM    8  C   UNL     1     -11.117  10.207  68.419  1.00  0.00    -0.218 C  
HETATM    9  N   UNL     1      -9.725  10.036  68.692  1.00  0.00    -0.154 NA 
HETATM   10  C   UNL     1      -9.505   9.727  70.013  1.00  0.00    -0.238 C  
HETATM   11  O   UNL     1      -8.439   9.362  70.475  1.00  0.00    -0.194 OA 
HETATM   12  N   UNL     1     -10.656   9.903  70.702  1.00  0.00    -0.300 NA 
HETATM   13  C   UNL     1     -11.657  10.297  69.865  1.00  0.00    -0.256 C  
HETATM   14  O   UNL     1     -12.768  10.653  70.226  1.00  0.00    -0.319 OA 
ENDBRANCH   6   8
ENDBRANCH   3   6
TORSDOF 2
ENDMDL
MODEL      168
REMARK 921   NORMALIZED FREE ENERGY PREDICTED BY IDOCK:   -2.45 KCAL/MOL
REMARK 922        TOTAL FREE ENERGY PREDICTED BY IDOCK:   -3.06 KCAL/MOL
REMARK 923 INTER-LIGAND FREE ENERGY PREDICTED BY IDOCK:   -2.74 KCAL/MOL
REMARK 924 INTRA-LIGAND FREE ENERGY PREDICTED BY IDOCK:   -0.32 KCAL/MOL
REMARK 927      BINDING AFFINITY PREDICTED BY RF-SCORE:    0.00 PKD
ROOT
HETATM    1  N   UNL     1     -11.039   6.158  66.422  1.00  0.00    -0.704 N  
HETATM    2  H1  UNL     1     -11.038   6.809  65.636  1.00  0.00     0.000 HD 
HETATM    3  C   UNL     1     -10.973   6.587  67.706  1.00  0.00    -0.316 C  
HETATM    4  H2  UNL     1     -11.091   5.157  66.235  1.00  0.00     0.000 HD 
HETATM    5  O   UNL     1     -10.974   5.808  68.646  1.00  0.00    -0.258 OA 
ENDROOT
BRANCH   3   6
HETATM    6  N   UNL     1     -10.876   7.941  67.801  1.00  0.00    -0.493 N  
HETATM    7  H   UNL     1     -11.704   8.517  67.949  1.00  0.00     0.000 HD 
BRANCH   6   8
HETATM    8  C   UNL     1      -9.579   8.533  67.689  1.00  0.00    -0.153 C  
HETATM    9  N   UNL     1      -8.558   7.542  67.567  1.00  0.00    -0.122 NA 
HETATM   10  C   UNL     1      -7.651   7.869  66.589  1.00  0.00    -0.093 C  
HETATM   11  O   UNL     1      -6.595   7.294  66.395  1.00  0.00    -0.050 OA 
HETATM   12  N   UNL     1      -8.129   8.919  65.882  1.00  0.00    -0.106 NA 
HETATM   13  C   UNL     1      -9.329   9.325  66.384  1.00  0.00    -0.192 C  
HETATM   14  O   UNL     1     -10.053  10.165  65.872  1.00  0.00    -0.258 OA 
ENDBRANCH   6   8
ENDBRANCH   3   6
TORSDOF 2
ENDMDL
MODEL      169
REMARK 921   NORMALIZED FREE ENERGY PREDICTED BY IDOCK:   -2.43 KCAL/MOL
REMARK 922        TOTAL FREE ENERGY PREDICTED BY IDOCK:   -3.04 KCAL/MOL
REMARK 923 INTER-LIGAND FREE ENERGY PREDICTED BY IDOCK:   -2.88 KCAL/MOL
REMARK 924 INTRA-LIGAND FREE ENERGY PREDICTED BY IDOCK:   -0.17 KCAL/MOL
REMARK 927      BINDING AFFINITY PREDICTED BY RF-SCORE:    0.00 PKD
ROOT
HETATM    1  N   UNL     1      -6.272  17.262  67.115  1.00  0.00    -0.146 N  
HETATM    2  H1  UNL     1      -6.228  16.407  67.669  1.00  0.00     0.000 HD 
HETATM    3  C   UNL     1      -7.203  18.220  67.348  1.00  0.00    -0.200 C  
HETATM    4  H2  UNL     1      -5.597  17.400  66.363  1.00  0.00     0.000 HD 
HETATM    5  O   UNL     1      -7.256  19.243  66.684  1.00  0.00    -0.207 OA 
ENDROOT
BRANCH   3   6
HETATM    6  N   UNL     1      -8.055  17.886  68.355  1.00  0.00    -0.292 N  
HETATM    7  H   UNL     1      -8.043  18.391  69.241  1.00  0.00     0.000 HD 
BRANCH   6   8
HETATM    8  C   UNL     1      -8.969  16.808  68.137  1.00  0.00    -0.224 C  
HETATM    9  N   UNL     1      -9.212  16.076  69.340  1.00  0.00    -0.239 NA 
HETATM   10  C   UNL     1     -10.549  15.803  69.503  1.00  0.00    -0.272 C  
HETATM   11  O   UNL     1     -11.010  15.051  70.342  1.00  0.00    -0.246 OA 
HETATM   12  N   UNL     1     -11.254  16.509  68.589  1.00  0.00    -0.338 NA 
HETATM   13  C   UNL     1     -10.416  17.231  67.793  1.00  0.00    -0.371 C  
HETATM   14  O   UNL     1     -10.775  18.057  66.968  1.00  0.00    -0.342 OA 
ENDBRANCH   6   8
ENDBRANCH   3   6
TORSDOF 2
ENDMDL
MODEL      170
REMARK 921   NORMALIZED FREE ENERGY PREDICTED BY IDOCK:   -2.41 KCAL/MOL
REMARK 922        TOTAL FREE ENERGY PREDICTED BY IDOCK:   -3.03 KCAL/MOL
REMARK 923 INTER-LIGAND FREE ENERGY PREDICTED BY IDOCK:   -2.88 KCAL/MOL
REMARK 924 INTRA-LIGAND FREE ENERGY PREDICTED BY IDOCK:   -0.15 KCAL/MOL
REMARK 927      BINDING AFFINITY PREDICTED BY RF-SCORE:    0.00 PKD
ROOT
HETATM    1  N   UNL     1     -10.787  16.671  65.016  1.00  0.00    -0.285 N  
HETATM    2  H1  UNL     1     -10.620  15.707  64.730  1.00  0.00     0.000 HD 
HETATM    3  C   UNL     1     -10.281  17.175  66.168  1.00  0.00    -0.334 C  
HETATM    4  H2  UNL     1     -11.352  17.274  64.417  1.00  0.00     0.000 HD 
HETATM    5  O   UNL     1     -10.481  18.330  66.510  1.00  0.00    -0.372 OA 
ENDROOT
BRANCH   3   6
HETATM    6  N   UNL     1      -9.579  16.251  66.879  1.00  0.00    -0.226 N  
HETATM    7  H   UNL     1      -8.852  16.536  67.535  1.00  0.00     0.000 HD 
BRANCH   6   8
HETATM    8  C   UNL     1      -9.888  14.869  66.680  1.00  0.00    -0.260 C  
HETATM    9  N   UNL     1      -8.773  14.032  66.994  1.00  0.00    -0.221 NA 
HETATM   10  C   UNL     1      -9.155  12.940  67.736  1.00  0.00    -0.197 C  
HETATM   11  O   UNL     1      -8.443  11.985  67.989  1.00  0.00    -0.152 OA 
HETATM   12  N   UNL     1     -10.436  13.110  68.137  1.00  0.00    -0.241 NA 
HETATM   13  C   UNL     1     -10.935  14.283  67.656  1.00  0.00    -0.277 C  
HETATM   14  O   UNL     1     -12.018  14.759  67.960  1.00  0.00    -0.316 OA 
ENDBRANCH   6   8
ENDBRANCH   3   6
TORSDOF 2
ENDMDL
MODEL      171
REMARK 921   NORMALIZED FREE ENERGY PREDICTED BY IDOCK:   -2.41 KCAL/MOL
REMARK 922        TOTAL FREE ENERGY PREDICTED BY IDOCK:   -3.03 KCAL/MOL
REMARK 923 INTER-LIGAND FREE ENERGY PREDICTED BY IDOCK:   -2.90 KCAL/MOL
REMARK 924 INTRA-LIGAND FREE ENERGY PREDICTED BY IDOCK:   -0.13 KCAL/MOL
REMARK 927      BINDING AFFINITY PREDICTED BY RF-SCORE:    0.00 PKD
ROOT
HETATM    1  N   UNL     1     -11.121   5.589  66.145  1.00  0.00    -0.778 N  
HETATM    2  H1  UNL     1     -11.026   6.143  65.294  1.00  0.00     0.000 HD 
HETATM    3  C   UNL     1     -10.544   5.965  67.313  1.00  0.00    -0.291 C  
HETATM    4  H2  UNL     1     -11.665   4.726  66.116  1.00  0.00     0.000 HD 
HETATM    5  O   UNL     1     -10.657   5.301  68.331  1.00  0.00    -0.124 OA 
ENDROOT
BRANCH   3   6
HETATM    6  N   UNL     1      -9.824   7.113  67.194  1.00  0.00    -0.167 N  
HETATM    7  H   UNL     1      -8.820   7.124  67.374  1.00  0.00     0.000 HD 
BRANCH   6   8
HETATM    8  C   UNL     1     -10.513   8.306  66.810  1.00  0.00    -0.243 C  
HETATM    9  N   UNL     1     -10.731   9.169  67.928  1.00  0.00    -0.205 NA 
HETATM   10  C   UNL     1     -10.445  10.476  67.619  1.00  0.00    -0.234 C  
HETATM   11  O   UNL     1     -10.706  11.433  68.326  1.00  0.00    -0.184 OA 
HETATM   12  N   UNL     1      -9.824  10.517  66.417  1.00  0.00    -0.202 NA 
HETATM   13  C   UNL     1      -9.713   9.263  65.896  1.00  0.00    -0.285 C  
HETATM   14  O   UNL     1      -9.086   8.979  64.886  1.00  0.00    -0.183 OA 
ENDBRANCH   6   8
ENDBRANCH   3   6
TORSDOF 2
ENDMDL
MODEL      172
REMARK 921   NORMALIZED FREE ENERGY PREDICTED BY IDOCK:   -2.41 KCAL/MOL
REMARK 922        TOTAL FREE ENERGY PREDICTED BY IDOCK:   -3.03 KCAL/MOL
REMARK 923 INTER-LIGAND FREE ENERGY PREDICTED BY IDOCK:   -2.73 KCAL/MOL
REMARK 924 INTRA-LIGAND FREE ENERGY PREDICTED BY IDOCK:   -0.29 KCAL/MOL
REMARK 927      BINDING AFFINITY PREDICTED BY RF-SCORE:    0.00 PKD
ROOT
HETATM    1  N   UNL     1      -8.877  15.715  66.382  1.00  0.00    -0.309 N  
HETATM    2  H1  UNL     1      -8.634  16.349  65.620  1.00  0.00     0.000 HD 
HETATM    3  C   UNL     1      -8.870  16.116  67.677  1.00  0.00    -0.186 C  
HETATM    4  H2  UNL     1      -9.133  14.752  66.162  1.00  0.00     0.000 HD 
HETATM    5  O   UNL     1      -9.161  15.357  68.588  1.00  0.00    -0.182 OA 
ENDROOT
BRANCH   3   6
HETATM    6  N   UNL     1      -8.478  17.411  67.821  1.00  0.00    -0.219 N  
HETATM    7  H   UNL     1      -8.977  18.043  68.448  1.00  0.00     0.000 HD 
BRANCH   6   8
HETATM    8  C   UNL     1      -7.348  17.863  67.070  1.00  0.00    -0.194 C  
HETATM    9  N   UNL     1      -7.746  18.645  65.943  1.00  0.00    -0.490 NA 
HETATM   10  C   UNL     1      -6.973  19.773  65.814  1.00  0.00    -0.295 C  
HETATM   11  O   UNL     1      -6.982  20.518  64.851  1.00  0.00    -0.255 OA 
HETATM   12  N   UNL     1      -6.218  19.916  66.927  1.00  0.00    -0.182 NA 
HETATM   13  C   UNL     1      -6.446  18.889  67.793  1.00  0.00    -0.211 C  
HETATM   14  O   UNL     1      -6.003  18.822  68.930  1.00  0.00    -0.207 OA 
ENDBRANCH   6   8
ENDBRANCH   3   6
TORSDOF 2
ENDMDL
MODEL      173
REMARK 921   NORMALIZED FREE ENERGY PREDICTED BY IDOCK:   -2.41 KCAL/MOL
REMARK 922        TOTAL FREE ENERGY PREDICTED BY IDOCK:   -3.02 KCAL/MOL
REMARK 923 INTER-LIGAND FREE ENERGY PREDICTED BY IDOCK:   -2.87 KCAL/MOL
REMARK 924 INTRA-LIGAND FREE ENERGY PREDICTED BY IDOCK:   -0.15 KCAL/MOL
REMARK 927      BINDING AFFINITY PREDICTED BY RF-SCORE:    0.00 PKD
ROOT
HETATM    1  N   UNL     1      -9.710   9.752  64.267  1.00  0.00    -0.409 N  
HETATM    2  H1  UNL     1     -10.536   9.170  64.124  1.00  0.00     0.000 HD 
HETATM    3  C   UNL     1      -9.380  10.239  65.488  1.00  0.00    -0.199 C  
HETATM    4  H2  UNL     1      -9.116   9.972  63.467  1.00  0.00     0.000 HD 
HETATM    5  O   UNL     1      -8.391  10.935  65.658  1.00  0.00    -0.160 OA 
ENDROOT
BRANCH   3   6
HETATM    6  N   UNL     1     -10.278   9.894  66.449  1.00  0.00    -0.239 N  
HETATM    7  H   UNL     1     -10.884   9.081  66.334  1.00  0.00     0.000 HD 
BRANCH   6   8
HETATM    8  C   UNL     1     -10.349  10.700  67.628  1.00  0.00    -0.209 C  
HETATM    9  N   UNL     1     -11.675  10.735  68.161  1.00  0.00    -0.516 NA 
HETATM   10  C   UNL     1     -11.675  10.576  69.525  1.00  0.00    -0.241 C  
HETATM   11  O   UNL     1     -12.642  10.738  70.246  1.00  0.00    -0.325 OA 
HETATM   12  N   UNL     1     -10.435  10.207  69.923  1.00  0.00    -0.266 NA 
HETATM   13  C   UNL     1      -9.591  10.141  68.854  1.00  0.00    -0.184 C  
HETATM   14  O   UNL     1      -8.448   9.713  68.893  1.00  0.00    -0.117 OA 
ENDBRANCH   6   8
ENDBRANCH   3   6
TORSDOF 2
ENDMDL
MODEL      174
REMARK 921   NORMALIZED FREE ENERGY PREDICTED BY IDOCK:   -2.40 KCAL/MOL
REMARK 922        TOTAL FREE ENERGY PREDICTED BY IDOCK:   -3.02 KCAL/MOL
REMARK 923 INTER-LIGAND FREE ENERGY PREDICTED BY IDOCK:   -2.89 KCAL/MOL
REMARK 924 INTRA-LIGAND FREE ENERGY PREDICTED BY IDOCK:   -0.12 KCAL/MOL
REMARK 927      BINDING AFFINITY PREDICTED BY RF-SCORE:    0.00 PKD
ROOT
HETATM    1  N   UNL     1     -12.078  10.560  69.564  1.00  0.00    -0.515 N  
HETATM    2  H1  UNL     1     -11.953  10.524  70.576  1.00  0.00     0.000 HD 
HETATM    3  C   UNL     1     -11.036  10.769  68.722  1.00  0.00    -0.259 C  
HETATM    4  H2  UNL     1     -13.012  10.435  69.176  1.00  0.00     0.000 HD 
HETATM    5  O   UNL     1     -11.186  10.812  67.511  1.00  0.00    -0.310 OA 
ENDROOT
BRANCH   3   6
HETATM    6  N   UNL     1      -9.859  10.951  69.379  1.00  0.00    -0.428 N  
HETATM    7  H   UNL     1      -9.389  11.856  69.372  1.00  0.00     0.000 HD 
BRANCH   6   8
HETATM    8  C   UNL     1      -9.299   9.839  70.082  1.00  0.00    -0.215 C  
HETATM    9  N   UNL     1     -10.205   9.327  71.062  1.00  0.00    -0.297 NA 
HETATM   10  C   UNL     1     -10.255   7.955  71.035  1.00  0.00    -0.197 C  
HETATM   11  O   UNL     1     -10.807   7.260  71.869  1.00  0.00    -0.222 OA 
HETATM   12  N   UNL     1      -9.602   7.514  69.934  1.00  0.00    -0.161 NA 
HETATM   13  C   UNL     1      -9.088   8.564  69.233  1.00  0.00    -0.153 C  
HETATM   14  O   UNL     1      -8.561   8.479  68.135  1.00  0.00    -0.136 OA 
ENDBRANCH   6   8
ENDBRANCH   3   6
TORSDOF 2
ENDMDL
MODEL      175
REMARK 921   NORMALIZED FREE ENERGY PREDICTED BY IDOCK:   -2.40 KCAL/MOL
REMARK 922        TOTAL FREE ENERGY PREDICTED BY IDOCK:   -3.01 KCAL/MOL
REMARK 923 INTER-LIGAND FREE ENERGY PREDICTED BY IDOCK:   -2.74 KCAL/MOL
REMARK 924 INTRA-LIGAND FREE ENERGY PREDICTED BY IDOCK:   -0.27 KCAL/MOL
REMARK 927      BINDING AFFINITY PREDICTED BY RF-SCORE:    0.00 PKD
ROOT
HETATM    1  N   UNL     1      -9.674   8.033  66.196  1.00  0.00    -0.447 N  
HETATM    2  H1  UNL     1      -9.312   8.984  66.121  1.00  0.00     0.000 HD 
HETATM    3  C   UNL     1     -10.647   7.706  67.081  1.00  0.00    -0.340 C  
HETATM    4  H2  UNL     1      -9.293   7.309  65.587  1.00  0.00     0.000 HD 
HETATM    5  O   UNL     1     -11.081   6.568  67.170  1.00  0.00    -0.390 OA 
ENDROOT
BRANCH   3   6
HETATM    6  N   UNL     1     -11.034   8.761  67.847  1.00  0.00    -0.491 N  
HETATM    7  H   UNL     1     -11.814   9.356  67.565  1.00  0.00     0.000 HD 
BRANCH   6   8
HETATM    8  C   UNL     1     -10.319   9.014  69.059  1.00  0.00    -0.219 C  
HETATM    9  N   UNL     1      -9.380   7.974  69.341  1.00  0.00    -0.155 NA 
HETATM   10  C   UNL     1      -8.168   8.483  69.740  1.00  0.00    -0.121 C  
HETATM   11  O   UNL     1      -7.254   7.826  70.204  1.00  0.00    -0.060 OA 
HETATM   12  N   UNL     1      -8.162   9.819  69.525  1.00  0.00    -0.128 NA 
HETATM   13  C   UNL     1      -9.359  10.226  69.015  1.00  0.00    -0.189 C  
HETATM   14  O   UNL     1      -9.597  11.351  68.605  1.00  0.00    -0.195 OA 
ENDBRANCH   6   8
ENDBRANCH   3   6
TORSDOF 2
ENDMDL
MODEL      176
REMARK 921   NORMALIZED FREE ENERGY PREDICTED BY IDOCK:   -2.39 KCAL/MOL
REMARK 922        TOTAL FREE ENERGY PREDICTED BY IDOCK:   -3.00 KCAL/MOL
REMARK 923 INTER-LIGAND FREE ENERGY PREDICTED BY IDOCK:   -2.85 KCAL/MOL
REMARK 924 INTRA-LIGAND FREE ENERGY PREDICTED BY IDOCK:   -0.15 KCAL/MOL
REMARK 927      BINDING AFFINITY PREDICTED BY RF-SCORE:    0.00 PKD
ROOT
HETATM    1  N   UNL     1      -8.298  10.730  67.167  1.00  0.00    -0.125 N  
HETATM    2  H1  UNL     1      -7.510  10.907  67.791  1.00  0.00     0.000 HD 
HETATM    3  C   UNL     1      -9.528  10.411  67.640  1.00  0.00    -0.148 C  
HETATM    4  H2  UNL     1      -8.155  10.796  66.159  1.00  0.00     0.000 HD 
HETATM    5  O   UNL     1     -10.470  10.200  66.893  1.00  0.00    -0.233 OA 
ENDROOT
BRANCH   3   6
HETATM    6  N   UNL     1      -9.561  10.328  68.997  1.00  0.00    -0.192 N  
HETATM    7  H   UNL     1      -8.819  10.736  69.566  1.00  0.00     0.000 HD 
BRANCH   6   8
HETATM    8  C   UNL     1     -10.664   9.651  69.605  1.00  0.00    -0.240 C  
HETATM    9  N   UNL     1     -10.248   8.872  70.728  1.00  0.00    -0.209 NA 
HETATM   10  C   UNL     1     -11.098   9.030  71.796  1.00  0.00    -0.374 C  
HETATM   11  O   UNL     1     -11.077   8.357  72.810  1.00  0.00    -0.327 OA 
HETATM   12  N   UNL     1     -11.944  10.053  71.533  1.00  0.00    -0.378 NA 
HETATM   13  C   UNL     1     -11.699  10.569  70.296  1.00  0.00    -0.332 C  
HETATM   14  O   UNL     1     -12.220  11.578  69.844  1.00  0.00    -0.290 OA 
ENDBRANCH   6   8
ENDBRANCH   3   6
TORSDOF 2
ENDMDL
MODEL      177
REMARK 921   NORMALIZED FREE ENERGY PREDICTED BY IDOCK:   -2.39 KCAL/MOL
REMARK 922        TOTAL FREE ENERGY PREDICTED BY IDOCK:   -2.99 KCAL/MOL
REMARK 923 INTER-LIGAND FREE ENERGY PREDICTED BY IDOCK:   -2.58 KCAL/MOL
REMARK 924 INTRA-LIGAND FREE ENERGY PREDICTED BY IDOCK:   -0.42 KCAL/MOL
REMARK 927      BINDING AFFINITY PREDICTED BY RF-SCORE:    0.00 PKD
ROOT
HETATM    1  N   UNL     1     -11.022   2.547  63.745  1.00  0.00    -0.467 N  
HETATM    2  H1  UNL     1     -11.657   2.144  64.434  1.00  0.00     0.000 HD 
HETATM    3  C   UNL     1     -10.518   3.798  63.882  1.00  0.00    -0.256 C  
HETATM    4  H2  UNL     1     -10.758   1.992  62.931  1.00  0.00     0.000 HD 
HETATM    5  O   UNL     1      -9.757   4.280  63.057  1.00  0.00    -0.145 OA 
ENDROOT
BRANCH   3   6
HETATM    6  N   UNL     1     -10.981   4.430  64.994  1.00  0.00    -0.802 N  
HETATM    7  H   UNL     1     -11.901   4.871  65.002  1.00  0.00     0.000 HD 
BRANCH   6   8
HETATM    8  C   UNL     1     -10.144   4.458  66.153  1.00  0.00    -0.234 C  
HETATM    9  N   UNL     1      -9.402   3.244  66.294  1.00  0.00    -0.152 NA 
HETATM   10  C   UNL     1      -8.090   3.490  66.617  1.00  0.00    -0.092 C  
HETATM   11  O   UNL     1      -7.286   2.643  66.962  1.00  0.00    -0.059 OA 
HETATM   12  N   UNL     1      -7.845   4.813  66.479  1.00  0.00    -0.099 NA 
HETATM   13  C   UNL     1      -8.977   5.470  66.097  1.00  0.00    -0.145 C  
HETATM   14  O   UNL     1      -9.025   6.647  65.774  1.00  0.00    -0.127 OA 
ENDBRANCH   6   8
ENDBRANCH   3   6
TORSDOF 2
ENDMDL
MODEL      178
REMARK 921   NORMALIZED FREE ENERGY PREDICTED BY IDOCK:   -2.37 KCAL/MOL
REMARK 922        TOTAL FREE ENERGY PREDICTED BY IDOCK:   -2.98 KCAL/MOL
REMARK 923 INTER-LIGAND FREE ENERGY PREDICTED BY IDOCK:   -2.66 KCAL/MOL
REMARK 924 INTRA-LIGAND FREE ENERGY PREDICTED BY IDOCK:   -0.31 KCAL/MOL
REMARK 927      BINDING AFFINITY PREDICTED BY RF-SCORE:    0.00 PKD
ROOT
HETATM    1  N   UNL     1      -9.213  10.967  64.010  1.00  0.00    -0.319 N  
HETATM    2  H1  UNL     1      -9.937  11.660  64.202  1.00  0.00     0.000 HD 
HETATM    3  C   UNL     1      -9.149   9.794  64.685  1.00  0.00    -0.245 C  
HETATM    4  H2  UNL     1      -8.518  11.164  63.290  1.00  0.00     0.000 HD 
HETATM    5  O   UNL     1      -8.283   8.964  64.455  1.00  0.00    -0.149 OA 
ENDROOT
BRANCH   3   6
HETATM    6  N   UNL     1     -10.116   9.683  65.635  1.00  0.00    -0.307 N  
HETATM    7  H   UNL     1     -11.038   9.313  65.405  1.00  0.00     0.000 HD 
BRANCH   6   8
HETATM    8  C   UNL     1      -9.805  10.101  66.967  1.00  0.00    -0.191 C  
HETATM    9  N   UNL     1      -8.604  10.874  67.008  1.00  0.00    -0.134 NA 
HETATM   10  C   UNL     1      -8.746  11.984  67.804  1.00  0.00    -0.161 C  
HETATM   11  O   UNL     1      -7.835  12.715  68.150  1.00  0.00    -0.126 OA 
HETATM   12  N   UNL     1     -10.052  12.129  68.125  1.00  0.00    -0.201 NA 
HETATM   13  C   UNL     1     -10.791  11.120  67.584  1.00  0.00    -0.247 C  
HETATM   14  O   UNL     1     -12.011  11.062  67.600  1.00  0.00    -0.583 OA 
ENDBRANCH   6   8
ENDBRANCH   3   6
TORSDOF 2
ENDMDL
MODEL      179
REMARK 921   NORMALIZED FREE ENERGY PREDICTED BY IDOCK:   -2.36 KCAL/MOL
REMARK 922        TOTAL FREE ENERGY PREDICTED BY IDOCK:   -2.97 KCAL/MOL
REMARK 923 INTER-LIGAND FREE ENERGY PREDICTED BY IDOCK:   -2.65 KCAL/MOL
REMARK 924 INTRA-LIGAND FREE ENERGY PREDICTED BY IDOCK:   -0.31 KCAL/MOL
REMARK 927      BINDING AFFINITY PREDICTED BY RF-SCORE:    0.00 PKD
ROOT
HETATM    1  N   UNL     1     -12.174  14.490  67.821  1.00  0.00    -0.623 N  
HETATM    2  H1  UNL     1     -12.012  14.614  66.822  1.00  0.00     0.000 HD 
HETATM    3  C   UNL     1     -11.847  13.342  68.463  1.00  0.00    -0.349 C  
HETATM    4  H2  UNL     1     -12.594  15.253  68.353  1.00  0.00     0.000 HD 
HETATM    5  O   UNL     1     -12.041  13.194  69.659  1.00  0.00    -0.301 OA 
ENDROOT
BRANCH   3   6
HETATM    6  N   UNL     1     -11.329  12.403  67.625  1.00  0.00    -0.291 N  
HETATM    7  H   UNL     1     -11.896  11.621  67.298  1.00  0.00     0.000 HD 
BRANCH   6   8
HETATM    8  C   UNL     1      -9.966  12.544  67.213  1.00  0.00    -0.211 C  
HETATM    9  N   UNL     1      -9.330  13.640  67.873  1.00  0.00    -0.199 NA 
HETATM   10  C   UNL     1      -8.074  13.302  68.316  1.00  0.00    -0.156 C  
HETATM   11  O   UNL     1      -7.254  14.088  68.753  1.00  0.00    -0.105 OA 
HETATM   12  N   UNL     1      -7.913  11.964  68.194  1.00  0.00    -0.142 NA 
HETATM   13  C   UNL     1      -9.026  11.397  67.649  1.00  0.00    -0.140 C  
HETATM   14  O   UNL     1      -9.215  10.195  67.540  1.00  0.00    -0.137 OA 
ENDBRANCH   6   8
ENDBRANCH   3   6
TORSDOF 2
ENDMDL
MODEL      180
REMARK 921   NORMALIZED FREE ENERGY PREDICTED BY IDOCK:   -2.36 KCAL/MOL
REMARK 922        TOTAL FREE ENERGY PREDICTED BY IDOCK:   -2.96 KCAL/MOL
REMARK 923 INTER-LIGAND FREE ENERGY PREDICTED BY IDOCK:   -2.83 KCAL/MOL
REMARK 924 INTRA-LIGAND FREE ENERGY PREDICTED BY IDOCK:   -0.13 KCAL/MOL
REMARK 927      BINDING AFFINITY PREDICTED BY RF-SCORE:    0.00 PKD
ROOT
HETATM    1  N   UNL     1     -13.505   7.423  70.730  1.00  0.00    -0.485 N  
HETATM    2  H1  UNL     1     -13.974   8.112  70.141  1.00  0.00     0.000 HD 
HETATM    3  C   UNL     1     -12.187   7.520  71.033  1.00  0.00    -0.259 C  
HETATM    4  H2  UNL     1     -14.043   6.641  71.101  1.00  0.00     0.000 HD 
HETATM    5  O   UNL     1     -11.626   6.696  71.738  1.00  0.00    -0.272 OA 
ENDROOT
BRANCH   3   6
HETATM    6  N   UNL     1     -11.592   8.591  70.443  1.00  0.00    -0.460 N  
HETATM    7  H   UNL     1     -12.004   9.522  70.508  1.00  0.00     0.000 HD 
BRANCH   6   8
HETATM    8  C   UNL     1     -10.371   8.378  69.730  1.00  0.00    -0.216 C  
HETATM    9  N   UNL     1     -10.464   8.841  68.381  1.00  0.00    -0.200 NA 
HETATM   10  C   UNL     1      -9.344   9.546  68.011  1.00  0.00    -0.132 C  
HETATM   11  O   UNL     1      -9.087   9.900  66.875  1.00  0.00    -0.140 OA 
HETATM   12  N   UNL     1      -8.593   9.782  69.112  1.00  0.00    -0.142 NA 
HETATM   13  C   UNL     1      -9.170   9.224  70.213  1.00  0.00    -0.237 C  
HETATM   14  O   UNL     1      -8.785   9.384  71.360  1.00  0.00    -0.288 OA 
ENDBRANCH   6   8
ENDBRANCH   3   6
TORSDOF 2
ENDMDL
MODEL      181
REMARK 921   NORMALIZED FREE ENERGY PREDICTED BY IDOCK:   -2.32 KCAL/MOL
REMARK 922        TOTAL FREE ENERGY PREDICTED BY IDOCK:   -2.93 KCAL/MOL
REMARK 923 INTER-LIGAND FREE ENERGY PREDICTED BY IDOCK:   -2.72 KCAL/MOL
REMARK 924 INTRA-LIGAND FREE ENERGY PREDICTED BY IDOCK:   -0.21 KCAL/MOL
REMARK 927      BINDING AFFINITY PREDICTED BY RF-SCORE:    0.00 PKD
ROOT
HETATM    1  N   UNL     1     -10.857  14.475  65.437  1.00  0.00    -0.332 N  
HETATM    2  H1  UNL     1     -10.722  13.885  64.615  1.00  0.00     0.000 HD 
HETATM    3  C   UNL     1     -10.340  14.146  66.646  1.00  0.00    -0.277 C  
HETATM    4  H2  UNL     1     -11.395  15.336  65.345  1.00  0.00     0.000 HD 
HETATM    5  O   UNL     1     -10.501  14.852  67.629  1.00  0.00    -0.245 OA 
ENDROOT
BRANCH   3   6
HETATM    6  N   UNL     1      -9.676  12.959  66.626  1.00  0.00    -0.248 N  
HETATM    7  H   UNL     1      -8.832  12.820  67.182  1.00  0.00     0.000 HD 
BRANCH   6   8
HETATM    8  C   UNL     1     -10.195  11.909  65.806  1.00  0.00    -0.242 C  
HETATM    9  N   UNL     1      -9.217  11.437  64.877  1.00  0.00    -0.123 NA 
HETATM   10  C   UNL     1      -9.199  10.065  64.817  1.00  0.00    -0.249 C  
HETATM   11  O   UNL     1      -8.590   9.411  63.990  1.00  0.00    -0.188 OA 
HETATM   12  N   UNL     1      -9.955   9.572  65.825  1.00  0.00    -0.295 NA 
HETATM   13  C   UNL     1     -10.507  10.588  66.547  1.00  0.00    -0.212 C  
HETATM   14  O   UNL     1     -11.130  10.446  67.588  1.00  0.00    -0.310 OA 
ENDBRANCH   6   8
ENDBRANCH   3   6
TORSDOF 2
ENDMDL
MODEL      182
REMARK 921   NORMALIZED FREE ENERGY PREDICTED BY IDOCK:   -2.32 KCAL/MOL
REMARK 922        TOTAL FREE ENERGY PREDICTED BY IDOCK:   -2.92 KCAL/MOL
REMARK 923 INTER-LIGAND FREE ENERGY PREDICTED BY IDOCK:   -2.80 KCAL/MOL
REMARK 924 INTRA-LIGAND FREE ENERGY PREDICTED BY IDOCK:   -0.12 KCAL/MOL
REMARK 927      BINDING AFFINITY PREDICTED BY RF-SCORE:    0.00 PKD
ROOT
HETATM    1  N   UNL     1     -10.121  12.225  68.914  1.00  0.00    -0.427 N  
HETATM    2  H1  UNL     1      -9.111  12.081  68.946  1.00  0.00     0.000 HD 
HETATM    3  C   UNL     1     -10.983  11.384  69.536  1.00  0.00    -0.166 C  
HETATM    4  H2  UNL     1     -10.491  13.024  68.399  1.00  0.00     0.000 HD 
HETATM    5  O   UNL     1     -12.191  11.556  69.497  1.00  0.00    -0.289 OA 
ENDROOT
BRANCH   3   6
HETATM    6  N   UNL     1     -10.352  10.349  70.152  1.00  0.00    -0.438 N  
HETATM    7  H   UNL     1      -9.570  10.514  70.786  1.00  0.00     0.000 HD 
BRANCH   6   8
HETATM    8  C   UNL     1     -10.814   9.021  69.886  1.00  0.00    -0.218 C  
HETATM    9  N   UNL     1      -9.780   8.207  69.331  1.00  0.00    -0.168 NA 
HETATM   10  C   UNL     1      -9.748   6.964  69.914  1.00  0.00    -0.162 C  
HETATM   11  O   UNL     1      -9.087   6.023  69.515  1.00  0.00    -0.135 OA 
HETATM   12  N   UNL     1     -10.559   6.968  70.997  1.00  0.00    -0.217 NA 
HETATM   13  C   UNL     1     -11.160   8.183  71.139  1.00  0.00    -0.245 C  
HETATM   14  O   UNL     1     -11.843   8.518  72.095  1.00  0.00    -0.333 OA 
ENDBRANCH   6   8
ENDBRANCH   3   6
TORSDOF 2
ENDMDL
MODEL      183
REMARK 921   NORMALIZED FREE ENERGY PREDICTED BY IDOCK:   -2.29 KCAL/MOL
REMARK 922        TOTAL FREE ENERGY PREDICTED BY IDOCK:   -2.89 KCAL/MOL
REMARK 923 INTER-LIGAND FREE ENERGY PREDICTED BY IDOCK:   -2.59 KCAL/MOL
REMARK 924 INTRA-LIGAND FREE ENERGY PREDICTED BY IDOCK:   -0.30 KCAL/MOL
REMARK 927      BINDING AFFINITY PREDICTED BY RF-SCORE:    0.00 PKD
ROOT
HETATM    1  N   UNL     1     -10.534  13.011  67.407  1.00  0.00    -0.233 N  
HETATM    2  H1  UNL     1      -9.925  12.394  67.945  1.00  0.00     0.000 HD 
HETATM    3  C   UNL     1     -11.283  12.556  66.374  1.00  0.00    -0.306 C  
HETATM    4  H2  UNL     1     -10.580  14.000  67.655  1.00  0.00     0.000 HD 
HETATM    5  O   UNL     1     -12.012  13.295  65.731  1.00  0.00    -0.373 OA 
ENDROOT
BRANCH   3   6
HETATM    6  N   UNL     1     -11.096  11.229  66.137  1.00  0.00    -0.204 N  
HETATM    7  H   UNL     1     -11.589  10.757  65.379  1.00  0.00     0.000 HD 
BRANCH   6   8
HETATM    8  C   UNL     1     -10.189  10.514  66.980  1.00  0.00    -0.226 C  
HETATM    9  N   UNL     1     -10.814  10.111  68.200  1.00  0.00    -0.251 NA 
HETATM   10  C   UNL     1     -10.503   8.811  68.520  1.00  0.00    -0.175 C  
HETATM   11  O   UNL     1     -10.757   8.275  69.583  1.00  0.00    -0.230 OA 
HETATM   12  N   UNL     1      -9.885   8.236  67.463  1.00  0.00    -0.165 NA 
HETATM   13  C   UNL     1      -9.745   9.132  66.446  1.00  0.00    -0.262 C  
HETATM   14  O   UNL     1      -9.341   8.860  65.326  1.00  0.00    -0.168 OA 
ENDBRANCH   6   8
ENDBRANCH   3   6
TORSDOF 2
ENDMDL
MODEL      184
REMARK 921   NORMALIZED FREE ENERGY PREDICTED BY IDOCK:   -2.29 KCAL/MOL
REMARK 922        TOTAL FREE ENERGY PREDICTED BY IDOCK:   -2.89 KCAL/MOL
REMARK 923 INTER-LIGAND FREE ENERGY PREDICTED BY IDOCK:   -2.57 KCAL/MOL
REMARK 924 INTRA-LIGAND FREE ENERGY PREDICTED BY IDOCK:   -0.32 KCAL/MOL
REMARK 927      BINDING AFFINITY PREDICTED BY RF-SCORE:    0.00 PKD
ROOT
HETATM    1  N   UNL     1     -11.619  11.804  69.956  1.00  0.00    -0.479 N  
HETATM    2  H1  UNL     1     -11.306  12.586  70.531  1.00  0.00     0.000 HD 
HETATM    3  C   UNL     1     -11.514  11.823  68.604  1.00  0.00    -0.288 C  
HETATM    4  H2  UNL     1     -12.022  10.984  70.410  1.00  0.00     0.000 HD 
HETATM    5  O   UNL     1     -11.888  10.887  67.915  1.00  0.00    -0.590 OA 
ENDROOT
BRANCH   3   6
HETATM    6  N   UNL     1     -10.990  12.989  68.137  1.00  0.00    -0.234 N  
HETATM    7  H   UNL     1     -11.543  13.613  67.549  1.00  0.00     0.000 HD 
BRANCH   6   8
HETATM    8  C   UNL     1      -9.644  13.315  68.492  1.00  0.00    -0.127 C  
HETATM    9  N   UNL     1      -8.816  12.152  68.534  1.00  0.00    -0.128 NA 
HETATM   10  C   UNL     1      -7.607  12.371  67.918  1.00  0.00    -0.130 C  
HETATM   11  O   UNL     1      -6.655  11.613  67.961  1.00  0.00    -0.059 OA 
HETATM   12  N   UNL     1      -7.659  13.551  67.260  1.00  0.00    -0.116 NA 
HETATM   13  C   UNL     1      -8.871  14.147  67.443  1.00  0.00    -0.206 C  
HETATM   14  O   UNL     1      -9.247  15.156  66.867  1.00  0.00    -0.212 OA 
ENDBRANCH   6   8
ENDBRANCH   3   6
TORSDOF 2
ENDMDL
MODEL      185
REMARK 921   NORMALIZED FREE ENERGY PREDICTED BY IDOCK:   -2.28 KCAL/MOL
REMARK 922        TOTAL FREE ENERGY PREDICTED BY IDOCK:   -2.87 KCAL/MOL
REMARK 923 INTER-LIGAND FREE ENERGY PREDICTED BY IDOCK:   -2.88 KCAL/MOL
REMARK 924 INTRA-LIGAND FREE ENERGY PREDICTED BY IDOCK:    0.00 KCAL/MOL
REMARK 927      BINDING AFFINITY PREDICTED BY RF-SCORE:    0.00 PKD
ROOT
HETATM    1  N   UNL     1     -10.952   5.622  66.459  1.00  0.00    -0.695 N  
HETATM    2  H1  UNL     1     -10.859   5.849  65.469  1.00  0.00     0.000 HD 
HETATM    3  C   UNL     1     -11.088   6.584  67.405  1.00  0.00    -0.327 C  
HETATM    4  H2  UNL     1     -10.942   4.643  66.746  1.00  0.00     0.000 HD 
HETATM    5  O   UNL     1     -11.199   6.311  68.590  1.00  0.00    -0.356 OA 
ENDROOT
BRANCH   3   6
HETATM    6  N   UNL     1     -11.052   7.839  66.883  1.00  0.00    -0.347 N  
HETATM    7  H   UNL     1     -11.758   8.151  66.217  1.00  0.00     0.000 HD 
BRANCH   6   8
HETATM    8  C   UNL     1      -9.995   8.711  67.294  1.00  0.00    -0.219 C  
HETATM    9  N   UNL     1     -10.201   9.197  68.621  1.00  0.00    -0.199 NA 
HETATM   10  C   UNL     1      -9.046   9.145  69.363  1.00  0.00    -0.148 C  
HETATM   11  O   UNL     1      -8.898   9.653  70.460  1.00  0.00    -0.225 OA 
HETATM   12  N   UNL     1      -8.119   8.435  68.680  1.00  0.00    -0.120 NA 
HETATM   13  C   UNL     1      -8.617   8.032  67.477  1.00  0.00    -0.126 C  
HETATM   14  O   UNL     1      -8.052   7.271  66.707  1.00  0.00    -0.115 OA 
ENDBRANCH   6   8
ENDBRANCH   3   6
TORSDOF 2
ENDMDL
MODEL      186
REMARK 921   NORMALIZED FREE ENERGY PREDICTED BY IDOCK:   -2.28 KCAL/MOL
REMARK 922        TOTAL FREE ENERGY PREDICTED BY IDOCK:   -2.87 KCAL/MOL
REMARK 923 INTER-LIGAND FREE ENERGY PREDICTED BY IDOCK:   -2.57 KCAL/MOL
REMARK 924 INTRA-LIGAND FREE ENERGY PREDICTED BY IDOCK:   -0.30 KCAL/MOL
REMARK 927      BINDING AFFINITY PREDICTED BY RF-SCORE:    0.00 PKD
ROOT
HETATM    1  N   UNL     1     -11.193   9.106  71.886  1.00  0.00    -0.370 N  
HETATM    2  H1  UNL     1     -12.034   8.854  71.368  1.00  0.00     0.000 HD 
HETATM    3  C   UNL     1      -9.952   8.874  71.393  1.00  0.00    -0.308 C  
HETATM    4  H2  UNL     1     -11.288   9.544  72.802  1.00  0.00     0.000 HD 
HETATM    5  O   UNL     1      -8.945   9.175  72.013  1.00  0.00    -0.337 OA 
ENDROOT
BRANCH   3   6
HETATM    6  N   UNL     1      -9.978   8.256  70.181  1.00  0.00    -0.185 N  
HETATM    7  H   UNL     1      -9.443   7.403  70.016  1.00  0.00     0.000 HD 
BRANCH   6   8
HETATM    8  C   UNL     1     -10.776   8.834  69.145  1.00  0.00    -0.131 C  
HETATM    9  N   UNL     1     -10.831  10.257  69.257  1.00  0.00    -0.224 NA 
HETATM   10  C   UNL     1     -10.661  10.866  68.038  1.00  0.00    -0.220 C  
HETATM   11  O   UNL     1     -10.835  12.052  67.820  1.00  0.00    -0.201 OA 
HETATM   12  N   UNL     1     -10.266   9.938  67.136  1.00  0.00    -0.214 NA 
HETATM   13  C   UNL     1     -10.194   8.708  67.718  1.00  0.00    -0.225 C  
HETATM   14  O   UNL     1      -9.744   7.707  67.182  1.00  0.00    -0.157 OA 
ENDBRANCH   6   8
ENDBRANCH   3   6
TORSDOF 2
ENDMDL
MODEL      187
REMARK 921   NORMALIZED FREE ENERGY PREDICTED BY IDOCK:   -2.28 KCAL/MOL
REMARK 922        TOTAL FREE ENERGY PREDICTED BY IDOCK:   -2.87 KCAL/MOL
REMARK 923 INTER-LIGAND FREE ENERGY PREDICTED BY IDOCK:   -2.72 KCAL/MOL
REMARK 924 INTRA-LIGAND FREE ENERGY PREDICTED BY IDOCK:   -0.15 KCAL/MOL
REMARK 927      BINDING AFFINITY PREDICTED BY RF-SCORE:    0.00 PKD
ROOT
HETATM    1  N   UNL     1      -9.829   9.823  68.095  1.00  0.00    -0.145 N  
HETATM    2  H1  UNL     1     -10.324   9.757  68.985  1.00  0.00     0.000 HD 
HETATM    3  C   UNL     1      -9.321  10.996  67.645  1.00  0.00    -0.157 C  
HETATM    4  H2  UNL     1      -9.716   8.982  67.529  1.00  0.00     0.000 HD 
HETATM    5  O   UNL     1      -8.729  11.075  66.579  1.00  0.00    -0.157 OA 
ENDROOT
BRANCH   3   6
HETATM    6  N   UNL     1      -9.577  12.034  68.486  1.00  0.00    -0.319 N  
HETATM    7  H   UNL     1      -9.029  12.168  69.336  1.00  0.00     0.000 HD 
BRANCH   6   8
HETATM    8  C   UNL     1     -10.634  12.934  68.145  1.00  0.00    -0.237 C  
HETATM    9  N   UNL     1     -11.226  13.513  69.309  1.00  0.00    -0.254 NA 
HETATM   10  C   UNL     1     -11.427  14.863  69.155  1.00  0.00    -0.302 C  
HETATM   11  O   UNL     1     -12.068  15.564  69.917  1.00  0.00    -0.341 OA 
HETATM   12  N   UNL     1     -10.792  15.275  68.033  1.00  0.00    -0.278 NA 
HETATM   13  C   UNL     1     -10.191  14.222  67.412  1.00  0.00    -0.247 C  
HETATM   14  O   UNL     1      -9.442  14.313  66.451  1.00  0.00    -0.280 OA 
ENDBRANCH   6   8
ENDBRANCH   3   6
TORSDOF 2
ENDMDL
MODEL      188
REMARK 921   NORMALIZED FREE ENERGY PREDICTED BY IDOCK:   -2.27 KCAL/MOL
REMARK 922        TOTAL FREE ENERGY PREDICTED BY IDOCK:   -2.86 KCAL/MOL
REMARK 923 INTER-LIGAND FREE ENERGY PREDICTED BY IDOCK:   -2.72 KCAL/MOL
REMARK 924 INTRA-LIGAND FREE ENERGY PREDICTED BY IDOCK:   -0.14 KCAL/MOL
REMARK 927      BINDING AFFINITY PREDICTED BY RF-SCORE:    0.00 PKD
ROOT
HETATM    1  N   UNL     1     -11.739   7.518  72.889  1.00  0.00    -0.598 N  
HETATM    2  H1  UNL     1     -10.780   7.568  73.234  1.00  0.00     0.000 HD 
HETATM    3  C   UNL     1     -12.020   7.471  71.564  1.00  0.00    -0.307 C  
HETATM    4  H2  UNL     1     -12.506   7.503  73.560  1.00  0.00     0.000 HD 
HETATM    5  O   UNL     1     -13.167   7.411  71.150  1.00  0.00    -0.306 OA 
ENDROOT
BRANCH   3   6
HETATM    6  N   UNL     1     -10.903   7.532  70.789  1.00  0.00    -0.237 N  
HETATM    7  H   UNL     1     -10.092   8.076  71.081  1.00  0.00     0.000 HD 
BRANCH   6   8
HETATM    8  C   UNL     1     -10.898   6.812  69.553  1.00  0.00    -0.273 C  
HETATM    9  N   UNL     1     -10.119   7.481  68.560  1.00  0.00    -0.179 NA 
HETATM   10  C   UNL     1      -9.313   6.604  67.876  1.00  0.00    -0.109 C  
HETATM   11  O   UNL     1      -8.681   6.875  66.871  1.00  0.00    -0.113 OA 
HETATM   12  N   UNL     1      -9.334   5.407  68.507  1.00  0.00    -0.114 NA 
HETATM   13  C   UNL     1     -10.164   5.452  69.587  1.00  0.00    -0.274 C  
HETATM   14  O   UNL     1     -10.281   4.562  70.415  1.00  0.00    -0.210 OA 
ENDBRANCH   6   8
ENDBRANCH   3   6
TORSDOF 2
ENDMDL
MODEL      189
REMARK 921   NORMALIZED FREE ENERGY PREDICTED BY IDOCK:   -2.26 KCAL/MOL
REMARK 922        TOTAL FREE ENERGY PREDICTED BY IDOCK:   -2.86 KCAL/MOL
REMARK 923 INTER-LIGAND FREE ENERGY PREDICTED BY IDOCK:   -2.43 KCAL/MOL
REMARK 924 INTRA-LIGAND FREE ENERGY PREDICTED BY IDOCK:   -0.43 KCAL/MOL
REMARK 927      BINDING AFFINITY PREDICTED BY RF-SCORE:    0.00 PKD
ROOT
HETATM    1  N   UNL     1     -11.143   4.771  65.419  1.00  0.00    -0.926 N  
HETATM    2  H1  UNL     1     -10.661   3.946  65.062  1.00  0.00     0.000 HD 
HETATM    3  C   UNL     1     -10.701   5.440  66.512  1.00  0.00    -0.240 C  
HETATM    4  H2  UNL     1     -11.980   5.102  64.939  1.00  0.00     0.000 HD 
HETATM    5  O   UNL     1     -11.278   6.428  66.939  1.00  0.00    -0.368 OA 
ENDROOT
BRANCH   3   6
HETATM    6  N   UNL     1      -9.599   4.867  67.066  1.00  0.00    -0.147 N  
HETATM    7  H   UNL     1      -9.683   4.078  67.707  1.00  0.00     0.000 HD 
BRANCH   6   8
HETATM    8  C   UNL     1      -8.317   5.402  66.726  1.00  0.00    -0.108 C  
HETATM    9  N   UNL     1      -8.278   5.848  65.369  1.00  0.00    -0.134 NA 
HETATM   10  C   UNL     1      -7.663   7.072  65.258  1.00  0.00    -0.114 C  
HETATM   11  O   UNL     1      -7.343   7.598  64.208  1.00  0.00    -0.080 OA 
HETATM   12  N   UNL     1      -7.485   7.587  66.496  1.00  0.00    -0.083 NA 
HETATM   13  C   UNL     1      -7.942   6.720  67.443  1.00  0.00    -0.114 C  
HETATM   14  O   UNL     1      -8.028   6.970  68.636  1.00  0.00    -0.116 OA 
ENDBRANCH   6   8
ENDBRANCH   3   6
TORSDOF 2
ENDMDL
MODEL      190
REMARK 921   NORMALIZED FREE ENERGY PREDICTED BY IDOCK:   -2.24 KCAL/MOL
REMARK 922        TOTAL FREE ENERGY PREDICTED BY IDOCK:   -2.83 KCAL/MOL
REMARK 923 INTER-LIGAND FREE ENERGY PREDICTED BY IDOCK:   -2.40 KCAL/MOL
REMARK 924 INTRA-LIGAND FREE ENERGY PREDICTED BY IDOCK:   -0.42 KCAL/MOL
REMARK 927      BINDING AFFINITY PREDICTED BY RF-SCORE:    0.00 PKD
ROOT
HETATM    1  N   UNL     1      -8.620   5.083  70.369  1.00  0.00    -0.106 N  
HETATM    2  H1  UNL     1      -8.873   4.284  70.950  1.00  0.00     0.000 HD 
HETATM    3  C   UNL     1      -9.517   6.048  70.050  1.00  0.00    -0.156 C  
HETATM    4  H2  UNL     1      -7.666   5.157  70.018  1.00  0.00     0.000 HD 
HETATM    5  O   UNL     1      -9.215   7.005  69.355  1.00  0.00    -0.148 OA 
ENDROOT
BRANCH   3   6
HETATM    6  N   UNL     1     -10.755   5.801  70.559  1.00  0.00    -0.286 N  
HETATM    7  H   UNL     1     -11.421   5.215  70.056  1.00  0.00     0.000 HD 
BRANCH   6   8
HETATM    8  C   UNL     1     -11.096   6.385  71.819  1.00  0.00    -0.265 C  
HETATM    9  N   UNL     1     -10.006   6.319  72.740  1.00  0.00    -0.171 NA 
HETATM   10  C   UNL     1      -9.839   7.507  73.410  1.00  0.00    -0.310 C  
HETATM   11  O   UNL     1      -9.103   7.671  74.366  1.00  0.00    -0.166 OA 
HETATM   12  N   UNL     1     -10.615   8.450  72.827  1.00  0.00    -0.247 NA 
HETATM   13  C   UNL     1     -11.324   7.914  71.795  1.00  0.00    -0.264 C  
HETATM   14  O   UNL     1     -12.007   8.553  71.010  1.00  0.00    -0.284 OA 
ENDBRANCH   6   8
ENDBRANCH   3   6
TORSDOF 2
ENDMDL
MODEL      191
REMARK 921   NORMALIZED FREE ENERGY PREDICTED BY IDOCK:   -2.23 KCAL/MOL
REMARK 922        TOTAL FREE ENERGY PREDICTED BY IDOCK:   -2.82 KCAL/MOL
REMARK 923 INTER-LIGAND FREE ENERGY PREDICTED BY IDOCK:   -2.52 KCAL/MOL
REMARK 924 INTRA-LIGAND FREE ENERGY PREDICTED BY IDOCK:   -0.30 KCAL/MOL
REMARK 927      BINDING AFFINITY PREDICTED BY RF-SCORE:    0.00 PKD
ROOT
HETATM    1  N   UNL     1     -11.425  10.002  68.141  1.00  0.00    -0.512 N  
HETATM    2  H1  UNL     1     -10.863   9.160  68.013  1.00  0.00     0.000 HD 
HETATM    3  C   UNL     1     -11.078  10.966  69.028  1.00  0.00    -0.246 C  
HETATM    4  H2  UNL     1     -12.272  10.122  67.585  1.00  0.00     0.000 HD 
HETATM    5  O   UNL     1     -11.750  11.974  69.181  1.00  0.00    -0.287 OA 
ENDROOT
BRANCH   3   6
HETATM    6  N   UNL     1      -9.948  10.658  69.721  1.00  0.00    -0.440 N  
HETATM    7  H   UNL     1      -9.859  10.891  70.710  1.00  0.00     0.000 HD 
BRANCH   6   8
HETATM    8  C   UNL     1      -8.888   9.997  69.024  1.00  0.00    -0.159 C  
HETATM    9  N   UNL     1      -8.615  10.624  67.769  1.00  0.00    -0.122 NA 
HETATM   10  C   UNL     1      -7.265  10.769  67.561  1.00  0.00    -0.090 C  
HETATM   11  O   UNL     1      -6.754  11.110  66.510  1.00  0.00    -0.131 OA 
HETATM   12  N   UNL     1      -6.611  10.481  68.710  1.00  0.00    -0.051 NA 
HETATM   13  C   UNL     1      -7.494  10.116  69.682  1.00  0.00    -0.147 C  
HETATM   14  O   UNL     1      -7.204   9.926  70.853  1.00  0.00    -0.330 OA 
ENDBRANCH   6   8
ENDBRANCH   3   6
TORSDOF 2
ENDMDL
MODEL      192
REMARK 921   NORMALIZED FREE ENERGY PREDICTED BY IDOCK:   -2.22 KCAL/MOL
REMARK 922        TOTAL FREE ENERGY PREDICTED BY IDOCK:   -2.81 KCAL/MOL
REMARK 923 INTER-LIGAND FREE ENERGY PREDICTED BY IDOCK:   -2.75 KCAL/MOL
REMARK 924 INTRA-LIGAND FREE ENERGY PREDICTED BY IDOCK:   -0.06 KCAL/MOL
REMARK 927      BINDING AFFINITY PREDICTED BY RF-SCORE:    0.00 PKD
ROOT
HETATM    1  N   UNL     1     -12.490   9.603  70.858  1.00  0.00    -0.439 N  
HETATM    2  H1  UNL     1     -13.089  10.407  71.044  1.00  0.00     0.000 HD 
HETATM    3  C   UNL     1     -11.271   9.738  70.279  1.00  0.00    -0.288 C  
HETATM    4  H2  UNL     1     -12.817   8.671  71.113  1.00  0.00     0.000 HD 
HETATM    5  O   UNL     1     -10.553   8.776  70.056  1.00  0.00    -0.215 OA 
ENDROOT
BRANCH   3   6
HETATM    6  N   UNL     1     -10.982  11.029  69.963  1.00  0.00    -0.467 N  
HETATM    7  H   UNL     1     -11.115  11.778  70.643  1.00  0.00     0.000 HD 
BRANCH   6   8
HETATM    8  C   UNL     1     -10.488  11.309  68.650  1.00  0.00    -0.203 C  
HETATM    9  N   UNL     1     -10.799  12.643  68.246  1.00  0.00    -0.229 NA 
HETATM   10  C   UNL     1      -9.720  13.255  67.655  1.00  0.00    -0.219 C  
HETATM   11  O   UNL     1      -9.758  14.321  67.068  1.00  0.00    -0.239 OA 
HETATM   12  N   UNL     1      -8.623  12.486  67.842  1.00  0.00    -0.169 NA 
HETATM   13  C   UNL     1      -8.947  11.351  68.523  1.00  0.00    -0.158 C  
HETATM   14  O   UNL     1      -8.142  10.535  68.945  1.00  0.00    -0.119 OA 
ENDBRANCH   6   8
ENDBRANCH   3   6
TORSDOF 2
ENDMDL
MODEL      193
REMARK 921   NORMALIZED FREE ENERGY PREDICTED BY IDOCK:   -2.22 KCAL/MOL
REMARK 922        TOTAL FREE ENERGY PREDICTED BY IDOCK:   -2.81 KCAL/MOL
REMARK 923 INTER-LIGAND FREE ENERGY PREDICTED BY IDOCK:   -2.47 KCAL/MOL
REMARK 924 INTRA-LIGAND FREE ENERGY PREDICTED BY IDOCK:   -0.34 KCAL/MOL
REMARK 927      BINDING AFFINITY PREDICTED BY RF-SCORE:    0.00 PKD
ROOT
HETATM    1  N   UNL     1     -11.791  13.117  67.755  1.00  0.00    -0.355 N  
HETATM    2  H1  UNL     1     -11.107  13.284  67.016  1.00  0.00     0.000 HD 
HETATM    3  C   UNL     1     -11.448  12.534  68.929  1.00  0.00    -0.307 C  
HETATM    4  H2  UNL     1     -12.760  13.398  67.605  1.00  0.00     0.000 HD 
HETATM    5  O   UNL     1     -12.266  12.335  69.813  1.00  0.00    -0.232 OA 
ENDROOT
BRANCH   3   6
HETATM    6  N   UNL     1     -10.134  12.184  68.975  1.00  0.00    -0.421 N  
HETATM    7  H   UNL     1      -9.416  12.869  69.212  1.00  0.00     0.000 HD 
BRANCH   6   8
HETATM    8  C   UNL     1      -9.786  10.827  68.683  1.00  0.00    -0.184 C  
HETATM    9  N   UNL     1     -10.358  10.394  67.447  1.00  0.00    -0.214 NA 
HETATM   10  C   UNL     1      -9.449   9.699  66.687  1.00  0.00    -0.170 C  
HETATM   11  O   UNL     1      -9.718   9.074  65.677  1.00  0.00    -0.243 OA 
HETATM   12  N   UNL     1      -8.221   9.835  67.240  1.00  0.00    -0.117 NA 
HETATM   13  C   UNL     1      -8.290  10.584  68.376  1.00  0.00    -0.126 C  
HETATM   14  O   UNL     1      -7.325  10.976  69.013  1.00  0.00    -0.104 OA 
ENDBRANCH   6   8
ENDBRANCH   3   6
TORSDOF 2
ENDMDL
MODEL      194
REMARK 921   NORMALIZED FREE ENERGY PREDICTED BY IDOCK:   -2.19 KCAL/MOL
REMARK 922        TOTAL FREE ENERGY PREDICTED BY IDOCK:   -2.78 KCAL/MOL
REMARK 923 INTER-LIGAND FREE ENERGY PREDICTED BY IDOCK:   -2.63 KCAL/MOL
REMARK 924 INTRA-LIGAND FREE ENERGY PREDICTED BY IDOCK:   -0.15 KCAL/MOL
REMARK 927      BINDING AFFINITY PREDICTED BY RF-SCORE:    0.00 PKD
ROOT
HETATM    1  N   UNL     1     -10.801  14.724  65.567  1.00  0.00    -0.330 N  
HETATM    2  H1  UNL     1     -10.465  13.792  65.324  1.00  0.00     0.000 HD 
HETATM    3  C   UNL     1     -10.826  15.164  66.849  1.00  0.00    -0.317 C  
HETATM    4  H2  UNL     1     -11.127  15.342  64.824  1.00  0.00     0.000 HD 
HETATM    5  O   UNL     1     -11.228  16.279  67.140  1.00  0.00    -0.092 OA 
ENDROOT
BRANCH   3   6
HETATM    6  N   UNL     1     -10.395  14.224  67.733  1.00  0.00    -0.237 N  
HETATM    7  H   UNL     1     -10.440  14.389  68.739  1.00  0.00     0.000 HD 
BRANCH   6   8
HETATM    8  C   UNL     1      -9.877  12.996  67.214  1.00  0.00    -0.227 C  
HETATM    9  N   UNL     1      -8.670  12.614  67.877  1.00  0.00    -0.172 NA 
HETATM   10  C   UNL     1      -8.668  11.277  68.191  1.00  0.00    -0.155 C  
HETATM   11  O   UNL     1      -7.702  10.657  68.599  1.00  0.00    -0.096 OA 
HETATM   12  N   UNL     1      -9.907  10.776  67.981  1.00  0.00    -0.162 NA 
HETATM   13  C   UNL     1     -10.738  11.744  67.503  1.00  0.00    -0.221 C  
HETATM   14  O   UNL     1     -11.942  11.615  67.343  1.00  0.00    -0.621 OA 
ENDBRANCH   6   8
ENDBRANCH   3   6
TORSDOF 2
ENDMDL
MODEL      195
REMARK 921   NORMALIZED FREE ENERGY PREDICTED BY IDOCK:   -2.18 KCAL/MOL
REMARK 922        TOTAL FREE ENERGY PREDICTED BY IDOCK:   -2.77 KCAL/MOL
REMARK 923 INTER-LIGAND FREE ENERGY PREDICTED BY IDOCK:   -2.70 KCAL/MOL
REMARK 924 INTRA-LIGAND FREE ENERGY PREDICTED BY IDOCK:   -0.07 KCAL/MOL
REMARK 927      BINDING AFFINITY PREDICTED BY RF-SCORE:    0.00 PKD
ROOT
HETATM    1  N   UNL     1     -10.378  14.999  68.621  1.00  0.00    -0.230 N  
HETATM    2  H1  UNL     1      -9.864  14.187  68.280  1.00  0.00     0.000 HD 
HETATM    3  C   UNL     1     -10.246  16.221  68.048  1.00  0.00    -0.256 C  
HETATM    4  H2  UNL     1     -11.008  14.889  69.415  1.00  0.00     0.000 HD 
HETATM    5  O   UNL     1     -10.862  17.193  68.456  1.00  0.00    -0.349 OA 
ENDROOT
BRANCH   3   6
HETATM    6  N   UNL     1      -9.350  16.225  67.025  1.00  0.00    -0.217 N  
HETATM    7  H   UNL     1      -9.550  15.740  66.150  1.00  0.00     0.000 HD 
BRANCH   6   8
HETATM    8  C   UNL     1      -8.119  16.930  67.209  1.00  0.00    -0.184 C  
HETATM    9  N   UNL     1      -8.319  18.345  67.207  1.00  0.00    -0.247 NA 
HETATM   10  C   UNL     1      -7.616  18.955  68.218  1.00  0.00    -0.287 C  
HETATM   11  O   UNL     1      -7.470  20.158  68.338  1.00  0.00    -0.264 OA 
HETATM   12  N   UNL     1      -7.130  18.004  69.049  1.00  0.00    -0.262 NA 
HETATM   13  C   UNL     1      -7.467  16.762  68.601  1.00  0.00    -0.219 C  
HETATM   14  O   UNL     1      -7.275  15.723  69.214  1.00  0.00    -0.183 OA 
ENDBRANCH   6   8
ENDBRANCH   3   6
TORSDOF 2
ENDMDL
MODEL      196
REMARK 921   NORMALIZED FREE ENERGY PREDICTED BY IDOCK:   -2.18 KCAL/MOL
REMARK 922        TOTAL FREE ENERGY PREDICTED BY IDOCK:   -2.76 KCAL/MOL
REMARK 923 INTER-LIGAND FREE ENERGY PREDICTED BY IDOCK:   -2.36 KCAL/MOL
REMARK 924 INTRA-LIGAND FREE ENERGY PREDICTED BY IDOCK:   -0.40 KCAL/MOL
REMARK 927      BINDING AFFINITY PREDICTED BY RF-SCORE:    0.00 PKD
ROOT
HETATM    1  N   UNL     1     -10.654   7.028  67.218  1.00  0.00    -0.287 N  
HETATM    2  H1  UNL     1     -11.135   6.163  66.972  1.00  0.00     0.000 HD 
HETATM    3  C   UNL     1     -10.805   7.610  68.433  1.00  0.00     0.044 C  
HETATM    4  H2  UNL     1     -10.043   7.468  66.529  1.00  0.00     0.000 HD 
HETATM    5  O   UNL     1     -10.229   8.646  68.727  1.00  0.00    -0.198 OA 
ENDROOT
BRANCH   3   6
HETATM    6  N   UNL     1     -11.672   6.934  69.233  1.00  0.00    -0.510 N  
HETATM    7  H   UNL     1     -12.680   7.063  69.142  1.00  0.00     0.000 HD 
BRANCH   6   8
HETATM    8  C   UNL     1     -11.132   6.035  70.206  1.00  0.00    -0.345 C  
HETATM    9  N   UNL     1      -9.834   5.573  69.830  1.00  0.00    -0.178 NA 
HETATM   10  C   UNL     1      -8.962   5.599  70.892  1.00  0.00    -0.140 C  
HETATM   11  O   UNL     1      -7.851   5.100  70.894  1.00  0.00    -0.091 OA 
HETATM   12  N   UNL     1      -9.538   6.270  71.915  1.00  0.00    -0.153 NA 
HETATM   13  C   UNL     1     -10.795   6.673  71.574  1.00  0.00    -0.239 C  
HETATM   14  O   UNL     1     -11.500   7.406  72.249  1.00  0.00    -0.265 OA 
ENDBRANCH   6   8
ENDBRANCH   3   6
TORSDOF 2
ENDMDL
MODEL      197
REMARK 921   NORMALIZED FREE ENERGY PREDICTED BY IDOCK:   -2.17 KCAL/MOL
REMARK 922        TOTAL FREE ENERGY PREDICTED BY IDOCK:   -2.76 KCAL/MOL
REMARK 923 INTER-LIGAND FREE ENERGY PREDICTED BY IDOCK:   -2.67 KCAL/MOL
REMARK 924 INTRA-LIGAND FREE ENERGY PREDICTED BY IDOCK:   -0.09 KCAL/MOL
REMARK 927      BINDING AFFINITY PREDICTED BY RF-SCORE:    0.00 PKD
ROOT
HETATM    1  N   UNL     1      -6.857  13.019  69.545  1.00  0.00    -0.325 N  
HETATM    2  H1  UNL     1      -7.695  12.492  69.300  1.00  0.00     0.000 HD 
HETATM    3  C   UNL     1      -6.340  13.966  68.724  1.00  0.00    -0.091 C  
HETATM    4  H2  UNL     1      -6.394  12.828  70.434  1.00  0.00     0.000 HD 
HETATM    5  O   UNL     1      -5.337  14.597  69.018  1.00  0.00    -0.088 OA 
ENDROOT
BRANCH   3   6
HETATM    6  N   UNL     1      -7.040  14.089  67.563  1.00  0.00    -0.213 N  
HETATM    7  H   UNL     1      -6.889  13.442  66.789  1.00  0.00     0.000 HD 
BRANCH   6   8
HETATM    8  C   UNL     1      -7.992  15.150  67.458  1.00  0.00    -0.174 C  
HETATM    9  N   UNL     1      -7.380  16.363  67.014  1.00  0.00    -0.197 NA 
HETATM   10  C   UNL     1      -8.135  16.984  66.049  1.00  0.00    -0.143 C  
HETATM   11  O   UNL     1      -7.937  18.109  65.626  1.00  0.00    -0.502 OA 
HETATM   12  N   UNL     1      -9.115  16.142  65.649  1.00  0.00    -0.366 NA 
HETATM   13  C   UNL     1      -9.054  14.973  66.348  1.00  0.00    -0.277 C  
HETATM   14  O   UNL     1      -9.729  13.983  66.113  1.00  0.00    -0.293 OA 
ENDBRANCH   6   8
ENDBRANCH   3   6
TORSDOF 2
ENDMDL
MODEL      198
REMARK 921   NORMALIZED FREE ENERGY PREDICTED BY IDOCK:   -2.17 KCAL/MOL
REMARK 922        TOTAL FREE ENERGY PREDICTED BY IDOCK:   -2.75 KCAL/MOL
REMARK 923 INTER-LIGAND FREE ENERGY PREDICTED BY IDOCK:   -2.50 KCAL/MOL
REMARK 924 INTRA-LIGAND FREE ENERGY PREDICTED BY IDOCK:   -0.25 KCAL/MOL
REMARK 927      BINDING AFFINITY PREDICTED BY RF-SCORE:    0.00 PKD
ROOT
HETATM    1  N   UNL     1      -8.221   7.373  72.933  1.00  0.00    -0.108 N  
HETATM    2  H1  UNL     1      -7.642   7.914  72.290  1.00  0.00     0.000 HD 
HETATM    3  C   UNL     1      -9.504   7.717  73.203  1.00  0.00    -0.243 C  
HETATM    4  H2  UNL     1      -7.822   6.550  73.385  1.00  0.00     0.000 HD 
HETATM    5  O   UNL     1     -10.197   7.069  73.972  1.00  0.00    -0.349 OA 
ENDROOT
BRANCH   3   6
HETATM    6  N   UNL     1      -9.888   8.851  72.556  1.00  0.00    -0.060 N  
HETATM    7  H   UNL     1      -9.661   9.771  72.932  1.00  0.00     0.000 HD 
BRANCH   6   8
HETATM    8  C   UNL     1     -10.620   8.717  71.335  1.00  0.00    -0.264 C  
HETATM    9  N   UNL     1     -11.573   9.770  71.176  1.00  0.00    -0.362 NA 
HETATM   10  C   UNL     1     -11.557  10.276  69.900  1.00  0.00    -0.256 C  
HETATM   11  O   UNL     1     -12.378  11.053  69.447  1.00  0.00    -0.348 OA 
HETATM   12  N   UNL     1     -10.483   9.778  69.244  1.00  0.00    -0.208 NA 
HETATM   13  C   UNL     1      -9.790   8.921  70.046  1.00  0.00    -0.174 C  
HETATM   14  O   UNL     1      -8.710   8.423  69.767  1.00  0.00    -0.130 OA 
ENDBRANCH   6   8
ENDBRANCH   3   6
TORSDOF 2
ENDMDL
MODEL      199
REMARK 921   NORMALIZED FREE ENERGY PREDICTED BY IDOCK:   -2.15 KCAL/MOL
REMARK 922        TOTAL FREE ENERGY PREDICTED BY IDOCK:   -2.73 KCAL/MOL
REMARK 923 INTER-LIGAND FREE ENERGY PREDICTED BY IDOCK:   -2.31 KCAL/MOL
REMARK 924 INTRA-LIGAND FREE ENERGY PREDICTED BY IDOCK:   -0.42 KCAL/MOL
REMARK 927      BINDING AFFINITY PREDICTED BY RF-SCORE:    0.00 PKD
ROOT
HETATM    1  N   UNL     1      -5.581  17.602  69.502  1.00  0.00    -0.201 N  
HETATM    2  H1  UNL     1      -6.183  18.283  69.965  1.00  0.00     0.000 HD 
HETATM    3  C   UNL     1      -5.989  16.331  69.266  1.00  0.00    -0.146 C  
HETATM    4  H2  UNL     1      -4.646  17.885  69.209  1.00  0.00     0.000 HD 
HETATM    5  O   UNL     1      -5.268  15.515  68.712  1.00  0.00    -0.097 OA 
ENDROOT
BRANCH   3   6
HETATM    6  N   UNL     1      -7.240  16.086  69.739  1.00  0.00    -0.059 N  
HETATM    7  H   UNL     1      -7.383  15.730  70.684  1.00  0.00     0.000 HD 
BRANCH   6   8
HETATM    8  C   UNL     1      -8.351  16.343  68.876  1.00  0.00    -0.234 C  
HETATM    9  N   UNL     1      -8.189  17.571  68.164  1.00  0.00    -0.242 NA 
HETATM   10  C   UNL     1      -8.523  17.434  66.839  1.00  0.00    -0.241 C  
HETATM   11  O   UNL     1      -8.642  18.355  66.050  1.00  0.00    -0.501 OA 
HETATM   12  N   UNL     1      -8.686  16.120  66.562  1.00  0.00    -0.270 NA 
HETATM   13  C   UNL     1      -8.496  15.369  67.684  1.00  0.00    -0.162 C  
HETATM   14  O   UNL     1      -8.454  14.149  67.709  1.00  0.00    -0.155 OA 
ENDBRANCH   6   8
ENDBRANCH   3   6
TORSDOF 2
ENDMDL
MODEL      200
REMARK 921   NORMALIZED FREE ENERGY PREDICTED BY IDOCK:   -2.15 KCAL/MOL
REMARK 922        TOTAL FREE ENERGY PREDICTED BY IDOCK:   -2.73 KCAL/MOL
REMARK 923 INTER-LIGAND FREE ENERGY PREDICTED BY IDOCK:   -2.31 KCAL/MOL
REMARK 924 INTRA-LIGAND FREE ENERGY PREDICTED BY IDOCK:   -0.42 KCAL/MOL
REMARK 927      BINDING AFFINITY PREDICTED BY RF-SCORE:    0.00 PKD
ROOT
HETATM    1  N   UNL     1      -7.726   8.786  67.359  1.00  0.00    -0.096 N  
HETATM    2  H1  UNL     1      -8.266   9.276  66.646  1.00  0.00     0.000 HD 
HETATM    3  C   UNL     1      -8.198   8.608  68.618  1.00  0.00    -0.121 C  
HETATM    4  H2  UNL     1      -6.804   8.421  67.119  1.00  0.00     0.000 HD 
HETATM    5  O   UNL     1      -7.551   8.023  69.472  1.00  0.00    -0.096 OA 
ENDROOT
BRANCH   3   6
HETATM    6  N   UNL     1      -9.421   9.176  68.803  1.00  0.00    -0.146 N  
HETATM    7  H   UNL     1      -9.508  10.138  69.129  1.00  0.00     0.000 HD 
BRANCH   6   8
HETATM    8  C   UNL     1     -10.580   8.386  68.527  1.00  0.00    -0.106 C  
HETATM    9  N   UNL     1     -10.443   7.661  67.303  1.00  0.00    -0.301 NA 
HETATM   10  C   UNL     1     -10.865   6.361  67.436  1.00  0.00    -0.375 C  
HETATM   11  O   UNL     1     -11.018   5.580  66.514  1.00  0.00    -0.250 OA 
HETATM   12  N   UNL     1     -11.069   6.099  68.747  1.00  0.00    -0.358 NA 
HETATM   13  C   UNL     1     -10.820   7.208  69.500  1.00  0.00    -0.225 C  
HETATM   14  O   UNL     1     -10.798   7.233  70.720  1.00  0.00    -0.232 OA 
ENDBRANCH   6   8
ENDBRANCH   3   6
TORSDOF 2
ENDMDL
MODEL      201
REMARK 921   NORMALIZED FREE ENERGY PREDICTED BY IDOCK:   -2.12 KCAL/MOL
REMARK 922        TOTAL FREE ENERGY PREDICTED BY IDOCK:   -2.70 KCAL/MOL
REMARK 923 INTER-LIGAND FREE ENERGY PREDICTED BY IDOCK:   -2.54 KCAL/MOL
REMARK 924 INTRA-LIGAND FREE ENERGY PREDICTED BY IDOCK:   -0.16 KCAL/MOL
REMARK 927      BINDING AFFINITY PREDICTED BY RF-SCORE:    0.00 PKD
ROOT
HETATM    1  N   UNL     1      -9.244  14.561  65.738  1.00  0.00    -0.486 N  
HETATM    2  H1  UNL     1      -8.303  14.194  65.880  1.00  0.00     0.000 HD 
HETATM    3  C   UNL     1     -10.324  13.747  65.651  1.00  0.00    -0.311 C  
HETATM    4  H2  UNL     1      -9.375  15.570  65.660  1.00  0.00     0.000 HD 
HETATM    5  O   UNL     1     -11.450  14.187  65.482  1.00  0.00    -0.312 OA 
ENDROOT
BRANCH   3   6
HETATM    6  N   UNL     1      -9.995  12.430  65.740  1.00  0.00    -0.255 N  
HETATM    7  H   UNL     1      -9.914  11.853  64.903  1.00  0.00     0.000 HD 
BRANCH   6   8
HETATM    8  C   UNL     1      -9.766  11.876  67.038  1.00  0.00    -0.194 C  
HETATM    9  N   UNL     1     -10.546  10.698  67.251  1.00  0.00    -0.246 NA 
HETATM   10  C   UNL     1      -9.804   9.701  67.835  1.00  0.00    -0.154 C  
HETATM   11  O   UNL     1     -10.258   8.663  68.281  1.00  0.00    -0.187 OA 
HETATM   12  N   UNL     1      -8.499  10.061  67.822  1.00  0.00    -0.114 NA 
HETATM   13  C   UNL     1      -8.351  11.296  67.265  1.00  0.00    -0.145 C  
HETATM   14  O   UNL     1      -7.279  11.821  67.006  1.00  0.00    -0.140 OA 
ENDBRANCH   6   8
ENDBRANCH   3   6
TORSDOF 2
ENDMDL
MODEL      202
REMARK 921   NORMALIZED FREE ENERGY PREDICTED BY IDOCK:   -2.11 KCAL/MOL
REMARK 922        TOTAL FREE ENERGY PREDICTED BY IDOCK:   -2.69 KCAL/MOL
REMARK 923 INTER-LIGAND FREE ENERGY PREDICTED BY IDOCK:   -2.32 KCAL/MOL
REMARK 924 INTRA-LIGAND FREE ENERGY PREDICTED BY IDOCK:   -0.37 KCAL/MOL
REMARK 927      BINDING AFFINITY PREDICTED BY RF-SCORE:    0.00 PKD
ROOT
HETATM    1  N   UNL     1      -8.683   7.923  74.202  1.00  0.00    -0.382 N  
HETATM    2  H1  UNL     1      -7.682   7.947  74.006  1.00  0.00     0.000 HD 
HETATM    3  C   UNL     1      -9.603   7.822  73.212  1.00  0.00    -0.283 C  
HETATM    4  H2  UNL     1      -8.999   7.978  75.170  1.00  0.00     0.000 HD 
HETATM    5  O   UNL     1     -10.801   7.793  73.446  1.00  0.00    -0.341 OA 
ENDROOT
BRANCH   3   6
HETATM    6  N   UNL     1      -9.039   7.792  71.974  1.00  0.00    -0.130 N  
HETATM    7  H   UNL     1      -8.725   8.650  71.521  1.00  0.00     0.000 HD 
BRANCH   6   8
HETATM    8  C   UNL     1      -8.898   6.525  71.327  1.00  0.00    -0.137 C  
HETATM    9  N   UNL     1      -8.344   5.545  72.206  1.00  0.00    -0.118 NA 
HETATM   10  C   UNL     1      -9.014   4.349  72.115  1.00  0.00    -0.120 C  
HETATM   11  O   UNL     1      -8.646   3.303  72.620  1.00  0.00    -0.082 OA 
HETATM   12  N   UNL     1     -10.139   4.531  71.387  1.00  0.00    -0.184 NA 
HETATM   13  C   UNL     1     -10.227   5.823  70.960  1.00  0.00    -0.217 C  
HETATM   14  O   UNL     1     -11.194   6.307  70.393  1.00  0.00    -0.324 OA 
ENDBRANCH   6   8
ENDBRANCH   3   6
TORSDOF 2
ENDMDL
MODEL      203
REMARK 921   NORMALIZED FREE ENERGY PREDICTED BY IDOCK:   -2.11 KCAL/MOL
REMARK 922        TOTAL FREE ENERGY PREDICTED BY IDOCK:   -2.69 KCAL/MOL
REMARK 923 INTER-LIGAND FREE ENERGY PREDICTED BY IDOCK:   -2.43 KCAL/MOL
REMARK 924 INTRA-LIGAND FREE ENERGY PREDICTED BY IDOCK:   -0.26 KCAL/MOL
REMARK 927      BINDING AFFINITY PREDICTED BY RF-SCORE:    0.00 PKD
ROOT
HETATM    1  N   UNL     1      -6.974  13.082  69.563  1.00  0.00    -0.327 N  
HETATM    2  H1  UNL     1      -7.903  12.683  69.426  1.00  0.00     0.000 HD 
HETATM    3  C   UNL     1      -6.575  14.204  68.917  1.00  0.00    -0.099 C  
HETATM    4  H2  UNL     1      -6.328  12.622  70.204  1.00  0.00     0.000 HD 
HETATM    5  O   UNL     1      -5.463  14.681  69.081  1.00  0.00    -0.091 OA 
ENDROOT
BRANCH   3   6
HETATM    6  N   UNL     1      -7.525  14.687  68.071  1.00  0.00    -0.118 N  
HETATM    7  H   UNL     1      -7.276  15.313  67.305  1.00  0.00     0.000 HD 
BRANCH   6   8
HETATM    8  C   UNL     1      -8.883  14.293  68.285  1.00  0.00    -0.185 C  
HETATM    9  N   UNL     1      -9.571  15.219  69.128  1.00  0.00    -0.230 NA 
HETATM   10  C   UNL     1     -10.822  15.510  68.641  1.00  0.00    -0.267 C  
HETATM   11  O   UNL     1     -11.679  16.129  69.245  1.00  0.00    -0.313 OA 
HETATM   12  N   UNL     1     -10.934  15.006  67.390  1.00  0.00    -0.307 NA 
HETATM   13  C   UNL     1      -9.790  14.355  67.035  1.00  0.00    -0.252 C  
HETATM   14  O   UNL     1      -9.556  13.912  65.921  1.00  0.00    -0.245 OA 
ENDBRANCH   6   8
ENDBRANCH   3   6
TORSDOF 2
ENDMDL
MODEL      204
REMARK 921   NORMALIZED FREE ENERGY PREDICTED BY IDOCK:   -2.11 KCAL/MOL
REMARK 922        TOTAL FREE ENERGY PREDICTED BY IDOCK:   -2.68 KCAL/MOL
REMARK 923 INTER-LIGAND FREE ENERGY PREDICTED BY IDOCK:   -2.53 KCAL/MOL
REMARK 924 INTRA-LIGAND FREE ENERGY PREDICTED BY IDOCK:   -0.15 KCAL/MOL
REMARK 927      BINDING AFFINITY PREDICTED BY RF-SCORE:    0.00 PKD
ROOT
HETATM    1  N   UNL     1     -10.564   6.421  66.344  1.00  0.00    -0.490 N  
HETATM    2  H1  UNL     1     -11.217   7.197  66.456  1.00  0.00     0.000 HD 
HETATM    3  C   UNL     1      -9.506   6.251  67.175  1.00  0.00    -0.124 C  
HETATM    4  H2  UNL     1     -10.710   5.756  65.585  1.00  0.00     0.000 HD 
HETATM    5  O   UNL     1      -8.724   5.323  67.041  1.00  0.00    -0.109 OA 
ENDROOT
BRANCH   3   6
HETATM    6  N   UNL     1      -9.417   7.230  68.115  1.00  0.00    -0.134 N  
HETATM    7  H   UNL     1      -8.541   7.409  68.606  1.00  0.00     0.000 HD 
BRANCH   6   8
HETATM    8  C   UNL     1     -10.587   8.003  68.398  1.00  0.00    -0.102 C  
HETATM    9  N   UNL     1     -10.677   8.328  69.787  1.00  0.00    -0.238 NA 
HETATM   10  C   UNL     1     -11.029   9.643  69.975  1.00  0.00    -0.260 C  
HETATM   11  O   UNL     1     -11.342  10.135  71.044  1.00  0.00    -0.347 OA 
HETATM   12  N   UNL     1     -10.959  10.289  68.789  1.00  0.00    -0.236 NA 
HETATM   13  C   UNL     1     -10.595   9.428  67.797  1.00  0.00    -0.258 C  
HETATM   14  O   UNL     1     -10.329   9.755  66.651  1.00  0.00    -0.235 OA 
ENDBRANCH   6   8
ENDBRANCH   3   6
TORSDOF 2
ENDMDL
MODEL      205
REMARK 921   NORMALIZED FREE ENERGY PREDICTED BY IDOCK:   -2.10 KCAL/MOL
REMARK 922        TOTAL FREE ENERGY PREDICTED BY IDOCK:   -2.68 KCAL/MOL
REMARK 923 INTER-LIGAND FREE ENERGY PREDICTED BY IDOCK:   -2.51 KCAL/MOL
REMARK 924 INTRA-LIGAND FREE ENERGY PREDICTED BY IDOCK:   -0.17 KCAL/MOL
REMARK 927      BINDING AFFINITY PREDICTED BY RF-SCORE:    0.00 PKD
ROOT
HETATM    1  N   UNL     1     -10.823  10.585  67.666  1.00  0.00    -0.279 N  
HETATM    2  H1  UNL     1     -11.342  10.481  68.538  1.00  0.00     0.000 HD 
HETATM    3  C   UNL     1     -10.531   9.523  66.876  1.00  0.00    -0.208 C  
HETATM    4  H2  UNL     1     -10.514  11.515  67.382  1.00  0.00     0.000 HD 
HETATM    5  O   UNL     1      -9.909   9.648  65.833  1.00  0.00    -0.258 OA 
ENDROOT
BRANCH   3   6
HETATM    6  N   UNL     1     -10.974   8.347  67.396  1.00  0.00    -0.447 N  
HETATM    7  H   UNL     1     -11.945   8.056  67.283  1.00  0.00     0.000 HD 
BRANCH   6   8
HETATM    8  C   UNL     1     -10.041   7.528  68.106  1.00  0.00    -0.183 C  
HETATM    9  N   UNL     1     -10.646   6.908  69.243  1.00  0.00    -0.217 NA 
HETATM   10  C   UNL     1     -10.296   5.583  69.341  1.00  0.00    -0.278 C  
HETATM   11  O   UNL     1     -10.527   4.870  70.300  1.00  0.00    -0.234 OA 
HETATM   12  N   UNL     1      -9.668   5.211  68.202  1.00  0.00    -0.138 NA 
HETATM   13  C   UNL     1      -9.562   6.268  67.348  1.00  0.00    -0.119 C  
HETATM   14  O   UNL     1      -9.157   6.199  66.198  1.00  0.00    -0.154 OA 
ENDBRANCH   6   8
ENDBRANCH   3   6
TORSDOF 2
ENDMDL
MODEL      206
REMARK 921   NORMALIZED FREE ENERGY PREDICTED BY IDOCK:   -2.09 KCAL/MOL
REMARK 922        TOTAL FREE ENERGY PREDICTED BY IDOCK:   -2.66 KCAL/MOL
REMARK 923 INTER-LIGAND FREE ENERGY PREDICTED BY IDOCK:   -2.39 KCAL/MOL
REMARK 924 INTRA-LIGAND FREE ENERGY PREDICTED BY IDOCK:   -0.27 KCAL/MOL
REMARK 927      BINDING AFFINITY PREDICTED BY RF-SCORE:    0.00 PKD
ROOT
HETATM    1  N   UNL     1     -11.171   9.347  68.214  1.00  0.00    -0.490 N  
HETATM    2  H1  UNL     1     -10.944   8.511  67.676  1.00  0.00     0.000 HD 
HETATM    3  C   UNL     1     -10.825   9.473  69.519  1.00  0.00    -0.222 C  
HETATM    4  H2  UNL     1     -11.674  10.108  67.758  1.00  0.00     0.000 HD 
HETATM    5  O   UNL     1     -11.097  10.474  70.164  1.00  0.00    -0.285 OA 
ENDROOT
BRANCH   3   6
HETATM    6  N   UNL     1     -10.192   8.370  70.001  1.00  0.00    -0.197 N  
HETATM    7  H   UNL     1      -9.644   8.413  70.861  1.00  0.00     0.000 HD 
BRANCH   6   8
HETATM    8  C   UNL     1     -10.316   7.147  69.271  1.00  0.00    -0.203 C  
HETATM    9  N   UNL     1      -9.078   6.771  68.663  1.00  0.00    -0.128 NA 
HETATM   10  C   UNL     1      -8.818   5.433  68.834  1.00  0.00    -0.100 C  
HETATM   11  O   UNL     1      -7.928   4.819  68.275  1.00  0.00    -0.084 OA 
HETATM   12  N   UNL     1      -9.703   4.925  69.722  1.00  0.00    -0.173 NA 
HETATM   13  C   UNL     1     -10.574   5.889  70.133  1.00  0.00    -0.292 C  
HETATM   14  O   UNL     1     -11.397   5.753  71.024  1.00  0.00    -0.214 OA 
ENDBRANCH   6   8
ENDBRANCH   3   6
TORSDOF 2
ENDMDL
MODEL      207
REMARK 921   NORMALIZED FREE ENERGY PREDICTED BY IDOCK:   -2.08 KCAL/MOL
REMARK 922        TOTAL FREE ENERGY PREDICTED BY IDOCK:   -2.66 KCAL/MOL
REMARK 923 INTER-LIGAND FREE ENERGY PREDICTED BY IDOCK:   -2.44 KCAL/MOL
REMARK 924 INTRA-LIGAND FREE ENERGY PREDICTED BY IDOCK:   -0.22 KCAL/MOL
REMARK 927      BINDING AFFINITY PREDICTED BY RF-SCORE:    0.00 PKD
ROOT
HETATM    1  N   UNL     1     -11.656   8.662  71.791  1.00  0.00    -0.308 N  
HETATM    2  H1  UNL     1     -12.471   8.622  71.180  1.00  0.00     0.000 HD 
HETATM    3  C   UNL     1     -10.449   9.090  71.347  1.00  0.00    -0.324 C  
HETATM    4  H2  UNL     1     -11.751   8.372  72.764  1.00  0.00     0.000 HD 
HETATM    5  O   UNL     1      -9.472   9.137  72.078  1.00  0.00    -0.323 OA 
ENDROOT
BRANCH   3   6
HETATM    6  N   UNL     1     -10.462   9.412  70.025  1.00  0.00    -0.218 N  
HETATM    7  H   UNL     1     -11.016  10.196  69.682  1.00  0.00     0.000 HD 
BRANCH   6   8
HETATM    8  C   UNL     1      -9.678   8.620  69.129  1.00  0.00    -0.173 C  
HETATM    9  N   UNL     1      -9.666   7.245  69.518  1.00  0.00    -0.158 NA 
HETATM   10  C   UNL     1      -9.850   6.414  68.439  1.00  0.00    -0.137 C  
HETATM   11  O   UNL     1      -9.711   5.204  68.459  1.00  0.00    -0.133 OA 
HETATM   12  N   UNL     1     -10.214   7.159  67.370  1.00  0.00    -0.201 NA 
HETATM   13  C   UNL     1     -10.252   8.481  67.700  1.00  0.00    -0.236 C  
HETATM   14  O   UNL     1     -10.670   9.370  66.974  1.00  0.00    -0.229 OA 
ENDBRANCH   6   8
ENDBRANCH   3   6
TORSDOF 2
ENDMDL
MODEL      208
REMARK 921   NORMALIZED FREE ENERGY PREDICTED BY IDOCK:   -2.06 KCAL/MOL
REMARK 922        TOTAL FREE ENERGY PREDICTED BY IDOCK:   -2.63 KCAL/MOL
REMARK 923 INTER-LIGAND FREE ENERGY PREDICTED BY IDOCK:   -2.48 KCAL/MOL
REMARK 924 INTRA-LIGAND FREE ENERGY PREDICTED BY IDOCK:   -0.15 KCAL/MOL
REMARK 927      BINDING AFFINITY PREDICTED BY RF-SCORE:    0.00 PKD
ROOT
HETATM    1  N   UNL     1      -8.471   8.261  71.820  1.00  0.00    -0.144 N  
HETATM    2  H1  UNL     1      -9.136   7.656  71.337  1.00  0.00     0.000 HD 
HETATM    3  C   UNL     1      -8.234   8.146  73.150  1.00  0.00    -0.193 C  
HETATM    4  H2  UNL     1      -7.971   8.972  71.287  1.00  0.00     0.000 HD 
HETATM    5  O   UNL     1      -7.439   8.870  73.728  1.00  0.00    -0.396 OA 
ENDROOT
BRANCH   3   6
HETATM    6  N   UNL     1      -8.994   7.181  73.735  1.00  0.00    -0.172 N  
HETATM    7  H   UNL     1      -9.060   7.110  74.751  1.00  0.00     0.000 HD 
BRANCH   6   8
HETATM    8  C   UNL     1      -9.699   6.270  72.888  1.00  0.00    -0.158 C  
HETATM    9  N   UNL     1      -9.835   4.985  73.499  1.00  0.00    -0.148 NA 
HETATM   10  C   UNL     1     -11.106   4.486  73.345  1.00  0.00    -0.322 C  
HETATM   11  O   UNL     1     -11.445   3.348  73.613  1.00  0.00    -0.199 OA 
HETATM   12  N   UNL     1     -11.905   5.464  72.859  1.00  0.00    -0.190 NA 
HETATM   13  C   UNL     1     -11.190   6.606  72.655  1.00  0.00    -0.249 C  
HETATM   14  O   UNL     1     -11.671   7.685  72.345  1.00  0.00    -0.311 OA 
ENDBRANCH   6   8
ENDBRANCH   3   6
TORSDOF 2
ENDMDL
MODEL      209
REMARK 921   NORMALIZED FREE ENERGY PREDICTED BY IDOCK:   -2.03 KCAL/MOL
REMARK 922        TOTAL FREE ENERGY PREDICTED BY IDOCK:   -2.60 KCAL/MOL
REMARK 923 INTER-LIGAND FREE ENERGY PREDICTED BY IDOCK:   -2.44 KCAL/MOL
REMARK 924 INTRA-LIGAND FREE ENERGY PREDICTED BY IDOCK:   -0.16 KCAL/MOL
REMARK 927      BINDING AFFINITY PREDICTED BY RF-SCORE:    0.00 PKD
ROOT
HETATM    1  N   UNL     1      -9.157   8.978  71.027  1.00  0.00    -0.243 N  
HETATM    2  H1  UNL     1      -8.632   8.141  71.280  1.00  0.00     0.000 HD 
HETATM    3  C   UNL     1     -10.511   8.980  70.959  1.00  0.00    -0.269 C  
HETATM    4  H2  UNL     1      -8.648   9.838  70.819  1.00  0.00     0.000 HD 
HETATM    5  O   UNL     1     -11.139   9.982  70.656  1.00  0.00    -0.298 OA 
ENDROOT
BRANCH   3   6
HETATM    6  N   UNL     1     -11.050   7.760  71.227  1.00  0.00    -0.243 N  
HETATM    7  H   UNL     1     -11.942   7.480  70.819  1.00  0.00     0.000 HD 
BRANCH   6   8
HETATM    8  C   UNL     1     -10.332   6.881  72.097  1.00  0.00    -0.199 C  
HETATM    9  N   UNL     1     -11.218   6.092  72.893  1.00  0.00    -0.244 NA 
HETATM   10  C   UNL     1     -10.820   4.778  72.939  1.00  0.00    -0.237 C  
HETATM   11  O   UNL     1     -11.290   3.932  73.678  1.00  0.00    -0.238 OA 
HETATM   12  N   UNL     1      -9.838   4.586  72.028  1.00  0.00    -0.170 NA 
HETATM   13  C   UNL     1      -9.545   5.754  71.389  1.00  0.00    -0.158 C  
HETATM   14  O   UNL     1      -8.793   5.857  70.433  1.00  0.00    -0.139 OA 
ENDBRANCH   6   8
ENDBRANCH   3   6
TORSDOF 2
ENDMDL
MODEL      210
REMARK 921   NORMALIZED FREE ENERGY PREDICTED BY IDOCK:   -2.01 KCAL/MOL
REMARK 922        TOTAL FREE ENERGY PREDICTED BY IDOCK:   -2.57 KCAL/MOL
REMARK 923 INTER-LIGAND FREE ENERGY PREDICTED BY IDOCK:   -2.38 KCAL/MOL
REMARK 924 INTRA-LIGAND FREE ENERGY PREDICTED BY IDOCK:   -0.19 KCAL/MOL
REMARK 927      BINDING AFFINITY PREDICTED BY RF-SCORE:    0.00 PKD
ROOT
HETATM    1  N   UNL     1      -8.819   8.300  67.825  1.00  0.00    -0.137 N  
HETATM    2  H1  UNL     1      -8.677   7.660  68.607  1.00  0.00     0.000 HD 
HETATM    3  C   UNL     1     -10.047   8.523  67.296  1.00  0.00    -0.251 C  
HETATM    4  H2  UNL     1      -8.014   8.785  67.430  1.00  0.00     0.000 HD 
HETATM    5  O   UNL     1     -10.217   9.289  66.361  1.00  0.00    -0.273 OA 
ENDROOT
BRANCH   3   6
HETATM    6  N   UNL     1     -11.018   7.784  67.899  1.00  0.00    -0.484 N  
HETATM    7  H   UNL     1     -11.773   8.234  68.417  1.00  0.00     0.000 HD 
BRANCH   6   8
HETATM    8  C   UNL     1     -10.951   6.360  67.787  1.00  0.00    -0.332 C  
HETATM    9  N   UNL     1     -10.462   5.958  66.506  1.00  0.00    -0.213 NA 
HETATM   10  C   UNL     1      -9.531   4.953  66.615  1.00  0.00    -0.150 C  
HETATM   11  O   UNL     1      -9.086   4.311  65.682  1.00  0.00    -0.124 OA 
HETATM   12  N   UNL     1      -9.193   4.809  67.917  1.00  0.00    -0.117 NA 
HETATM   13  C   UNL     1      -9.900   5.678  68.693  1.00  0.00    -0.145 C  
HETATM   14  O   UNL     1      -9.713   5.861  69.886  1.00  0.00    -0.156 OA 
ENDBRANCH   6   8
ENDBRANCH   3   6
TORSDOF 2
ENDMDL
MODEL      211
REMARK 921   NORMALIZED FREE ENERGY PREDICTED BY IDOCK:   -2.00 KCAL/MOL
REMARK 922        TOTAL FREE ENERGY PREDICTED BY IDOCK:   -2.57 KCAL/MOL
REMARK 923 INTER-LIGAND FREE ENERGY PREDICTED BY IDOCK:   -2.37 KCAL/MOL
REMARK 924 INTRA-LIGAND FREE ENERGY PREDICTED BY IDOCK:   -0.20 KCAL/MOL
REMARK 927      BINDING AFFINITY PREDICTED BY RF-SCORE:    0.00 PKD
ROOT
HETATM    1  N   UNL     1     -11.111   4.562  65.367  1.00  0.00    -0.932 N  
HETATM    2  H1  UNL     1     -10.740   3.707  64.951  1.00  0.00     0.000 HD 
HETATM    3  C   UNL     1     -10.435   5.243  66.324  1.00  0.00    -0.255 C  
HETATM    4  H2  UNL     1     -12.015   4.914  65.052  1.00  0.00     0.000 HD 
HETATM    5  O   UNL     1     -10.878   6.266  66.821  1.00  0.00    -0.326 OA 
ENDROOT
BRANCH   3   6
HETATM    6  N   UNL     1      -9.264   4.641  66.667  1.00  0.00    -0.122 N  
HETATM    7  H   UNL     1      -9.153   4.187  67.574  1.00  0.00     0.000 HD 
BRANCH   6   8
HETATM    8  C   UNL     1      -8.192   4.660  65.720  1.00  0.00    -0.111 C  
HETATM    9  N   UNL     1      -8.424   3.746  64.647  1.00  0.00    -0.096 NA 
HETATM   10  C   UNL     1      -8.127   4.311  63.430  1.00  0.00    -0.088 C  
HETATM   11  O   UNL     1      -8.069   3.706  62.376  1.00  0.00    -0.069 OA 
HETATM   12  N   UNL     1      -7.923   5.638  63.602  1.00  0.00    -0.112 NA 
HETATM   13  C   UNL     1      -8.048   5.973  64.917  1.00  0.00    -0.133 C  
HETATM   14  O   UNL     1      -8.043   7.115  65.350  1.00  0.00    -0.125 OA 
ENDBRANCH   6   8
ENDBRANCH   3   6
TORSDOF 2
ENDMDL
MODEL      212
REMARK 921   NORMALIZED FREE ENERGY PREDICTED BY IDOCK:   -2.00 KCAL/MOL
REMARK 922        TOTAL FREE ENERGY PREDICTED BY IDOCK:   -2.57 KCAL/MOL
REMARK 923 INTER-LIGAND FREE ENERGY PREDICTED BY IDOCK:   -2.41 KCAL/MOL
REMARK 924 INTRA-LIGAND FREE ENERGY PREDICTED BY IDOCK:   -0.16 KCAL/MOL
REMARK 927      BINDING AFFINITY PREDICTED BY RF-SCORE:    0.00 PKD
ROOT
HETATM    1  N   UNL     1      -9.696  10.461  66.492  1.00  0.00    -0.186 N  
HETATM    2  H1  UNL     1      -8.694  10.337  66.343  1.00  0.00     0.000 HD 
HETATM    3  C   UNL     1     -10.243  11.685  66.692  1.00  0.00    -0.216 C  
HETATM    4  H2  UNL     1     -10.302   9.641  66.490  1.00  0.00     0.000 HD 
HETATM    5  O   UNL     1     -11.442  11.833  66.870  1.00  0.00    -0.399 OA 
ENDROOT
BRANCH   3   6
HETATM    6  N   UNL     1      -9.314  12.678  66.702  1.00  0.00    -0.235 N  
HETATM    7  H   UNL     1      -8.529  12.669  66.050  1.00  0.00     0.000 HD 
BRANCH   6   8
HETATM    8  C   UNL     1      -9.467  13.737  67.651  1.00  0.00    -0.217 C  
HETATM    9  N   UNL     1      -8.213  14.117  68.220  1.00  0.00    -0.141 NA 
HETATM   10  C   UNL     1      -8.078  15.483  68.278  1.00  0.00    -0.133 C  
HETATM   11  O   UNL     1      -7.192  16.072  68.869  1.00  0.00    -0.145 OA 
HETATM   12  N   UNL     1      -9.080  16.052  67.568  1.00  0.00    -0.198 NA 
HETATM   13  C   UNL     1      -9.905  15.096  67.056  1.00  0.00    -0.230 C  
HETATM   14  O   UNL     1     -10.816  15.307  66.271  1.00  0.00    -0.311 OA 
ENDBRANCH   6   8
ENDBRANCH   3   6
TORSDOF 2
ENDMDL
MODEL      213
REMARK 921   NORMALIZED FREE ENERGY PREDICTED BY IDOCK:   -1.98 KCAL/MOL
REMARK 922        TOTAL FREE ENERGY PREDICTED BY IDOCK:   -2.54 KCAL/MOL
REMARK 923 INTER-LIGAND FREE ENERGY PREDICTED BY IDOCK:   -2.29 KCAL/MOL
REMARK 924 INTRA-LIGAND FREE ENERGY PREDICTED BY IDOCK:   -0.26 KCAL/MOL
REMARK 927      BINDING AFFINITY PREDICTED BY RF-SCORE:    0.00 PKD
ROOT
HETATM    1  N   UNL     1      -6.974   5.391  71.119  1.00  0.00    -0.058 N  
HETATM    2  H1  UNL     1      -7.067   4.403  70.883  1.00  0.00     0.000 HD 
HETATM    3  C   UNL     1      -7.676   6.352  70.469  1.00  0.00    -0.105 C  
HETATM    4  H2  UNL     1      -6.334   5.664  71.864  1.00  0.00     0.000 HD 
HETATM    5  O   UNL     1      -7.565   7.534  70.751  1.00  0.00    -0.079 OA 
ENDROOT
BRANCH   3   6
HETATM    6  N   UNL     1      -8.462   5.846  69.480  1.00  0.00    -0.113 N  
HETATM    7  H   UNL     1      -8.127   5.796  68.518  1.00  0.00     0.000 HD 
BRANCH   6   8
HETATM    8  C   UNL     1      -9.772   5.387  69.826  1.00  0.00    -0.184 C  
HETATM    9  N   UNL     1     -10.117   5.748  71.165  1.00  0.00    -0.195 NA 
HETATM   10  C   UNL     1     -11.399   6.236  71.241  1.00  0.00    -0.297 C  
HETATM   11  O   UNL     1     -12.003   6.453  72.276  1.00  0.00    -0.304 OA 
HETATM   12  N   UNL     1     -11.865   6.441  69.987  1.00  0.00    -0.309 NA 
HETATM   13  C   UNL     1     -10.931   6.071  69.065  1.00  0.00    -0.339 C  
HETATM   14  O   UNL     1     -11.023   6.262  67.862  1.00  0.00    -0.306 OA 
ENDBRANCH   6   8
ENDBRANCH   3   6
TORSDOF 2
ENDMDL
MODEL      214
REMARK 921   NORMALIZED FREE ENERGY PREDICTED BY IDOCK:   -1.96 KCAL/MOL
REMARK 922        TOTAL FREE ENERGY PREDICTED BY IDOCK:   -2.52 KCAL/MOL
REMARK 923 INTER-LIGAND FREE ENERGY PREDICTED BY IDOCK:   -2.36 KCAL/MOL
REMARK 924 INTRA-LIGAND FREE ENERGY PREDICTED BY IDOCK:   -0.16 KCAL/MOL
REMARK 927      BINDING AFFINITY PREDICTED BY RF-SCORE:    0.00 PKD
ROOT
HETATM    1  N   UNL     1      -8.523   3.592  72.945  1.00  0.00    -0.081 N  
HETATM    2  H1  UNL     1      -8.253   4.217  73.704  1.00  0.00     0.000 HD 
HETATM    3  C   UNL     1      -9.714   3.711  72.309  1.00  0.00    -0.157 C  
HETATM    4  H2  UNL     1      -7.879   2.855  72.657  1.00  0.00     0.000 HD 
HETATM    5  O   UNL     1     -10.038   2.963  71.400  1.00  0.00    -0.084 OA 
ENDROOT
BRANCH   3   6
HETATM    6  N   UNL     1     -10.482   4.712  72.819  1.00  0.00    -0.195 N  
HETATM    7  H   UNL     1     -10.941   4.611  73.724  1.00  0.00     0.000 HD 
BRANCH   6   8
HETATM    8  C   UNL     1     -10.628   5.910  72.052  1.00  0.00    -0.221 C  
HETATM    9  N   UNL     1     -11.995   6.318  71.971  1.00  0.00    -0.330 NA 
HETATM   10  C   UNL     1     -12.131   7.669  72.178  1.00  0.00    -0.286 C  
HETATM   11  O   UNL     1     -13.154   8.303  71.994  1.00  0.00    -0.331 OA 
HETATM   12  N   UNL     1     -10.953   8.165  72.622  1.00  0.00    -0.372 NA 
HETATM   13  C   UNL     1     -10.016   7.178  72.691  1.00  0.00    -0.177 C  
HETATM   14  O   UNL     1      -8.902   7.305  73.177  1.00  0.00    -0.127 OA 
ENDBRANCH   6   8
ENDBRANCH   3   6
TORSDOF 2
ENDMDL
MODEL      215
REMARK 921   NORMALIZED FREE ENERGY PREDICTED BY IDOCK:   -1.94 KCAL/MOL
REMARK 922        TOTAL FREE ENERGY PREDICTED BY IDOCK:   -2.50 KCAL/MOL
REMARK 923 INTER-LIGAND FREE ENERGY PREDICTED BY IDOCK:   -2.66 KCAL/MOL
REMARK 924 INTRA-LIGAND FREE ENERGY PREDICTED BY IDOCK:    0.15 KCAL/MOL
REMARK 927      BINDING AFFINITY PREDICTED BY RF-SCORE:    0.00 PKD
ROOT
HETATM    1  N   UNL     1     -11.282   4.473  65.349  1.00  0.00    -0.941 N  
HETATM    2  H1  UNL     1     -10.793   3.734  64.843  1.00  0.00     0.000 HD 
HETATM    3  C   UNL     1     -10.627   5.335  66.165  1.00  0.00    -0.194 C  
HETATM    4  H2  UNL     1     -12.291   4.565  65.237  1.00  0.00     0.000 HD 
HETATM    5  O   UNL     1     -11.212   6.220  66.770  1.00  0.00    -0.310 OA 
ENDROOT
BRANCH   3   6
HETATM    6  N   UNL     1      -9.295   5.072  66.244  1.00  0.00    -0.142 N  
HETATM    7  H   UNL     1      -8.703   5.109  65.413  1.00  0.00     0.000 HD 
BRANCH   6   8
HETATM    8  C   UNL     1      -8.746   4.741  67.522  1.00  0.00    -0.103 C  
HETATM    9  N   UNL     1      -9.098   5.711  68.511  1.00  0.00    -0.114 NA 
HETATM   10  C   UNL     1      -9.492   5.114  69.684  1.00  0.00    -0.143 C  
HETATM   11  O   UNL     1      -9.678   5.699  70.735  1.00  0.00    -0.166 OA 
HETATM   12  N   UNL     1      -9.645   3.787  69.470  1.00  0.00    -0.189 NA 
HETATM   13  C   UNL     1      -9.333   3.472  68.181  1.00  0.00    -0.180 C  
HETATM   14  O   UNL     1      -9.500   2.375  67.670  1.00  0.00    -0.176 OA 
ENDBRANCH   6   8
ENDBRANCH   3   6
TORSDOF 2
ENDMDL
MODEL      216
REMARK 921   NORMALIZED FREE ENERGY PREDICTED BY IDOCK:   -1.94 KCAL/MOL
REMARK 922        TOTAL FREE ENERGY PREDICTED BY IDOCK:   -2.50 KCAL/MOL
REMARK 923 INTER-LIGAND FREE ENERGY PREDICTED BY IDOCK:   -2.21 KCAL/MOL
REMARK 924 INTRA-LIGAND FREE ENERGY PREDICTED BY IDOCK:   -0.29 KCAL/MOL
REMARK 927      BINDING AFFINITY PREDICTED BY RF-SCORE:    0.00 PKD
ROOT
HETATM    1  N   UNL     1     -10.515   6.890  70.209  1.00  0.00    -0.199 N  
HETATM    2  H1  UNL     1     -10.275   7.682  70.805  1.00  0.00     0.000 HD 
HETATM    3  C   UNL     1      -9.748   6.533  69.149  1.00  0.00    -0.136 C  
HETATM    4  H2  UNL     1     -11.357   6.352  70.415  1.00  0.00     0.000 HD 
HETATM    5  O   UNL     1     -10.036   5.585  68.436  1.00  0.00    -0.140 OA 
ENDROOT
BRANCH   3   6
HETATM    6  N   UNL     1      -8.681   7.358  68.975  1.00  0.00    -0.133 N  
HETATM    7  H   UNL     1      -7.733   7.041  69.182  1.00  0.00     0.000 HD 
BRANCH   6   8
HETATM    8  C   UNL     1      -8.922   8.683  68.494  1.00  0.00    -0.139 C  
HETATM    9  N   UNL     1     -10.272   8.843  68.053  1.00  0.00    -0.203 NA 
HETATM   10  C   UNL     1     -10.813  10.024  68.500  1.00  0.00    -0.231 C  
HETATM   11  O   UNL     1     -11.876  10.488  68.131  1.00  0.00    -0.417 OA 
HETATM   12  N   UNL     1      -9.977  10.570  69.413  1.00  0.00    -0.219 NA 
HETATM   13  C   UNL     1      -8.868   9.793  69.569  1.00  0.00    -0.193 C  
HETATM   14  O   UNL     1      -8.005   9.970  70.416  1.00  0.00    -0.204 OA 
ENDBRANCH   6   8
ENDBRANCH   3   6
TORSDOF 2
ENDMDL
MODEL      217
REMARK 921   NORMALIZED FREE ENERGY PREDICTED BY IDOCK:   -1.94 KCAL/MOL
REMARK 922        TOTAL FREE ENERGY PREDICTED BY IDOCK:   -2.49 KCAL/MOL
REMARK 923 INTER-LIGAND FREE ENERGY PREDICTED BY IDOCK:   -2.34 KCAL/MOL
REMARK 924 INTRA-LIGAND FREE ENERGY PREDICTED BY IDOCK:   -0.15 KCAL/MOL
REMARK 927      BINDING AFFINITY PREDICTED BY RF-SCORE:    0.00 PKD
ROOT
HETATM    1  N   UNL     1     -10.757  16.695  64.990  1.00  0.00    -0.260 N  
HETATM    2  H1  UNL     1     -10.492  15.825  64.529  1.00  0.00     0.000 HD 
HETATM    3  C   UNL     1     -10.165  17.105  66.138  1.00  0.00    -0.334 C  
HETATM    4  H2  UNL     1     -11.490  17.271  64.577  1.00  0.00     0.000 HD 
HETATM    5  O   UNL     1     -10.482  18.146  66.691  1.00  0.00    -0.362 OA 
ENDROOT
BRANCH   3   6
HETATM    6  N   UNL     1      -9.233  16.223  66.591  1.00  0.00    -0.226 N  
HETATM    7  H   UNL     1      -8.913  15.452  66.005  1.00  0.00     0.000 HD 
BRANCH   6   8
HETATM    8  C   UNL     1      -8.715  16.406  67.911  1.00  0.00    -0.179 C  
HETATM    9  N   UNL     1      -8.336  15.161  68.503  1.00  0.00    -0.150 NA 
HETATM   10  C   UNL     1      -7.119  15.252  69.134  1.00  0.00    -0.155 C  
HETATM   11  O   UNL     1      -6.645  14.398  69.861  1.00  0.00    -0.147 OA 
HETATM   12  N   UNL     1      -6.543  16.432  68.806  1.00  0.00    -0.145 NA 
HETATM   13  C   UNL     1      -7.362  17.152  67.989  1.00  0.00    -0.189 C  
HETATM   14  O   UNL     1      -7.053  18.195  67.433  1.00  0.00    -0.194 OA 
ENDBRANCH   6   8
ENDBRANCH   3   6
TORSDOF 2
ENDMDL
MODEL      218
REMARK 921   NORMALIZED FREE ENERGY PREDICTED BY IDOCK:   -1.93 KCAL/MOL
REMARK 922        TOTAL FREE ENERGY PREDICTED BY IDOCK:   -2.48 KCAL/MOL
REMARK 923 INTER-LIGAND FREE ENERGY PREDICTED BY IDOCK:   -2.19 KCAL/MOL
REMARK 924 INTRA-LIGAND FREE ENERGY PREDICTED BY IDOCK:   -0.30 KCAL/MOL
REMARK 927      BINDING AFFINITY PREDICTED BY RF-SCORE:    0.00 PKD
ROOT
HETATM    1  N   UNL     1     -11.209   9.298  68.975  1.00  0.00    -0.442 N  
HETATM    2  H1  UNL     1     -11.660   9.195  69.884  1.00  0.00     0.000 HD 
HETATM    3  C   UNL     1     -10.318   8.388  68.511  1.00  0.00    -0.200 C  
HETATM    4  H2  UNL     1     -11.436  10.108  68.399  1.00  0.00     0.000 HD 
HETATM    5  O   UNL     1      -9.778   8.511  67.423  1.00  0.00    -0.152 OA 
ENDROOT
BRANCH   3   6
HETATM    6  N   UNL     1     -10.089   7.381  69.398  1.00  0.00    -0.181 N  
HETATM    7  H   UNL     1     -10.733   6.594  69.475  1.00  0.00     0.000 HD 
BRANCH   6   8
HETATM    8  C   UNL     1      -8.920   7.457  70.218  1.00  0.00    -0.147 C  
HETATM    9  N   UNL     1      -9.056   8.453  71.233  1.00  0.00    -0.162 NA 
HETATM   10  C   UNL     1      -8.615   7.996  72.451  1.00  0.00    -0.163 C  
HETATM   11  O   UNL     1      -8.456   8.689  73.440  1.00  0.00    -0.385 OA 
HETATM   12  N   UNL     1      -8.399   6.663  72.367  1.00  0.00    -0.107 NA 
HETATM   13  C   UNL     1      -8.658   6.217  71.105  1.00  0.00    -0.125 C  
HETATM   14  O   UNL     1      -8.674   5.043  70.769  1.00  0.00    -0.121 OA 
ENDBRANCH   6   8
ENDBRANCH   3   6
TORSDOF 2
ENDMDL
MODEL      219
REMARK 921   NORMALIZED FREE ENERGY PREDICTED BY IDOCK:   -1.92 KCAL/MOL
REMARK 922        TOTAL FREE ENERGY PREDICTED BY IDOCK:   -2.47 KCAL/MOL
REMARK 923 INTER-LIGAND FREE ENERGY PREDICTED BY IDOCK:   -2.30 KCAL/MOL
REMARK 924 INTRA-LIGAND FREE ENERGY PREDICTED BY IDOCK:   -0.17 KCAL/MOL
REMARK 927      BINDING AFFINITY PREDICTED BY RF-SCORE:    0.00 PKD
ROOT
HETATM    1  N   UNL     1      -7.571   5.789  73.515  1.00  0.00    -0.101 N  
HETATM    2  H1  UNL     1      -7.392   5.124  72.762  1.00  0.00     0.000 HD 
HETATM    3  C   UNL     1      -8.770   6.406  73.656  1.00  0.00    -0.123 C  
HETATM    4  H2  UNL     1      -6.826   5.995  74.181  1.00  0.00     0.000 HD 
HETATM    5  O   UNL     1      -8.984   7.201  74.557  1.00  0.00    -0.205 OA 
ENDROOT
BRANCH   3   6
HETATM    6  N   UNL     1      -9.654   6.060  72.680  1.00  0.00    -0.150 N  
HETATM    7  H   UNL     1     -10.290   5.273  72.804  1.00  0.00     0.000 HD 
BRANCH   6   8
HETATM    8  C   UNL     1      -9.665   6.832  71.476  1.00  0.00    -0.163 C  
HETATM    9  N   UNL     1      -9.979   6.025  70.339  1.00  0.00    -0.178 NA 
HETATM   10  C   UNL     1     -10.887   6.644  69.516  1.00  0.00    -0.289 C  
HETATM   11  O   UNL     1     -11.193   6.261  68.401  1.00  0.00    -0.335 OA 
HETATM   12  N   UNL     1     -11.381   7.733  70.150  1.00  0.00    -0.176 NA 
HETATM   13  C   UNL     1     -10.802   7.875  71.375  1.00  0.00    -0.226 C  
HETATM   14  O   UNL     1     -11.142   8.691  72.218  1.00  0.00    -0.354 OA 
ENDBRANCH   6   8
ENDBRANCH   3   6
TORSDOF 2
ENDMDL
MODEL      220
REMARK 921   NORMALIZED FREE ENERGY PREDICTED BY IDOCK:   -1.89 KCAL/MOL
REMARK 922        TOTAL FREE ENERGY PREDICTED BY IDOCK:   -2.44 KCAL/MOL
REMARK 923 INTER-LIGAND FREE ENERGY PREDICTED BY IDOCK:   -2.15 KCAL/MOL
REMARK 924 INTRA-LIGAND FREE ENERGY PREDICTED BY IDOCK:   -0.29 KCAL/MOL
REMARK 927      BINDING AFFINITY PREDICTED BY RF-SCORE:    0.00 PKD
ROOT
HETATM    1  N   UNL     1     -10.497  11.508  67.964  1.00  0.00    -0.183 N  
HETATM    2  H1  UNL     1      -9.511  11.351  67.753  1.00  0.00     0.000 HD 
HETATM    3  C   UNL     1     -11.197  10.675  68.773  1.00  0.00    -0.279 C  
HETATM    4  H2  UNL     1     -10.969  12.313  67.554  1.00  0.00     0.000 HD 
HETATM    5  O   UNL     1     -12.377  10.862  69.025  1.00  0.00    -0.464 OA 
ENDROOT
BRANCH   3   6
HETATM    6  N   UNL     1     -10.450   9.629  69.218  1.00  0.00    -0.208 N  
HETATM    7  H   UNL     1      -9.974   9.670  70.120  1.00  0.00     0.000 HD 
BRANCH   6   8
HETATM    8  C   UNL     1     -10.349   8.468  68.389  1.00  0.00    -0.202 C  
HETATM    9  N   UNL     1      -9.364   8.637  67.368  1.00  0.00    -0.141 NA 
HETATM   10  C   UNL     1      -8.573   7.521  67.240  1.00  0.00    -0.118 C  
HETATM   11  O   UNL     1      -7.777   7.330  66.339  1.00  0.00    -0.089 OA 
HETATM   12  N   UNL     1      -8.822   6.688  68.277  1.00  0.00    -0.124 NA 
HETATM   13  C   UNL     1      -9.787   7.208  69.086  1.00  0.00    -0.160 C  
HETATM   14  O   UNL     1     -10.124   6.739  70.162  1.00  0.00    -0.177 OA 
ENDBRANCH   6   8
ENDBRANCH   3   6
TORSDOF 2
ENDMDL
MODEL      221
REMARK 921   NORMALIZED FREE ENERGY PREDICTED BY IDOCK:   -1.89 KCAL/MOL
REMARK 922        TOTAL FREE ENERGY PREDICTED BY IDOCK:   -2.44 KCAL/MOL
REMARK 923 INTER-LIGAND FREE ENERGY PREDICTED BY IDOCK:   -3.02 KCAL/MOL
REMARK 924 INTRA-LIGAND FREE ENERGY PREDICTED BY IDOCK:    0.58 KCAL/MOL
REMARK 927      BINDING AFFINITY PREDICTED BY RF-SCORE:    0.00 PKD
ROOT
HETATM    1  N   UNL     1     -10.895  13.148  66.876  1.00  0.00    -0.263 N  
HETATM    2  H1  UNL     1     -10.733  12.770  67.809  1.00  0.00     0.000 HD 
HETATM    3  C   UNL     1     -11.494  14.349  66.685  1.00  0.00    -0.363 C  
HETATM    4  H2  UNL     1     -10.598  12.607  66.064  1.00  0.00     0.000 HD 
HETATM    5  O   UNL     1     -11.689  14.802  65.568  1.00  0.00    -0.342 OA 
ENDROOT
BRANCH   3   6
HETATM    6  N   UNL     1     -11.866  14.940  67.853  1.00  0.00    -0.481 N  
HETATM    7  H   UNL     1     -12.807  15.314  67.976  1.00  0.00     0.000 HD 
BRANCH   6   8
HETATM    8  C   UNL     1     -10.900  15.023  68.905  1.00  0.00    -0.243 C  
HETATM    9  N   UNL     1      -9.783  14.166  68.660  1.00  0.00    -0.219 NA 
HETATM   10  C   UNL     1      -8.593  14.799  68.925  1.00  0.00    -0.160 C  
HETATM   11  O   UNL     1      -7.507  14.252  68.968  1.00  0.00    -0.126 OA 
HETATM   12  N   UNL     1      -8.833  16.117  69.119  1.00  0.00    -0.252 NA 
HETATM   13  C   UNL     1     -10.166  16.379  69.018  1.00  0.00    -0.269 C  
HETATM   14  O   UNL     1     -10.660  17.496  69.020  1.00  0.00    -0.306 OA 
ENDBRANCH   6   8
ENDBRANCH   3   6
TORSDOF 2
ENDMDL
MODEL      222
REMARK 921   NORMALIZED FREE ENERGY PREDICTED BY IDOCK:   -1.84 KCAL/MOL
REMARK 922        TOTAL FREE ENERGY PREDICTED BY IDOCK:   -2.39 KCAL/MOL
REMARK 923 INTER-LIGAND FREE ENERGY PREDICTED BY IDOCK:   -2.01 KCAL/MOL
REMARK 924 INTRA-LIGAND FREE ENERGY PREDICTED BY IDOCK:   -0.38 KCAL/MOL
REMARK 927      BINDING AFFINITY PREDICTED BY RF-SCORE:    0.00 PKD
ROOT
HETATM    1  N   UNL     1      -8.289   7.633  66.661  1.00  0.00    -0.123 N  
HETATM    2  H1  UNL     1      -9.223   7.740  66.264  1.00  0.00     0.000 HD 
HETATM    3  C   UNL     1      -7.806   8.487  67.596  1.00  0.00    -0.103 C  
HETATM    4  H2  UNL     1      -7.703   6.861  66.344  1.00  0.00     0.000 HD 
HETATM    5  O   UNL     1      -6.688   8.359  68.070  1.00  0.00    -0.063 OA 
ENDROOT
BRANCH   3   6
HETATM    6  N   UNL     1      -8.682   9.484  67.896  1.00  0.00    -0.120 N  
HETATM    7  H   UNL     1      -8.617  10.395  67.442  1.00  0.00     0.000 HD 
BRANCH   6   8
HETATM    8  C   UNL     1      -9.698   9.220  68.867  1.00  0.00    -0.161 C  
HETATM    9  N   UNL     1     -10.360   7.980  68.610  1.00  0.00    -0.207 NA 
HETATM   10  C   UNL     1     -10.526   7.249  69.761  1.00  0.00    -0.227 C  
HETATM   11  O   UNL     1     -11.206   6.243  69.857  1.00  0.00    -0.366 OA 
HETATM   12  N   UNL     1      -9.809   7.825  70.753  1.00  0.00    -0.181 NA 
HETATM   13  C   UNL     1      -9.184   8.948  70.300  1.00  0.00    -0.185 C  
HETATM   14  O   UNL     1      -8.369   9.598  70.936  1.00  0.00    -0.272 OA 
ENDBRANCH   6   8
ENDBRANCH   3   6
TORSDOF 2
ENDMDL
MODEL      223
REMARK 921   NORMALIZED FREE ENERGY PREDICTED BY IDOCK:   -1.83 KCAL/MOL
REMARK 922        TOTAL FREE ENERGY PREDICTED BY IDOCK:   -2.37 KCAL/MOL
REMARK 923 INTER-LIGAND FREE ENERGY PREDICTED BY IDOCK:   -2.08 KCAL/MOL
REMARK 924 INTRA-LIGAND FREE ENERGY PREDICTED BY IDOCK:   -0.29 KCAL/MOL
REMARK 927      BINDING AFFINITY PREDICTED BY RF-SCORE:    0.00 PKD
ROOT
HETATM    1  N   UNL     1     -10.972   9.435  67.921  1.00  0.00    -0.502 N  
HETATM    2  H1  UNL     1     -10.443   8.659  67.523  1.00  0.00     0.000 HD 
HETATM    3  C   UNL     1     -10.440  10.257  68.859  1.00  0.00    -0.211 C  
HETATM    4  H2  UNL     1     -11.928   9.597  67.605  1.00  0.00     0.000 HD 
HETATM    5  O   UNL     1     -11.072  11.186  69.336  1.00  0.00    -0.229 OA 
ENDROOT
BRANCH   3   6
HETATM    6  N   UNL     1      -9.173   9.902  69.208  1.00  0.00    -0.187 N  
HETATM    7  H   UNL     1      -8.370  10.443  68.888  1.00  0.00     0.000 HD 
BRANCH   6   8
HETATM    8  C   UNL     1      -8.999   8.749  70.036  1.00  0.00    -0.158 C  
HETATM    9  N   UNL     1      -8.816   7.566  69.255  1.00  0.00    -0.136 NA 
HETATM   10  C   UNL     1      -7.795   6.790  69.748  1.00  0.00    -0.115 C  
HETATM   11  O   UNL     1      -7.542   5.656  69.383  1.00  0.00    -0.079 OA 
HETATM   12  N   UNL     1      -7.123   7.495  70.687  1.00  0.00    -0.058 NA 
HETATM   13  C   UNL     1      -7.690   8.722  70.859  1.00  0.00    -0.109 C  
HETATM   14  O   UNL     1      -7.223   9.618  71.545  1.00  0.00    -0.294 OA 
ENDBRANCH   6   8
ENDBRANCH   3   6
TORSDOF 2
ENDMDL
MODEL      224
REMARK 921   NORMALIZED FREE ENERGY PREDICTED BY IDOCK:   -1.81 KCAL/MOL
REMARK 922        TOTAL FREE ENERGY PREDICTED BY IDOCK:   -2.35 KCAL/MOL
REMARK 923 INTER-LIGAND FREE ENERGY PREDICTED BY IDOCK:   -2.22 KCAL/MOL
REMARK 924 INTRA-LIGAND FREE ENERGY PREDICTED BY IDOCK:   -0.12 KCAL/MOL
REMARK 927      BINDING AFFINITY PREDICTED BY RF-SCORE:    0.00 PKD
ROOT
HETATM    1  N   UNL     1      -7.652   5.130  71.652  1.00  0.00    -0.098 N  
HETATM    2  H1  UNL     1      -7.108   5.632  70.950  1.00  0.00     0.000 HD 
HETATM    3  C   UNL     1      -8.740   5.681  72.243  1.00  0.00    -0.132 C  
HETATM    4  H2  UNL     1      -7.369   4.187  71.916  1.00  0.00     0.000 HD 
HETATM    5  O   UNL     1      -9.391   5.080  73.083  1.00  0.00    -0.128 OA 
ENDROOT
BRANCH   3   6
HETATM    6  N   UNL     1      -8.979   6.952  71.819  1.00  0.00    -0.138 N  
HETATM    7  H   UNL     1      -8.215   7.619  71.706  1.00  0.00     0.000 HD 
BRANCH   6   8
HETATM    8  C   UNL     1     -10.329   7.327  71.536  1.00  0.00    -0.201 C  
HETATM    9  N   UNL     1     -10.677   8.556  72.176  1.00  0.00    -0.337 NA 
HETATM   10  C   UNL     1     -11.364   9.390  71.328  1.00  0.00    -0.366 C  
HETATM   11  O   UNL     1     -11.926  10.417  71.662  1.00  0.00    -0.291 OA 
HETATM   12  N   UNL     1     -11.301   8.887  70.073  1.00  0.00    -0.115 NA 
HETATM   13  C   UNL     1     -10.610   7.712  70.065  1.00  0.00    -0.238 C  
HETATM   14  O   UNL     1     -10.286   7.100  69.059  1.00  0.00    -0.178 OA 
ENDBRANCH   6   8
ENDBRANCH   3   6
TORSDOF 2
ENDMDL
MODEL      225
REMARK 921   NORMALIZED FREE ENERGY PREDICTED BY IDOCK:   -1.76 KCAL/MOL
REMARK 922        TOTAL FREE ENERGY PREDICTED BY IDOCK:   -2.30 KCAL/MOL
REMARK 923 INTER-LIGAND FREE ENERGY PREDICTED BY IDOCK:   -2.14 KCAL/MOL
REMARK 924 INTRA-LIGAND FREE ENERGY PREDICTED BY IDOCK:   -0.16 KCAL/MOL
REMARK 927      BINDING AFFINITY PREDICTED BY RF-SCORE:    0.00 PKD
ROOT
HETATM    1  N   UNL     1      -8.214   8.753  65.248  1.00  0.00    -0.135 N  
HETATM    2  H1  UNL     1      -7.433   8.299  65.723  1.00  0.00     0.000 HD 
HETATM    3  C   UNL     1      -9.174   9.423  65.931  1.00  0.00    -0.213 C  
HETATM    4  H2  UNL     1      -8.274   8.699  64.232  1.00  0.00     0.000 HD 
HETATM    5  O   UNL     1     -10.109   9.966  65.363  1.00  0.00    -0.313 OA 
ENDROOT
BRANCH   3   6
HETATM    6  N   UNL     1      -8.984   9.383  67.278  1.00  0.00    -0.130 N  
HETATM    7  H   UNL     1      -8.182   9.844  67.708  1.00  0.00     0.000 HD 
BRANCH   6   8
HETATM    8  C   UNL     1      -9.938   8.676  68.074  1.00  0.00    -0.182 C  
HETATM    9  N   UNL     1      -9.314   8.011  69.174  1.00  0.00    -0.151 NA 
HETATM   10  C   UNL     1     -10.023   8.185  70.337  1.00  0.00    -0.188 C  
HETATM   11  O   UNL     1      -9.813   7.589  71.378  1.00  0.00    -0.177 OA 
HETATM   12  N   UNL     1     -10.975   9.124  70.133  1.00  0.00    -0.239 NA 
HETATM   13  C   UNL     1     -10.941   9.566  68.844  1.00  0.00    -0.086 C  
HETATM   14  O   UNL     1     -11.595  10.500  68.408  1.00  0.00    -0.321 OA 
ENDBRANCH   6   8
ENDBRANCH   3   6
TORSDOF 2
ENDMDL
MODEL      226
REMARK 921   NORMALIZED FREE ENERGY PREDICTED BY IDOCK:   -1.76 KCAL/MOL
REMARK 922        TOTAL FREE ENERGY PREDICTED BY IDOCK:   -2.29 KCAL/MOL
REMARK 923 INTER-LIGAND FREE ENERGY PREDICTED BY IDOCK:   -2.13 KCAL/MOL
REMARK 924 INTRA-LIGAND FREE ENERGY PREDICTED BY IDOCK:   -0.16 KCAL/MOL
REMARK 927      BINDING AFFINITY PREDICTED BY RF-SCORE:    0.00 PKD
ROOT
HETATM    1  N   UNL     1      -7.595   7.810  71.667  1.00  0.00    -0.082 N  
HETATM    2  H1  UNL     1      -6.960   8.323  71.054  1.00  0.00     0.000 HD 
HETATM    3  C   UNL     1      -8.537   6.967  71.177  1.00  0.00    -0.131 C  
HETATM    4  H2  UNL     1      -7.518   7.935  72.676  1.00  0.00     0.000 HD 
HETATM    5  O   UNL     1      -9.296   6.353  71.911  1.00  0.00    -0.153 OA 
ENDROOT
BRANCH   3   6
HETATM    6  N   UNL     1      -8.545   6.925  69.818  1.00  0.00    -0.140 N  
HETATM    7  H   UNL     1      -7.938   6.283  69.309  1.00  0.00     0.000 HD 
BRANCH   6   8
HETATM    8  C   UNL     1      -9.430   7.807  69.120  1.00  0.00    -0.151 C  
HETATM    9  N   UNL     1      -8.810   8.360  67.958  1.00  0.00    -0.141 NA 
HETATM   10  C   UNL     1      -9.656   8.335  66.875  1.00  0.00    -0.207 C  
HETATM   11  O   UNL     1      -9.448   8.895  65.815  1.00  0.00    -0.238 OA 
HETATM   12  N   UNL     1     -10.739   7.584  67.183  1.00  0.00    -0.334 NA 
HETATM   13  C   UNL     1     -10.654   7.127  68.464  1.00  0.00    -0.187 C  
HETATM   14  O   UNL     1     -11.421   6.324  68.972  1.00  0.00    -0.363 OA 
ENDBRANCH   6   8
ENDBRANCH   3   6
TORSDOF 2
ENDMDL
MODEL      227
REMARK 921   NORMALIZED FREE ENERGY PREDICTED BY IDOCK:   -1.76 KCAL/MOL
REMARK 922        TOTAL FREE ENERGY PREDICTED BY IDOCK:   -2.29 KCAL/MOL
REMARK 923 INTER-LIGAND FREE ENERGY PREDICTED BY IDOCK:   -2.01 KCAL/MOL
REMARK 924 INTRA-LIGAND FREE ENERGY PREDICTED BY IDOCK:   -0.28 KCAL/MOL
REMARK 927      BINDING AFFINITY PREDICTED BY RF-SCORE:    0.00 PKD
ROOT
HETATM    1  N   UNL     1      -8.500   3.631  72.963  1.00  0.00    -0.089 N  
HETATM    2  H1  UNL     1      -8.104   4.131  73.759  1.00  0.00     0.000 HD 
HETATM    3  C   UNL     1      -9.663   4.015  72.382  1.00  0.00    -0.151 C  
HETATM    4  H2  UNL     1      -8.005   2.818  72.593  1.00  0.00     0.000 HD 
HETATM    5  O   UNL     1     -10.136   3.416  71.429  1.00  0.00    -0.122 OA 
ENDROOT
BRANCH   3   6
HETATM    6  N   UNL     1     -10.225   5.089  72.999  1.00  0.00    -0.168 N  
HETATM    7  H   UNL     1     -10.733   4.983  73.877  1.00  0.00     0.000 HD 
BRANCH   6   8
HETATM    8  C   UNL     1     -10.086   6.372  72.381  1.00  0.00    -0.176 C  
HETATM    9  N   UNL     1      -9.103   6.351  71.345  1.00  0.00    -0.145 NA 
HETATM   10  C   UNL     1      -9.539   7.012  70.223  1.00  0.00    -0.168 C  
HETATM   11  O   UNL     1      -8.842   7.294  69.264  1.00  0.00    -0.136 OA 
HETATM   12  N   UNL     1     -10.857   7.285  70.360  1.00  0.00    -0.240 NA 
HETATM   13  C   UNL     1     -11.312   6.846  71.567  1.00  0.00    -0.266 C  
HETATM   14  O   UNL     1     -12.484   6.841  71.912  1.00  0.00    -0.346 OA 
ENDBRANCH   6   8
ENDBRANCH   3   6
TORSDOF 2
ENDMDL
MODEL      228
REMARK 921   NORMALIZED FREE ENERGY PREDICTED BY IDOCK:   -1.73 KCAL/MOL
REMARK 922        TOTAL FREE ENERGY PREDICTED BY IDOCK:   -2.26 KCAL/MOL
REMARK 923 INTER-LIGAND FREE ENERGY PREDICTED BY IDOCK:   -2.14 KCAL/MOL
REMARK 924 INTRA-LIGAND FREE ENERGY PREDICTED BY IDOCK:   -0.12 KCAL/MOL
REMARK 927      BINDING AFFINITY PREDICTED BY RF-SCORE:    0.00 PKD
ROOT
HETATM    1  N   UNL     1     -10.869  11.084  67.795  1.00  0.00    -0.229 N  
HETATM    2  H1  UNL     1     -11.419  10.961  68.645  1.00  0.00     0.000 HD 
HETATM    3  C   UNL     1     -10.604  10.052  66.958  1.00  0.00    -0.212 C  
HETATM    4  H2  UNL     1     -10.509  12.011  67.569  1.00  0.00     0.000 HD 
HETATM    5  O   UNL     1      -9.946  10.200  65.940  1.00  0.00    -0.240 OA 
ENDROOT
BRANCH   3   6
HETATM    6  N   UNL     1     -11.118   8.873  67.402  1.00  0.00    -0.342 N  
HETATM    7  H   UNL     1     -12.098   8.637  67.248  1.00  0.00     0.000 HD 
BRANCH   6   8
HETATM    8  C   UNL     1     -10.245   7.973  68.092  1.00  0.00    -0.207 C  
HETATM    9  N   UNL     1      -8.887   8.414  68.037  1.00  0.00    -0.141 NA 
HETATM   10  C   UNL     1      -8.271   8.303  69.260  1.00  0.00    -0.118 C  
HETATM   11  O   UNL     1      -7.078   8.443  69.454  1.00  0.00    -0.053 OA 
HETATM   12  N   UNL     1      -9.206   8.024  70.197  1.00  0.00    -0.152 NA 
HETATM   13  C   UNL     1     -10.438   7.916  69.625  1.00  0.00    -0.226 C  
HETATM   14  O   UNL     1     -11.486   7.798  70.241  1.00  0.00    -0.223 OA 
ENDBRANCH   6   8
ENDBRANCH   3   6
TORSDOF 2
ENDMDL
MODEL      229
REMARK 921   NORMALIZED FREE ENERGY PREDICTED BY IDOCK:   -1.71 KCAL/MOL
REMARK 922        TOTAL FREE ENERGY PREDICTED BY IDOCK:   -2.24 KCAL/MOL
REMARK 923 INTER-LIGAND FREE ENERGY PREDICTED BY IDOCK:   -2.18 KCAL/MOL
REMARK 924 INTRA-LIGAND FREE ENERGY PREDICTED BY IDOCK:   -0.07 KCAL/MOL
REMARK 927      BINDING AFFINITY PREDICTED BY RF-SCORE:    0.00 PKD
ROOT
HETATM    1  N   UNL     1     -12.394   5.643  72.811  1.00  0.00    -0.464 N  
HETATM    2  H1  UNL     1     -12.562   6.649  72.798  1.00  0.00     0.000 HD 
HETATM    3  C   UNL     1     -11.256   5.114  73.321  1.00  0.00    -0.321 C  
HETATM    4  H2  UNL     1     -13.104   5.018  72.428  1.00  0.00     0.000 HD 
HETATM    5  O   UNL     1     -11.055   3.909  73.336  1.00  0.00    -0.229 OA 
ENDROOT
BRANCH   3   6
HETATM    6  N   UNL     1     -10.389   6.065  73.763  1.00  0.00    -0.247 N  
HETATM    7  H   UNL     1     -10.527   6.522  74.664  1.00  0.00     0.000 HD 
BRANCH   6   8
HETATM    8  C   UNL     1      -9.278   6.406  72.929  1.00  0.00    -0.136 C  
HETATM    9  N   UNL     1      -8.430   5.279  72.698  1.00  0.00    -0.117 NA 
HETATM   10  C   UNL     1      -8.060   5.188  71.379  1.00  0.00    -0.114 C  
HETATM   11  O   UNL     1      -7.210   4.433  70.943  1.00  0.00    -0.039 OA 
HETATM   12  N   UNL     1      -8.797   6.063  70.656  1.00  0.00    -0.141 NA 
HETATM   13  C   UNL     1      -9.638   6.764  71.468  1.00  0.00    -0.163 C  
HETATM   14  O   UNL     1     -10.508   7.528  71.080  1.00  0.00    -0.206 OA 
ENDBRANCH   6   8
ENDBRANCH   3   6
TORSDOF 2
ENDMDL
MODEL      230
REMARK 921   NORMALIZED FREE ENERGY PREDICTED BY IDOCK:   -1.69 KCAL/MOL
REMARK 922        TOTAL FREE ENERGY PREDICTED BY IDOCK:   -2.22 KCAL/MOL
REMARK 923 INTER-LIGAND FREE ENERGY PREDICTED BY IDOCK:   -1.99 KCAL/MOL
REMARK 924 INTRA-LIGAND FREE ENERGY PREDICTED BY IDOCK:   -0.23 KCAL/MOL
REMARK 927      BINDING AFFINITY PREDICTED BY RF-SCORE:    0.00 PKD
ROOT
HETATM    1  N   UNL     1      -7.512  10.471  64.476  1.00  0.00    -0.342 N  
HETATM    2  H1  UNL     1      -8.407  10.843  64.794  1.00  0.00     0.000 HD 
HETATM    3  C   UNL     1      -6.876   9.472  65.137  1.00  0.00    -0.092 C  
HETATM    4  H2  UNL     1      -7.083  10.862  63.638  1.00  0.00     0.000 HD 
HETATM    5  O   UNL     1      -5.805   9.027  64.757  1.00  0.00    -0.062 OA 
ENDROOT
BRANCH   3   6
HETATM    6  N   UNL     1      -7.547   9.074  66.252  1.00  0.00    -0.091 N  
HETATM    7  H   UNL     1      -7.130   9.173  67.178  1.00  0.00     0.000 HD 
BRANCH   6   8
HETATM    8  C   UNL     1      -8.852   8.512  66.091  1.00  0.00    -0.167 C  
HETATM    9  N   UNL     1      -9.076   7.436  67.004  1.00  0.00    -0.131 NA 
HETATM   10  C   UNL     1     -10.317   7.518  67.586  1.00  0.00    -0.229 C  
HETATM   11  O   UNL     1     -10.829   6.645  68.263  1.00  0.00    -0.238 OA 
HETATM   12  N   UNL     1     -10.861   8.721  67.289  1.00  0.00    -0.128 NA 
HETATM   13  C   UNL     1     -10.021   9.441  66.493  1.00  0.00    -0.269 C  
HETATM   14  O   UNL     1     -10.191  10.607  66.173  1.00  0.00    -0.239 OA 
ENDBRANCH   6   8
ENDBRANCH   3   6
TORSDOF 2
ENDMDL
MODEL      231
REMARK 921   NORMALIZED FREE ENERGY PREDICTED BY IDOCK:   -1.69 KCAL/MOL
REMARK 922        TOTAL FREE ENERGY PREDICTED BY IDOCK:   -2.21 KCAL/MOL
REMARK 923 INTER-LIGAND FREE ENERGY PREDICTED BY IDOCK:   -2.11 KCAL/MOL
REMARK 924 INTRA-LIGAND FREE ENERGY PREDICTED BY IDOCK:   -0.10 KCAL/MOL
REMARK 927      BINDING AFFINITY PREDICTED BY RF-SCORE:    0.00 PKD
ROOT
HETATM    1  N   UNL     1      -8.806   9.293  68.611  1.00  0.00    -0.131 N  
HETATM    2  H1  UNL     1      -7.788   9.351  68.572  1.00  0.00     0.000 HD 
HETATM    3  C   UNL     1      -9.576  10.388  68.825  1.00  0.00    -0.177 C  
HETATM    4  H2  UNL     1      -9.256   8.387  68.487  1.00  0.00     0.000 HD 
HETATM    5  O   UNL     1     -10.795  10.320  68.872  1.00  0.00    -0.206 OA 
ENDROOT
BRANCH   3   6
HETATM    6  N   UNL     1      -8.841  11.518  69.006  1.00  0.00    -0.379 N  
HETATM    7  H   UNL     1      -8.555  11.814  69.939  1.00  0.00     0.000 HD 
BRANCH   6   8
HETATM    8  C   UNL     1      -8.479  12.281  67.852  1.00  0.00    -0.165 C  
HETATM    9  N   UNL     1      -9.557  13.107  67.409  1.00  0.00    -0.213 NA 
HETATM   10  C   UNL     1      -9.127  14.374  67.099  1.00  0.00    -0.227 C  
HETATM   11  O   UNL     1      -9.799  15.221  66.538  1.00  0.00    -0.244 OA 
HETATM   12  N   UNL     1      -7.851  14.520  67.525  1.00  0.00    -0.180 NA 
HETATM   13  C   UNL     1      -7.402  13.365  68.091  1.00  0.00    -0.117 C  
HETATM   14  O   UNL     1      -6.336  13.241  68.675  1.00  0.00    -0.076 OA 
ENDBRANCH   6   8
ENDBRANCH   3   6
TORSDOF 2
ENDMDL
MODEL      232
REMARK 921   NORMALIZED FREE ENERGY PREDICTED BY IDOCK:   -1.68 KCAL/MOL
REMARK 922        TOTAL FREE ENERGY PREDICTED BY IDOCK:   -2.21 KCAL/MOL
REMARK 923 INTER-LIGAND FREE ENERGY PREDICTED BY IDOCK:   -2.13 KCAL/MOL
REMARK 924 INTRA-LIGAND FREE ENERGY PREDICTED BY IDOCK:   -0.08 KCAL/MOL
REMARK 927      BINDING AFFINITY PREDICTED BY RF-SCORE:    0.00 PKD
ROOT
HETATM    1  N   UNL     1      -9.293   8.579  66.319  1.00  0.00    -0.209 N  
HETATM    2  H1  UNL     1      -8.918   9.426  66.746  1.00  0.00     0.000 HD 
HETATM    3  C   UNL     1     -10.175   7.781  66.968  1.00  0.00    -0.305 C  
HETATM    4  H2  UNL     1      -8.995   8.326  65.377  1.00  0.00     0.000 HD 
HETATM    5  O   UNL     1     -10.624   6.767  66.456  1.00  0.00    -0.157 OA 
ENDROOT
BRANCH   3   6
HETATM    6  N   UNL     1     -10.455   8.223  68.224  1.00  0.00    -0.321 N  
HETATM    7  H   UNL     1     -11.014   9.063  68.371  1.00  0.00     0.000 HD 
BRANCH   6   8
HETATM    8  C   UNL     1      -9.944   7.477  69.332  1.00  0.00    -0.178 C  
HETATM    9  N   UNL     1     -10.592   6.209  69.453  1.00  0.00    -0.252 NA 
HETATM   10  C   UNL     1      -9.688   5.203  69.695  1.00  0.00    -0.185 C  
HETATM   11  O   UNL     1      -9.981   4.063  70.010  1.00  0.00    -0.190 OA 
HETATM   12  N   UNL     1      -8.437   5.686  69.517  1.00  0.00    -0.109 NA 
HETATM   13  C   UNL     1      -8.478   7.007  69.188  1.00  0.00    -0.129 C  
HETATM   14  O   UNL     1      -7.513   7.672  68.845  1.00  0.00    -0.091 OA 
ENDBRANCH   6   8
ENDBRANCH   3   6
TORSDOF 2
ENDMDL
MODEL      233
REMARK 921   NORMALIZED FREE ENERGY PREDICTED BY IDOCK:   -1.63 KCAL/MOL
REMARK 922        TOTAL FREE ENERGY PREDICTED BY IDOCK:   -2.15 KCAL/MOL
REMARK 923 INTER-LIGAND FREE ENERGY PREDICTED BY IDOCK:   -1.84 KCAL/MOL
REMARK 924 INTRA-LIGAND FREE ENERGY PREDICTED BY IDOCK:   -0.31 KCAL/MOL
REMARK 927      BINDING AFFINITY PREDICTED BY RF-SCORE:    0.00 PKD
ROOT
HETATM    1  N   UNL     1      -8.423   8.649  64.972  1.00  0.00    -0.184 N  
HETATM    2  H1  UNL     1      -9.430   8.794  64.892  1.00  0.00     0.000 HD 
HETATM    3  C   UNL     1      -7.862   8.118  66.086  1.00  0.00    -0.092 C  
HETATM    4  H2  UNL     1      -7.822   8.912  64.191  1.00  0.00     0.000 HD 
HETATM    5  O   UNL     1      -6.657   7.946  66.181  1.00  0.00    -0.048 OA 
ENDROOT
BRANCH   3   6
HETATM    6  N   UNL     1      -8.778   7.848  67.055  1.00  0.00    -0.126 N  
HETATM    7  H   UNL     1      -9.225   6.933  67.112  1.00  0.00     0.000 HD 
BRANCH   6   8
HETATM    8  C   UNL     1      -9.096   8.881  67.991  1.00  0.00    -0.139 C  
HETATM    9  N   UNL     1      -9.787   9.962  67.363  1.00  0.00    -0.172 NA 
HETATM   10  C   UNL     1     -10.856  10.383  68.117  1.00  0.00    -0.264 C  
HETATM   11  O   UNL     1     -11.505  11.391  67.906  1.00  0.00    -0.309 OA 
HETATM   12  N   UNL     1     -11.064   9.494  69.116  1.00  0.00    -0.119 NA 
HETATM   13  C   UNL     1     -10.137   8.496  69.067  1.00  0.00    -0.199 C  
HETATM   14  O   UNL     1     -10.156   7.491  69.761  1.00  0.00    -0.187 OA 
ENDBRANCH   6   8
ENDBRANCH   3   6
TORSDOF 2
ENDMDL
MODEL      234
REMARK 921   NORMALIZED FREE ENERGY PREDICTED BY IDOCK:   -1.62 KCAL/MOL
REMARK 922        TOTAL FREE ENERGY PREDICTED BY IDOCK:   -2.13 KCAL/MOL
REMARK 923 INTER-LIGAND FREE ENERGY PREDICTED BY IDOCK:   -1.95 KCAL/MOL
REMARK 924 INTRA-LIGAND FREE ENERGY PREDICTED BY IDOCK:   -0.19 KCAL/MOL
REMARK 927      BINDING AFFINITY PREDICTED BY RF-SCORE:    0.00 PKD
ROOT
HETATM    1  N   UNL     1     -10.279   5.280  69.173  1.00  0.00    -0.216 N  
HETATM    2  H1  UNL     1     -10.004   4.881  70.070  1.00  0.00     0.000 HD 
HETATM    3  C   UNL     1      -9.585   6.293  68.598  1.00  0.00    -0.123 C  
HETATM    4  H2  UNL     1     -11.099   4.907  68.695  1.00  0.00     0.000 HD 
HETATM    5  O   UNL     1      -9.914   6.772  67.524  1.00  0.00    -0.128 OA 
ENDROOT
BRANCH   3   6
HETATM    6  N   UNL     1      -8.540   6.711  69.362  1.00  0.00    -0.134 N  
HETATM    7  H   UNL     1      -7.579   6.611  69.035  1.00  0.00     0.000 HD 
BRANCH   6   8
HETATM    8  C   UNL     1      -8.825   7.293  70.637  1.00  0.00    -0.148 C  
HETATM    9  N   UNL     1     -10.013   8.085  70.597  1.00  0.00    -0.189 NA 
HETATM   10  C   UNL     1     -10.814   7.848  71.688  1.00  0.00    -0.232 C  
HETATM   11  O   UNL     1     -11.792   8.506  71.992  1.00  0.00    -0.313 OA 
HETATM   12  N   UNL     1     -10.341   6.768  72.352  1.00  0.00    -0.192 NA 
HETATM   13  C   UNL     1      -9.218   6.290  71.745  1.00  0.00    -0.144 C  
HETATM   14  O   UNL     1      -8.650   5.252  72.047  1.00  0.00    -0.128 OA 
ENDBRANCH   6   8
ENDBRANCH   3   6
TORSDOF 2
ENDMDL
MODEL      235
REMARK 921   NORMALIZED FREE ENERGY PREDICTED BY IDOCK:   -1.60 KCAL/MOL
REMARK 922        TOTAL FREE ENERGY PREDICTED BY IDOCK:   -2.11 KCAL/MOL
REMARK 923 INTER-LIGAND FREE ENERGY PREDICTED BY IDOCK:   -1.81 KCAL/MOL
REMARK 924 INTRA-LIGAND FREE ENERGY PREDICTED BY IDOCK:   -0.31 KCAL/MOL
REMARK 927      BINDING AFFINITY PREDICTED BY RF-SCORE:    0.00 PKD
ROOT
HETATM    1  N   UNL     1     -10.935   9.085  67.996  1.00  0.00    -0.492 N  
HETATM    2  H1  UNL     1     -10.714   8.676  67.088  1.00  0.00     0.000 HD 
HETATM    3  C   UNL     1     -10.639   8.451  69.157  1.00  0.00    -0.163 C  
HETATM    4  H2  UNL     1     -11.391   9.996  68.031  1.00  0.00     0.000 HD 
HETATM    5  O   UNL     1     -10.903   8.940  70.244  1.00  0.00    -0.230 OA 
ENDROOT
BRANCH   3   6
HETATM    6  N   UNL     1     -10.064   7.234  68.957  1.00  0.00    -0.181 N  
HETATM    7  H   UNL     1     -10.043   6.536  69.700  1.00  0.00     0.000 HD 
BRANCH   6   8
HETATM    8  C   UNL     1      -9.490   6.961  67.676  1.00  0.00    -0.123 C  
HETATM    9  N   UNL     1      -8.177   7.513  67.562  1.00  0.00    -0.113 NA 
HETATM   10  C   UNL     1      -7.303   6.621  66.988  1.00  0.00    -0.082 C  
HETATM   11  O   UNL     1      -6.175   6.891  66.617  1.00  0.00    -0.038 OA 
HETATM   12  N   UNL     1      -7.900   5.409  66.915  1.00  0.00    -0.100 NA 
HETATM   13  C   UNL     1      -9.171   5.473  67.403  1.00  0.00    -0.110 C  
HETATM   14  O   UNL     1      -9.900   4.509  67.580  1.00  0.00    -0.174 OA 
ENDBRANCH   6   8
ENDBRANCH   3   6
TORSDOF 2
ENDMDL
MODEL      236
REMARK 921   NORMALIZED FREE ENERGY PREDICTED BY IDOCK:   -1.60 KCAL/MOL
REMARK 922        TOTAL FREE ENERGY PREDICTED BY IDOCK:   -2.11 KCAL/MOL
REMARK 923 INTER-LIGAND FREE ENERGY PREDICTED BY IDOCK:   -1.84 KCAL/MOL
REMARK 924 INTRA-LIGAND FREE ENERGY PREDICTED BY IDOCK:   -0.27 KCAL/MOL
REMARK 927      BINDING AFFINITY PREDICTED BY RF-SCORE:    0.00 PKD
ROOT
HETATM    1  N   UNL     1      -7.945   3.705  72.934  1.00  0.00    -0.069 N  
HETATM    2  H1  UNL     1      -7.982   4.057  73.891  1.00  0.00     0.000 HD 
HETATM    3  C   UNL     1      -7.519   4.477  71.904  1.00  0.00    -0.075 C  
HETATM    4  H2  UNL     1      -8.236   2.745  72.747  1.00  0.00     0.000 HD 
HETATM    5  O   UNL     1      -7.474   4.056  70.759  1.00  0.00    -0.040 OA 
ENDROOT
BRANCH   3   6
HETATM    6  N   UNL     1      -7.196   5.739  72.295  1.00  0.00    -0.088 N  
HETATM    7  H   UNL     1      -6.410   5.909  72.922  1.00  0.00     0.000 HD 
BRANCH   6   8
HETATM    8  C   UNL     1      -7.988   6.823  71.801  1.00  0.00    -0.101 C  
HETATM    9  N   UNL     1      -9.358   6.688  72.185  1.00  0.00    -0.142 NA 
HETATM   10  C   UNL     1      -9.876   7.879  72.633  1.00  0.00    -0.252 C  
HETATM   11  O   UNL     1     -11.054   8.088  72.856  1.00  0.00    -0.392 OA 
HETATM   12  N   UNL     1      -8.865   8.765  72.788  1.00  0.00    -0.332 NA 
HETATM   13  C   UNL     1      -7.677   8.202  72.427  1.00  0.00    -0.122 C  
HETATM   14  O   UNL     1      -6.583   8.721  72.582  1.00  0.00    -0.225 OA 
ENDBRANCH   6   8
ENDBRANCH   3   6
TORSDOF 2
ENDMDL
MODEL      237
REMARK 921   NORMALIZED FREE ENERGY PREDICTED BY IDOCK:   -1.59 KCAL/MOL
REMARK 922        TOTAL FREE ENERGY PREDICTED BY IDOCK:   -2.11 KCAL/MOL
REMARK 923 INTER-LIGAND FREE ENERGY PREDICTED BY IDOCK:   -1.85 KCAL/MOL
REMARK 924 INTRA-LIGAND FREE ENERGY PREDICTED BY IDOCK:   -0.26 KCAL/MOL
REMARK 927      BINDING AFFINITY PREDICTED BY RF-SCORE:    0.00 PKD
ROOT
HETATM    1  N   UNL     1      -6.131   8.437  72.953  1.00  0.00    -0.074 N  
HETATM    2  H1  UNL     1      -5.884   7.755  72.235  1.00  0.00     0.000 HD 
HETATM    3  C   UNL     1      -7.250   8.307  73.707  1.00  0.00    -0.131 C  
HETATM    4  H2  UNL     1      -5.520   9.238  73.106  1.00  0.00     0.000 HD 
HETATM    5  O   UNL     1      -7.546   9.123  74.566  1.00  0.00    -0.351 OA 
ENDROOT
BRANCH   3   6
HETATM    6  N   UNL     1      -7.985   7.213  73.371  1.00  0.00    -0.101 N  
HETATM    7  H   UNL     1      -7.863   6.328  73.863  1.00  0.00     0.000 HD 
BRANCH   6   8
HETATM    8  C   UNL     1      -8.933   7.337  72.307  1.00  0.00    -0.131 C  
HETATM    9  N   UNL     1      -8.392   6.880  71.066  1.00  0.00    -0.125 NA 
HETATM   10  C   UNL     1      -9.289   6.096  70.383  1.00  0.00    -0.161 C  
HETATM   11  O   UNL     1      -9.154   5.723  69.232  1.00  0.00    -0.117 OA 
HETATM   12  N   UNL     1     -10.329   5.807  71.199  1.00  0.00    -0.217 NA 
HETATM   13  C   UNL     1     -10.164   6.406  72.412  1.00  0.00    -0.186 C  
HETATM   14  O   UNL     1     -10.877   6.220  73.386  1.00  0.00    -0.258 OA 
ENDBRANCH   6   8
ENDBRANCH   3   6
TORSDOF 2
ENDMDL
MODEL      238
REMARK 921   NORMALIZED FREE ENERGY PREDICTED BY IDOCK:   -1.59 KCAL/MOL
REMARK 922        TOTAL FREE ENERGY PREDICTED BY IDOCK:   -2.11 KCAL/MOL
REMARK 923 INTER-LIGAND FREE ENERGY PREDICTED BY IDOCK:   -1.99 KCAL/MOL
REMARK 924 INTRA-LIGAND FREE ENERGY PREDICTED BY IDOCK:   -0.12 KCAL/MOL
REMARK 927      BINDING AFFINITY PREDICTED BY RF-SCORE:    0.00 PKD
ROOT
HETATM    1  N   UNL     1      -8.072   3.181  72.812  1.00  0.00    -0.070 N  
HETATM    2  H1  UNL     1      -8.218   3.733  73.657  1.00  0.00     0.000 HD 
HETATM    3  C   UNL     1      -8.361   3.667  71.580  1.00  0.00    -0.069 C  
HETATM    4  H2  UNL     1      -7.698   2.236  72.897  1.00  0.00     0.000 HD 
HETATM    5  O   UNL     1      -8.187   3.005  70.569  1.00  0.00    -0.045 OA 
ENDROOT
BRANCH   3   6
HETATM    6  N   UNL     1      -8.882   4.923  71.623  1.00  0.00    -0.129 N  
HETATM    7  H   UNL     1      -8.512   5.623  72.265  1.00  0.00     0.000 HD 
BRANCH   6   8
HETATM    8  C   UNL     1      -9.964   5.236  70.741  1.00  0.00    -0.211 C  
HETATM    9  N   UNL     1     -11.160   5.533  71.464  1.00  0.00    -0.156 NA 
HETATM   10  C   UNL     1     -11.794   6.641  70.955  1.00  0.00    -0.372 C  
HETATM   11  O   UNL     1     -12.912   7.009  71.267  1.00  0.00    -0.378 OA 
HETATM   12  N   UNL     1     -10.972   7.248  70.068  1.00  0.00    -0.257 NA 
HETATM   13  C   UNL     1      -9.805   6.553  69.947  1.00  0.00    -0.167 C  
HETATM   14  O   UNL     1      -8.830   6.931  69.318  1.00  0.00    -0.138 OA 
ENDBRANCH   6   8
ENDBRANCH   3   6
TORSDOF 2
ENDMDL
MODEL      239
REMARK 921   NORMALIZED FREE ENERGY PREDICTED BY IDOCK:   -1.57 KCAL/MOL
REMARK 922        TOTAL FREE ENERGY PREDICTED BY IDOCK:   -2.08 KCAL/MOL
REMARK 923 INTER-LIGAND FREE ENERGY PREDICTED BY IDOCK:   -1.66 KCAL/MOL
REMARK 924 INTRA-LIGAND FREE ENERGY PREDICTED BY IDOCK:   -0.42 KCAL/MOL
REMARK 927      BINDING AFFINITY PREDICTED BY RF-SCORE:    0.00 PKD
ROOT
HETATM    1  N   UNL     1     -11.044   6.220  68.819  1.00  0.00    -0.425 N  
HETATM    2  H1  UNL     1     -11.059   5.465  69.505  1.00  0.00     0.000 HD 
HETATM    3  C   UNL     1     -10.559   7.450  69.119  1.00  0.00    -0.204 C  
HETATM    4  H2  UNL     1     -11.405   6.044  67.881  1.00  0.00     0.000 HD 
HETATM    5  O   UNL     1     -10.542   8.354  68.299  1.00  0.00    -0.192 OA 
ENDROOT
BRANCH   3   6
HETATM    6  N   UNL     1     -10.145   7.548  70.412  1.00  0.00    -0.195 N  
HETATM    7  H   UNL     1     -10.778   7.876  71.141  1.00  0.00     0.000 HD 
BRANCH   6   8
HETATM    8  C   UNL     1      -8.799   7.178  70.719  1.00  0.00    -0.148 C  
HETATM    9  N   UNL     1      -8.346   6.107  69.888  1.00  0.00    -0.126 NA 
HETATM   10  C   UNL     1      -7.076   6.336  69.417  1.00  0.00    -0.073 C  
HETATM   11  O   UNL     1      -6.390   5.516  68.835  1.00  0.00    -0.034 OA 
HETATM   12  N   UNL     1      -6.729   7.613  69.699  1.00  0.00    -0.039 NA 
HETATM   13  C   UNL     1      -7.730   8.241  70.377  1.00  0.00    -0.084 C  
HETATM   14  O   UNL     1      -7.749   9.432  70.650  1.00  0.00    -0.143 OA 
ENDBRANCH   6   8
ENDBRANCH   3   6
TORSDOF 2
ENDMDL
MODEL      240
REMARK 921   NORMALIZED FREE ENERGY PREDICTED BY IDOCK:   -1.56 KCAL/MOL
REMARK 922        TOTAL FREE ENERGY PREDICTED BY IDOCK:   -2.07 KCAL/MOL
REMARK 923 INTER-LIGAND FREE ENERGY PREDICTED BY IDOCK:   -1.82 KCAL/MOL
REMARK 924 INTRA-LIGAND FREE ENERGY PREDICTED BY IDOCK:   -0.25 KCAL/MOL
REMARK 927      BINDING AFFINITY PREDICTED BY RF-SCORE:    0.00 PKD
ROOT
HETATM    1  N   UNL     1     -10.928   8.872  68.384  1.00  0.00    -0.457 N  
HETATM    2  H1  UNL     1     -10.998   8.501  67.436  1.00  0.00     0.000 HD 
HETATM    3  C   UNL     1     -10.662   8.075  69.447  1.00  0.00    -0.159 C  
HETATM    4  H2  UNL     1     -11.063   9.872  68.535  1.00  0.00     0.000 HD 
HETATM    5  O   UNL     1     -10.578   8.519  70.581  1.00  0.00    -0.200 OA 
ENDROOT
BRANCH   3   6
HETATM    6  N   UNL     1     -10.540   6.765  69.101  1.00  0.00    -0.218 N  
HETATM    7  H   UNL     1     -11.320   6.118  69.214  1.00  0.00     0.000 HD 
BRANCH   6   8
HETATM    8  C   UNL     1      -9.287   6.319  68.575  1.00  0.00    -0.121 C  
HETATM    9  N   UNL     1      -9.059   4.938  68.861  1.00  0.00    -0.107 NA 
HETATM   10  C   UNL     1      -8.578   4.268  67.762  1.00  0.00    -0.099 C  
HETATM   11  O   UNL     1      -8.139   3.132  67.775  1.00  0.00    -0.078 OA 
HETATM   12  N   UNL     1      -8.682   5.071  66.679  1.00  0.00    -0.109 NA 
HETATM   13  C   UNL     1      -9.199   6.283  67.031  1.00  0.00    -0.124 C  
HETATM   14  O   UNL     1      -9.523   7.159  66.245  1.00  0.00    -0.153 OA 
ENDBRANCH   6   8
ENDBRANCH   3   6
TORSDOF 2
ENDMDL
MODEL      241
REMARK 921   NORMALIZED FREE ENERGY PREDICTED BY IDOCK:   -1.56 KCAL/MOL
REMARK 922        TOTAL FREE ENERGY PREDICTED BY IDOCK:   -2.07 KCAL/MOL
REMARK 923 INTER-LIGAND FREE ENERGY PREDICTED BY IDOCK:   -1.65 KCAL/MOL
REMARK 924 INTRA-LIGAND FREE ENERGY PREDICTED BY IDOCK:   -0.42 KCAL/MOL
REMARK 927      BINDING AFFINITY PREDICTED BY RF-SCORE:    0.00 PKD
ROOT
HETATM    1  N   UNL     1     -10.920   8.079  67.719  1.00  0.00    -0.497 N  
HETATM    2  H1  UNL     1     -10.654   7.583  66.868  1.00  0.00     0.000 HD 
HETATM    3  C   UNL     1     -10.561   7.636  68.949  1.00  0.00    -0.159 C  
HETATM    4  H2  UNL     1     -11.472   8.934  67.641  1.00  0.00     0.000 HD 
HETATM    5  O   UNL     1     -10.879   8.230  69.966  1.00  0.00    -0.247 OA 
ENDROOT
BRANCH   3   6
HETATM    6  N   UNL     1      -9.859   6.471  68.900  1.00  0.00    -0.133 N  
HETATM    7  H   UNL     1     -10.334   5.570  68.955  1.00  0.00     0.000 HD 
BRANCH   6   8
HETATM    8  C   UNL     1      -8.437   6.545  68.770  1.00  0.00    -0.122 C  
HETATM    9  N   UNL     1      -8.037   7.704  68.037  1.00  0.00    -0.122 NA 
HETATM   10  C   UNL     1      -6.974   8.337  68.635  1.00  0.00    -0.068 C  
HETATM   11  O   UNL     1      -6.329   9.240  68.135  1.00  0.00    -0.053 OA 
HETATM   12  N   UNL     1      -6.777   7.798  69.860  1.00  0.00    -0.041 NA 
HETATM   13  C   UNL     1      -7.668   6.793  70.089  1.00  0.00    -0.101 C  
HETATM   14  O   UNL     1      -7.810   6.214  71.155  1.00  0.00    -0.107 OA 
ENDBRANCH   6   8
ENDBRANCH   3   6
TORSDOF 2
ENDMDL
MODEL      242
REMARK 921   NORMALIZED FREE ENERGY PREDICTED BY IDOCK:   -1.51 KCAL/MOL
REMARK 922        TOTAL FREE ENERGY PREDICTED BY IDOCK:   -2.02 KCAL/MOL
REMARK 923 INTER-LIGAND FREE ENERGY PREDICTED BY IDOCK:   -2.02 KCAL/MOL
REMARK 924 INTRA-LIGAND FREE ENERGY PREDICTED BY IDOCK:    0.00 KCAL/MOL
REMARK 927      BINDING AFFINITY PREDICTED BY RF-SCORE:    0.00 PKD
ROOT
HETATM    1  N   UNL     1      -9.682  11.534  69.073  1.00  0.00    -0.415 N  
HETATM    2  H1  UNL     1     -10.354  11.469  69.838  1.00  0.00     0.000 HD 
HETATM    3  C   UNL     1      -8.558  10.777  69.041  1.00  0.00    -0.138 C  
HETATM    4  H2  UNL     1      -9.862  12.188  68.311  1.00  0.00     0.000 HD 
HETATM    5  O   UNL     1      -7.754  10.855  68.126  1.00  0.00    -0.097 OA 
ENDROOT
BRANCH   3   6
HETATM    6  N   UNL     1      -8.435   9.979  70.136  1.00  0.00    -0.340 N  
HETATM    7  H   UNL     1      -8.432  10.374  71.076  1.00  0.00     0.000 HD 
BRANCH   6   8
HETATM    8  C   UNL     1      -8.308   8.569  69.933  1.00  0.00    -0.123 C  
HETATM    9  N   UNL     1      -8.372   7.853  71.168  1.00  0.00    -0.108 NA 
HETATM   10  C   UNL     1      -9.178   6.745  71.068  1.00  0.00    -0.156 C  
HETATM   11  O   UNL     1      -9.271   5.871  71.910  1.00  0.00    -0.147 OA 
HETATM   12  N   UNL     1      -9.848   6.796  69.893  1.00  0.00    -0.165 NA 
HETATM   13  C   UNL     1      -9.487   7.904  69.186  1.00  0.00    -0.155 C  
HETATM   14  O   UNL     1     -10.019   8.276  68.151  1.00  0.00    -0.177 OA 
ENDBRANCH   6   8
ENDBRANCH   3   6
TORSDOF 2
ENDMDL
MODEL      243
REMARK 921   NORMALIZED FREE ENERGY PREDICTED BY IDOCK:   -1.44 KCAL/MOL
REMARK 922        TOTAL FREE ENERGY PREDICTED BY IDOCK:   -1.94 KCAL/MOL
REMARK 923 INTER-LIGAND FREE ENERGY PREDICTED BY IDOCK:   -1.78 KCAL/MOL
REMARK 924 INTRA-LIGAND FREE ENERGY PREDICTED BY IDOCK:   -0.16 KCAL/MOL
REMARK 927      BINDING AFFINITY PREDICTED BY RF-SCORE:    0.00 PKD
ROOT
HETATM    1  N   UNL     1      -7.813   6.438  69.401  1.00  0.00    -0.103 N  
HETATM    2  H1  UNL     1      -8.106   7.396  69.212  1.00  0.00     0.000 HD 
HETATM    3  C   UNL     1      -8.578   5.586  70.128  1.00  0.00    -0.121 C  
HETATM    4  H2  UNL     1      -6.920   6.111  69.034  1.00  0.00     0.000 HD 
HETATM    5  O   UNL     1      -8.227   4.439  70.355  1.00  0.00    -0.068 OA 
ENDROOT
BRANCH   3   6
HETATM    6  N   UNL     1      -9.722   6.167  70.580  1.00  0.00    -0.172 N  
HETATM    7  H   UNL     1     -10.605   6.042  70.085  1.00  0.00     0.000 HD 
BRANCH   6   8
HETATM    8  C   UNL     1      -9.654   6.956  71.771  1.00  0.00    -0.159 C  
HETATM    9  N   UNL     1      -8.576   6.544  72.613  1.00  0.00    -0.125 NA 
HETATM   10  C   UNL     1      -7.877   7.621  73.102  1.00  0.00    -0.111 C  
HETATM   11  O   UNL     1      -7.028   7.564  73.973  1.00  0.00    -0.086 OA 
HETATM   12  N   UNL     1      -8.283   8.737  72.453  1.00  0.00    -0.390 NA 
HETATM   13  C   UNL     1      -9.263   8.437  71.555  1.00  0.00    -0.196 C  
HETATM   14  O   UNL     1      -9.728   9.220  70.741  1.00  0.00    -0.246 OA 
ENDBRANCH   6   8
ENDBRANCH   3   6
TORSDOF 2
ENDMDL
MODEL      244
REMARK 921   NORMALIZED FREE ENERGY PREDICTED BY IDOCK:   -1.39 KCAL/MOL
REMARK 922        TOTAL FREE ENERGY PREDICTED BY IDOCK:   -1.88 KCAL/MOL
REMARK 923 INTER-LIGAND FREE ENERGY PREDICTED BY IDOCK:   -1.80 KCAL/MOL
REMARK 924 INTRA-LIGAND FREE ENERGY PREDICTED BY IDOCK:   -0.08 KCAL/MOL
REMARK 927      BINDING AFFINITY PREDICTED BY RF-SCORE:    0.00 PKD
ROOT
HETATM    1  N   UNL     1      -7.287   5.501  66.660  1.00  0.00    -0.081 N  
HETATM    2  H1  UNL     1      -8.098   5.197  66.122  1.00  0.00     0.000 HD 
HETATM    3  C   UNL     1      -7.402   6.343  67.717  1.00  0.00    -0.088 C  
HETATM    4  H2  UNL     1      -6.362   5.162  66.395  1.00  0.00     0.000 HD 
HETATM    5  O   UNL     1      -6.431   6.706  68.360  1.00  0.00    -0.045 OA 
ENDROOT
BRANCH   3   6
HETATM    6  N   UNL     1      -8.686   6.738  67.932  1.00  0.00    -0.121 N  
HETATM    7  H   UNL     1      -9.413   6.561  67.239  1.00  0.00     0.000 HD 
BRANCH   6   8
HETATM    8  C   UNL     1      -8.989   7.408  69.159  1.00  0.00    -0.135 C  
HETATM    9  N   UNL     1      -8.962   8.828  69.001  1.00  0.00    -0.137 NA 
HETATM   10  C   UNL     1     -10.036   9.425  69.616  1.00  0.00    -0.197 C  
HETATM   11  O   UNL     1     -10.166  10.623  69.785  1.00  0.00    -0.183 OA 
HETATM   12  N   UNL     1     -10.914   8.466  69.990  1.00  0.00    -0.228 NA 
HETATM   13  C   UNL     1     -10.440   7.231  69.664  1.00  0.00    -0.231 C  
HETATM   14  O   UNL     1     -11.072   6.191  69.765  1.00  0.00    -0.351 OA 
ENDBRANCH   6   8
ENDBRANCH   3   6
TORSDOF 2
ENDMDL
MODEL      245
REMARK 921   NORMALIZED FREE ENERGY PREDICTED BY IDOCK:   -1.32 KCAL/MOL
REMARK 922        TOTAL FREE ENERGY PREDICTED BY IDOCK:   -1.81 KCAL/MOL
REMARK 923 INTER-LIGAND FREE ENERGY PREDICTED BY IDOCK:   -2.35 KCAL/MOL
REMARK 924 INTRA-LIGAND FREE ENERGY PREDICTED BY IDOCK:    0.54 KCAL/MOL
REMARK 927      BINDING AFFINITY PREDICTED BY RF-SCORE:    0.00 PKD
ROOT
HETATM    1  N   UNL     1      -6.131   8.437  72.953  1.00  0.00    -0.074 N  
HETATM    2  H1  UNL     1      -5.886   7.756  72.234  1.00  0.00     0.000 HD 
HETATM    3  C   UNL     1      -7.254   8.312  73.702  1.00  0.00    -0.125 C  
HETATM    4  H2  UNL     1      -5.515   9.233  73.112  1.00  0.00     0.000 HD 
HETATM    5  O   UNL     1      -7.548   9.126  74.563  1.00  0.00    -0.351 OA 
ENDROOT
BRANCH   3   6
HETATM    6  N   UNL     1      -7.995   7.223  73.358  1.00  0.00    -0.102 N  
HETATM    7  H   UNL     1      -7.881   6.336  73.847  1.00  0.00     0.000 HD 
BRANCH   6   8
HETATM    8  C   UNL     1      -8.938   7.358  72.292  1.00  0.00    -0.128 C  
HETATM    9  N   UNL     1     -10.257   7.597  72.785  1.00  0.00    -0.251 NA 
HETATM   10  C   UNL     1     -10.887   8.594  72.080  1.00  0.00    -0.354 C  
HETATM   11  O   UNL     1     -12.067   8.877  72.176  1.00  0.00    -0.358 OA 
HETATM   12  N   UNL     1      -9.981   9.203  71.280  1.00  0.00    -0.302 NA 
HETATM   13  C   UNL     1      -8.758   8.616  71.410  1.00  0.00    -0.204 C  
HETATM   14  O   UNL     1      -7.726   9.034  70.909  1.00  0.00    -0.105 OA 
ENDBRANCH   6   8
ENDBRANCH   3   6
TORSDOF 2
ENDMDL
MODEL      246
REMARK 921   NORMALIZED FREE ENERGY PREDICTED BY IDOCK:   -1.31 KCAL/MOL
REMARK 922        TOTAL FREE ENERGY PREDICTED BY IDOCK:   -1.79 KCAL/MOL
REMARK 923 INTER-LIGAND FREE ENERGY PREDICTED BY IDOCK:   -1.77 KCAL/MOL
REMARK 924 INTRA-LIGAND FREE ENERGY PREDICTED BY IDOCK:   -0.02 KCAL/MOL
REMARK 927      BINDING AFFINITY PREDICTED BY RF-SCORE:    0.00 PKD
ROOT
HETATM    1  N   UNL     1      -9.319   8.115  65.640  1.00  0.00    -0.426 N  
HETATM    2  H1  UNL     1     -10.303   8.114  65.908  1.00  0.00     0.000 HD 
HETATM    3  C   UNL     1      -8.329   7.950  66.552  1.00  0.00    -0.127 C  
HETATM    4  H2  UNL     1      -9.073   8.244  64.659  1.00  0.00     0.000 HD 
HETATM    5  O   UNL     1      -7.151   7.952  66.231  1.00  0.00    -0.062 OA 
ENDROOT
BRANCH   3   6
HETATM    6  N   UNL     1      -8.803   7.824  67.821  1.00  0.00    -0.126 N  
HETATM    7  H   UNL     1      -9.011   6.906  68.214  1.00  0.00     0.000 HD 
BRANCH   6   8
HETATM    8  C   UNL     1      -9.000   9.013  68.590  1.00  0.00    -0.137 C  
HETATM    9  N   UNL     1      -7.805   9.794  68.664  1.00  0.00    -0.080 NA 
HETATM   10  C   UNL     1      -8.061  11.128  68.460  1.00  0.00    -0.146 C  
HETATM   11  O   UNL     1      -7.260  12.027  68.639  1.00  0.00    -0.099 OA 
HETATM   12  N   UNL     1      -9.334  11.268  68.023  1.00  0.00    -0.161 NA 
HETATM   13  C   UNL     1      -9.952  10.055  67.957  1.00  0.00    -0.150 C  
HETATM   14  O   UNL     1     -11.058   9.860  67.478  1.00  0.00    -0.257 OA 
ENDBRANCH   6   8
ENDBRANCH   3   6
TORSDOF 2
ENDMDL
MODEL      247
REMARK 921   NORMALIZED FREE ENERGY PREDICTED BY IDOCK:   -1.24 KCAL/MOL
REMARK 922        TOTAL FREE ENERGY PREDICTED BY IDOCK:   -1.72 KCAL/MOL
REMARK 923 INTER-LIGAND FREE ENERGY PREDICTED BY IDOCK:   -1.43 KCAL/MOL
REMARK 924 INTRA-LIGAND FREE ENERGY PREDICTED BY IDOCK:   -0.28 KCAL/MOL
REMARK 927      BINDING AFFINITY PREDICTED BY RF-SCORE:    0.00 PKD
ROOT
HETATM    1  N   UNL     1      -9.747  11.281  66.871  1.00  0.00    -0.189 N  
HETATM    2  H1  UNL     1     -10.456  10.570  66.687  1.00  0.00     0.000 HD 
HETATM    3  C   UNL     1      -8.434  10.968  66.990  1.00  0.00    -0.141 C  
HETATM    4  H2  UNL     1     -10.036  12.254  66.968  1.00  0.00     0.000 HD 
HETATM    5  O   UNL     1      -7.586  11.819  67.209  1.00  0.00    -0.134 OA 
ENDROOT
BRANCH   3   6
HETATM    6  N   UNL     1      -8.201   9.633  66.871  1.00  0.00    -0.113 N  
HETATM    7  H   UNL     1      -8.124   9.193  65.954  1.00  0.00     0.000 HD 
BRANCH   6   8
HETATM    8  C   UNL     1      -8.067   8.862  68.068  1.00  0.00    -0.106 C  
HETATM    9  N   UNL     1      -9.340   8.566  68.647  1.00  0.00    -0.142 NA 
HETATM   10  C   UNL     1      -9.419   7.255  69.048  1.00  0.00    -0.147 C  
HETATM   11  O   UNL     1     -10.317   6.785  69.723  1.00  0.00    -0.189 OA 
HETATM   12  N   UNL     1      -8.348   6.583  68.564  1.00  0.00    -0.121 NA 
HETATM   13  C   UNL     1      -7.533   7.425  67.868  1.00  0.00    -0.101 C  
HETATM   14  O   UNL     1      -6.562   7.074  67.214  1.00  0.00    -0.048 OA 
ENDBRANCH   6   8
ENDBRANCH   3   6
TORSDOF 2
ENDMDL
MODEL      248
REMARK 921   NORMALIZED FREE ENERGY PREDICTED BY IDOCK:   -1.22 KCAL/MOL
REMARK 922        TOTAL FREE ENERGY PREDICTED BY IDOCK:   -1.69 KCAL/MOL
REMARK 923 INTER-LIGAND FREE ENERGY PREDICTED BY IDOCK:   -1.30 KCAL/MOL
REMARK 924 INTRA-LIGAND FREE ENERGY PREDICTED BY IDOCK:   -0.39 KCAL/MOL
REMARK 927      BINDING AFFINITY PREDICTED BY RF-SCORE:    0.00 PKD
ROOT
HETATM    1  N   UNL     1      -9.520   7.176  69.717  1.00  0.00    -0.150 N  
HETATM    2  H1  UNL     1      -8.585   7.383  69.365  1.00  0.00     0.000 HD 
HETATM    3  C   UNL     1     -10.053   5.931  69.643  1.00  0.00    -0.200 C  
HETATM    4  H2  UNL     1     -10.069   7.926  70.136  1.00  0.00     0.000 HD 
HETATM    5  O   UNL     1     -11.171   5.683  70.064  1.00  0.00    -0.267 OA 
ENDROOT
BRANCH   3   6
HETATM    6  N   UNL     1      -9.223   5.043  69.032  1.00  0.00    -0.108 N  
HETATM    7  H   UNL     1      -9.304   4.852  68.033  1.00  0.00     0.000 HD 
BRANCH   6   8
HETATM    8  C   UNL     1      -8.235   4.384  69.828  1.00  0.00    -0.062 C  
HETATM    9  N   UNL     1      -7.419   5.321  70.533  1.00  0.00    -0.069 NA 
HETATM   10  C   UNL     1      -7.227   4.941  71.839  1.00  0.00    -0.068 C  
HETATM   11  O   UNL     1      -6.439   5.460  72.608  1.00  0.00    -0.055 OA 
HETATM   12  N   UNL     1      -8.058   3.911  72.121  1.00  0.00    -0.082 NA 
HETATM   13  C   UNL     1      -8.787   3.571  71.021  1.00  0.00    -0.083 C  
HETATM   14  O   UNL     1      -9.705   2.765  71.014  1.00  0.00    -0.155 OA 
ENDBRANCH   6   8
ENDBRANCH   3   6
TORSDOF 2
ENDMDL
MODEL      249
REMARK 921   NORMALIZED FREE ENERGY PREDICTED BY IDOCK:   -1.21 KCAL/MOL
REMARK 922        TOTAL FREE ENERGY PREDICTED BY IDOCK:   -1.68 KCAL/MOL
REMARK 923 INTER-LIGAND FREE ENERGY PREDICTED BY IDOCK:   -1.38 KCAL/MOL
REMARK 924 INTRA-LIGAND FREE ENERGY PREDICTED BY IDOCK:   -0.30 KCAL/MOL
REMARK 927      BINDING AFFINITY PREDICTED BY RF-SCORE:    0.00 PKD
ROOT
HETATM    1  N   UNL     1      -6.964   5.079  68.444  1.00  0.00    -0.056 N  
HETATM    2  H1  UNL     1      -6.933   5.929  67.882  1.00  0.00     0.000 HD 
HETATM    3  C   UNL     1      -8.062   4.734  69.160  1.00  0.00    -0.074 C  
HETATM    4  H2  UNL     1      -6.146   4.470  68.467  1.00  0.00     0.000 HD 
HETATM    5  O   UNL     1      -8.100   3.716  69.833  1.00  0.00    -0.053 OA 
ENDROOT
BRANCH   3   6
HETATM    6  N   UNL     1      -9.060   5.654  69.062  1.00  0.00    -0.111 N  
HETATM    7  H   UNL     1     -10.037   5.364  69.009  1.00  0.00     0.000 HD 
BRANCH   6   8
HETATM    8  C   UNL     1      -8.703   7.038  69.034  1.00  0.00    -0.128 C  
HETATM    9  N   UNL     1      -8.736   7.562  67.705  1.00  0.00    -0.123 NA 
HETATM   10  C   UNL     1      -9.352   8.789  67.662  1.00  0.00    -0.137 C  
HETATM   11  O   UNL     1      -9.362   9.531  66.696  1.00  0.00    -0.148 OA 
HETATM   12  N   UNL     1      -9.944   9.024  68.856  1.00  0.00    -0.183 NA 
HETATM   13  C   UNL     1      -9.714   7.991  69.714  1.00  0.00    -0.176 C  
HETATM   14  O   UNL     1     -10.229   7.870  70.814  1.00  0.00    -0.193 OA 
ENDBRANCH   6   8
ENDBRANCH   3   6
TORSDOF 2
ENDMDL
MODEL      250
REMARK 921   NORMALIZED FREE ENERGY PREDICTED BY IDOCK:   -1.20 KCAL/MOL
REMARK 922        TOTAL FREE ENERGY PREDICTED BY IDOCK:   -1.67 KCAL/MOL
REMARK 923 INTER-LIGAND FREE ENERGY PREDICTED BY IDOCK:   -1.53 KCAL/MOL
REMARK 924 INTRA-LIGAND FREE ENERGY PREDICTED BY IDOCK:   -0.13 KCAL/MOL
REMARK 927      BINDING AFFINITY PREDICTED BY RF-SCORE:    0.00 PKD
ROOT
HETATM    1  N   UNL     1      -9.413  10.571  67.009  1.00  0.00    -0.161 N  
HETATM    2  H1  UNL     1      -9.964  10.328  67.833  1.00  0.00     0.000 HD 
HETATM    3  C   UNL     1      -8.396   9.789  66.573  1.00  0.00    -0.124 C  
HETATM    4  H2  UNL     1      -9.634  11.427  66.501  1.00  0.00     0.000 HD 
HETATM    5  O   UNL     1      -7.736  10.080  65.588  1.00  0.00    -0.123 OA 
ENDROOT
BRANCH   3   6
HETATM    6  N   UNL     1      -8.194   8.702  67.365  1.00  0.00    -0.105 N  
HETATM    7  H   UNL     1      -7.261   8.462  67.700  1.00  0.00     0.000 HD 
BRANCH   6   8
HETATM    8  C   UNL     1      -9.328   7.903  67.717  1.00  0.00    -0.140 C  
HETATM    9  N   UNL     1      -9.377   6.698  66.952  1.00  0.00    -0.143 NA 
HETATM   10  C   UNL     1      -9.674   5.612  67.740  1.00  0.00    -0.125 C  
HETATM   11  O   UNL     1      -9.947   4.501  67.323  1.00  0.00    -0.188 OA 
HETATM   12  N   UNL     1      -9.604   5.982  69.040  1.00  0.00    -0.129 NA 
HETATM   13  C   UNL     1      -9.293   7.305  69.143  1.00  0.00    -0.146 C  
HETATM   14  O   UNL     1      -9.039   7.883  70.188  1.00  0.00    -0.151 OA 
ENDBRANCH   6   8
ENDBRANCH   3   6
TORSDOF 2
ENDMDL
MODEL      251
REMARK 921   NORMALIZED FREE ENERGY PREDICTED BY IDOCK:   -1.16 KCAL/MOL
REMARK 922        TOTAL FREE ENERGY PREDICTED BY IDOCK:   -1.62 KCAL/MOL
REMARK 923 INTER-LIGAND FREE ENERGY PREDICTED BY IDOCK:   -1.47 KCAL/MOL
REMARK 924 INTRA-LIGAND FREE ENERGY PREDICTED BY IDOCK:   -0.15 KCAL/MOL
REMARK 927      BINDING AFFINITY PREDICTED BY RF-SCORE:    0.00 PKD
ROOT
HETATM    1  N   UNL     1     -11.428   2.052  63.482  1.00  0.00    -0.296 N  
HETATM    2  H1  UNL     1     -11.335   1.359  64.225  1.00  0.00     0.000 HD 
HETATM    3  C   UNL     1     -10.631   3.147  63.422  1.00  0.00    -0.246 C  
HETATM    4  H2  UNL     1     -12.140   1.916  62.765  1.00  0.00     0.000 HD 
HETATM    5  O   UNL     1     -10.742   3.976  62.533  1.00  0.00    -0.209 OA 
ENDROOT
BRANCH   3   6
HETATM    6  N   UNL     1      -9.753   3.213  64.459  1.00  0.00    -0.177 N  
HETATM    7  H   UNL     1      -9.747   2.498  65.187  1.00  0.00     0.000 HD 
BRANCH   6   8
HETATM    8  C   UNL     1      -8.838   4.311  64.500  1.00  0.00    -0.143 C  
HETATM    9  N   UNL     1      -8.527   4.684  65.844  1.00  0.00    -0.114 NA 
HETATM   10  C   UNL     1      -7.181   4.904  66.008  1.00  0.00    -0.076 C  
HETATM   11  O   UNL     1      -6.670   5.397  66.997  1.00  0.00    -0.058 OA 
HETATM   12  N   UNL     1      -6.530   4.478  64.901  1.00  0.00    -0.035 NA 
HETATM   13  C   UNL     1      -7.415   4.001  63.981  1.00  0.00    -0.070 C  
HETATM   14  O   UNL     1      -7.107   3.435  62.943  1.00  0.00    -0.044 OA 
ENDBRANCH   6   8
ENDBRANCH   3   6
TORSDOF 2
ENDMDL
MODEL      252
REMARK 921   NORMALIZED FREE ENERGY PREDICTED BY IDOCK:   -1.14 KCAL/MOL
REMARK 922        TOTAL FREE ENERGY PREDICTED BY IDOCK:   -1.60 KCAL/MOL
REMARK 923 INTER-LIGAND FREE ENERGY PREDICTED BY IDOCK:   -1.91 KCAL/MOL
REMARK 924 INTRA-LIGAND FREE ENERGY PREDICTED BY IDOCK:    0.31 KCAL/MOL
REMARK 927      BINDING AFFINITY PREDICTED BY RF-SCORE:    0.00 PKD
ROOT
HETATM    1  N   UNL     1     -10.547   9.610  68.140  1.00  0.00    -0.223 N  
HETATM    2  H1  UNL     1     -10.582  10.193  68.976  1.00  0.00     0.000 HD 
HETATM    3  C   UNL     1     -10.502  10.145  66.895  1.00  0.00    -0.222 C  
HETATM    4  H2  UNL     1     -10.546   8.595  68.244  1.00  0.00     0.000 HD 
HETATM    5  O   UNL     1     -10.460   9.447  65.895  1.00  0.00    -0.080 OA 
ENDROOT
BRANCH   3   6
HETATM    6  N   UNL     1     -10.542  11.505  66.909  1.00  0.00    -0.235 N  
HETATM    7  H   UNL     1     -11.383  12.001  67.206  1.00  0.00     0.000 HD 
BRANCH   6   8
HETATM    8  C   UNL     1      -9.374  12.220  66.496  1.00  0.00    -0.230 C  
HETATM    9  N   UNL     1      -9.286  13.494  67.136  1.00  0.00    -0.231 NA 
HETATM   10  C   UNL     1      -8.013  13.745  67.587  1.00  0.00    -0.174 C  
HETATM   11  O   UNL     1      -7.621  14.817  68.010  1.00  0.00    -0.106 OA 
HETATM   12  N   UNL     1      -7.282  12.610  67.490  1.00  0.00    -0.144 NA 
HETATM   13  C   UNL     1      -8.031  11.605  66.954  1.00  0.00    -0.161 C  
HETATM   14  O   UNL     1      -7.676  10.440  66.867  1.00  0.00    -0.106 OA 
ENDBRANCH   6   8
ENDBRANCH   3   6
TORSDOF 2
ENDMDL
MODEL      253
REMARK 921   NORMALIZED FREE ENERGY PREDICTED BY IDOCK:   -1.01 KCAL/MOL
REMARK 922        TOTAL FREE ENERGY PREDICTED BY IDOCK:   -1.46 KCAL/MOL
REMARK 923 INTER-LIGAND FREE ENERGY PREDICTED BY IDOCK:   -1.33 KCAL/MOL
REMARK 924 INTRA-LIGAND FREE ENERGY PREDICTED BY IDOCK:   -0.13 KCAL/MOL
REMARK 927      BINDING AFFINITY PREDICTED BY RF-SCORE:    0.00 PKD
ROOT
HETATM    1  N   UNL     1      -7.427   9.381  67.693  1.00  0.00    -0.087 N  
HETATM    2  H1  UNL     1      -6.636   8.762  67.872  1.00  0.00     0.000 HD 
HETATM    3  C   UNL     1      -8.705   8.997  67.934  1.00  0.00    -0.129 C  
HETATM    4  H2  UNL     1      -7.252  10.315  67.322  1.00  0.00     0.000 HD 
HETATM    5  O   UNL     1      -9.652   9.737  67.720  1.00  0.00    -0.134 OA 
ENDROOT
BRANCH   3   6
HETATM    6  N   UNL     1      -8.789   7.719  68.394  1.00  0.00    -0.131 N  
HETATM    7  H   UNL     1      -9.223   6.987  67.832  1.00  0.00     0.000 HD 
BRANCH   6   8
HETATM    8  C   UNL     1      -8.251   7.430  69.687  1.00  0.00    -0.130 C  
HETATM    9  N   UNL     1      -9.269   7.424  70.689  1.00  0.00    -0.157 NA 
HETATM   10  C   UNL     1      -9.135   6.352  71.538  1.00  0.00    -0.144 C  
HETATM   11  O   UNL     1      -9.757   6.202  72.575  1.00  0.00    -0.157 OA 
HETATM   12  N   UNL     1      -8.214   5.502  71.029  1.00  0.00    -0.117 NA 
HETATM   13  C   UNL     1      -7.703   5.995  69.865  1.00  0.00    -0.092 C  
HETATM   14  O   UNL     1      -6.950   5.386  69.121  1.00  0.00    -0.053 OA 
ENDBRANCH   6   8
ENDBRANCH   3   6
TORSDOF 2
ENDMDL
MODEL      254
REMARK 921   NORMALIZED FREE ENERGY PREDICTED BY IDOCK:   -0.99 KCAL/MOL
REMARK 922        TOTAL FREE ENERGY PREDICTED BY IDOCK:   -1.44 KCAL/MOL
REMARK 923 INTER-LIGAND FREE ENERGY PREDICTED BY IDOCK:   -2.04 KCAL/MOL
REMARK 924 INTRA-LIGAND FREE ENERGY PREDICTED BY IDOCK:    0.60 KCAL/MOL
REMARK 927      BINDING AFFINITY PREDICTED BY RF-SCORE:    0.00 PKD
ROOT
HETATM    1  N   UNL     1     -11.500   9.720  69.103  1.00  0.00    -0.465 N  
HETATM    2  H1  UNL     1     -12.005  10.374  69.700  1.00  0.00     0.000 HD 
HETATM    3  C   UNL     1     -10.198   9.910  68.774  1.00  0.00    -0.189 C  
HETATM    4  H2  UNL     1     -11.988   8.900  68.743  1.00  0.00     0.000 HD 
HETATM    5  O   UNL     1      -9.593   9.126  68.059  1.00  0.00    -0.143 OA 
ENDROOT
BRANCH   3   6
HETATM    6  N   UNL     1      -9.689  11.058  69.297  1.00  0.00    -0.419 N  
HETATM    7  H   UNL     1     -10.081  11.468  70.144  1.00  0.00     0.000 HD 
BRANCH   6   8
HETATM    8  C   UNL     1      -8.588  11.676  68.624  1.00  0.00    -0.086 C  
HETATM    9  N   UNL     1      -7.389  10.912  68.771  1.00  0.00    -0.095 NA 
HETATM   10  C   UNL     1      -6.711  10.804  67.581  1.00  0.00    -0.069 C  
HETATM   11  O   UNL     1      -5.584  10.360  67.458  1.00  0.00    -0.044 OA 
HETATM   12  N   UNL     1      -7.503  11.263  66.583  1.00  0.00    -0.146 NA 
HETATM   13  C   UNL     1      -8.692  11.704  67.082  1.00  0.00    -0.164 C  
HETATM   14  O   UNL     1      -9.647  12.052  66.405  1.00  0.00    -0.217 OA 
ENDBRANCH   6   8
ENDBRANCH   3   6
TORSDOF 2
ENDMDL
MODEL      255
REMARK 921   NORMALIZED FREE ENERGY PREDICTED BY IDOCK:   -0.65 KCAL/MOL
REMARK 922        TOTAL FREE ENERGY PREDICTED BY IDOCK:   -1.05 KCAL/MOL
REMARK 923 INTER-LIGAND FREE ENERGY PREDICTED BY IDOCK:   -1.34 KCAL/MOL
REMARK 924 INTRA-LIGAND FREE ENERGY PREDICTED BY IDOCK:    0.29 KCAL/MOL
REMARK 927      BINDING AFFINITY PREDICTED BY RF-SCORE:    0.00 PKD
ROOT
HETATM    1  N   UNL     1      -9.576  10.319  68.661  1.00  0.00    -0.161 N  
HETATM    2  H1  UNL     1      -9.479  10.268  69.676  1.00  0.00     0.000 HD 
HETATM    3  C   UNL     1      -8.955   9.439  67.838  1.00  0.00    -0.123 C  
HETATM    4  H2  UNL     1     -10.156  11.053  68.256  1.00  0.00     0.000 HD 
HETATM    5  O   UNL     1      -9.070   9.501  66.624  1.00  0.00    -0.142 OA 
ENDROOT
BRANCH   3   6
HETATM    6  N   UNL     1      -8.191   8.539  68.515  1.00  0.00    -0.122 N  
HETATM    7  H   UNL     1      -7.682   8.811  69.356  1.00  0.00     0.000 HD 
BRANCH   6   8
HETATM    8  C   UNL     1      -8.122   7.201  68.014  1.00  0.00    -0.120 C  
HETATM    9  N   UNL     1      -9.418   6.693  67.694  1.00  0.00    -0.125 NA 
HETATM   10  C   UNL     1      -9.419   6.038  66.487  1.00  0.00    -0.156 C  
HETATM   11  O   UNL     1     -10.340   5.366  66.058  1.00  0.00    -0.152 OA 
HETATM   12  N   UNL     1      -8.242   6.272  65.861  1.00  0.00    -0.122 NA 
HETATM   13  C   UNL     1      -7.436   7.049  66.637  1.00  0.00    -0.081 C  
HETATM   14  O   UNL     1      -6.369   7.524  66.279  1.00  0.00    -0.040 OA 
ENDBRANCH   6   8
ENDBRANCH   3   6
TORSDOF 2
ENDMDL
