MODEL        1
REMARK 921   NORMALIZED FREE ENERGY PREDICTED BY IDOCK:   -8.64 KCAL/MOL
REMARK 922        TOTAL FREE ENERGY PREDICTED BY IDOCK:  -10.81 KCAL/MOL
REMARK 923 INTER-LIGAND FREE ENERGY PREDICTED BY IDOCK:  -10.15 KCAL/MOL
REMARK 924 INTRA-LIGAND FREE ENERGY PREDICTED BY IDOCK:   -0.65 KCAL/MOL
REMARK 927      BINDING AFFINITY PREDICTED BY RF-SCORE:    0.00 PKD
ROOT
HETATM    1  O   UNL     1      -7.713  11.073  65.585  1.00  0.00    -0.346 OA 
HETATM    2  C   UNL     1      -8.770  10.476  66.319  1.00  0.00    -0.151 C  
HETATM    3  H   UNL     1      -6.871  11.015  66.021  1.00  0.00     0.000 HD 
ENDROOT
BRANCH   2   4
HETATM    4  C   UNL     1     -10.132  10.570  65.614  1.00  0.00    -0.268 C  
HETATM    5  O   UNL     1     -11.194  10.607  66.588  1.00  0.00    -0.130 OA 
HETATM    6  C   UNL     1     -11.601  11.873  67.163  1.00  0.00    -0.290 C  
HETATM    7  H   UNL     1     -11.196  11.915  62.831  1.00  0.00     0.000 HD 
HETATM    8  C   UNL     1     -11.766  12.938  66.041  1.00  0.00    -0.404 C  
HETATM    9  O   UNL     1     -11.150  11.251  63.510  1.00  0.00    -0.367 OA 
HETATM   10  O   UNL     1     -12.920  12.630  65.217  1.00  0.00    -0.657 OA 
HETATM   11  C   UNL     1     -10.549  13.019  65.100  1.00  0.00    -0.312 C  
HETATM   12  C   UNL     1     -10.206  11.648  64.513  1.00  0.00    -0.291 C  
HETATM   13  O   UNL     1      -9.411  13.581  65.757  1.00  0.00    -0.491 OA 
HETATM   14  H   UNL     1      -8.660  13.632  65.177  1.00  0.00     0.000 HD 
HETATM   15  H   UNL     1     -13.020  13.279  64.531  1.00  0.00     0.000 HD 
BRANCH   6  16
HETATM   16  C   UNL     1     -10.818  12.257  68.508  1.00  0.00    -0.267 C  
HETATM   17  C   UNL     1     -11.069   8.878  70.304  1.00  0.00    -0.251 A  
HETATM   18  C   UNL     1     -11.165  11.210  69.576  1.00  0.00    -0.341 A  
HETATM   19  C   UNL     1     -10.616   9.915  69.490  1.00  0.00    -0.264 A  
HETATM   20  C   UNL     1     -12.093   9.108  71.211  1.00  0.00    -0.392 A  
HETATM   21  C   UNL     1     -12.613  10.393  71.350  1.00  0.00    -0.434 A  
HETATM   22  O   UNL     1     -13.644  10.576  72.227  1.00  0.00    -0.554 OA 
HETATM   23  C   UNL     1     -12.117  11.463  70.580  1.00  0.00    -0.487 A  
HETATM   24  H   UNL     1     -13.998  11.452  72.321  1.00  0.00     0.000 HD 
HETATM   25  C   UNL     1     -12.543  12.867  70.851  1.00  0.00    -0.270 C  
HETATM   26  O   UNL     1     -13.168  13.136  71.869  1.00  0.00    -0.418 OA 
HETATM   27  C   UNL     1     -12.072  13.961  69.956  1.00  0.00    -0.411 A  
HETATM   28  C   UNL     1     -11.117  13.674  68.975  1.00  0.00    -0.295 A  
HETATM   29  C   UNL     1     -10.499  14.752  68.317  1.00  0.00    -0.241 A  
HETATM   30  C   UNL     1     -10.991  16.057  68.399  1.00  0.00    -0.331 A  
HETATM   31  C   UNL     1     -12.001  16.320  69.320  1.00  0.00     0.051 A  
HETATM   32  H   UNL     1     -13.768  16.506  71.136  1.00  0.00     0.000 HD 
HETATM   33  O   UNL     1     -13.474  15.609  71.026  1.00  0.00    -0.575 OA 
HETATM   34  C   UNL     1     -12.507  15.292  70.119  1.00  0.00    -0.334 A  
BRANCH  30  35
HETATM   35  C   UNL     1     -10.495  17.104  67.436  1.00  0.00    -0.334 C  
HETATM   36  O   UNL     1     -10.099  16.481  66.217  1.00  0.00    -0.300 OA 
HETATM   37  H   UNL     1      -9.786  17.141  65.610  1.00  0.00     0.000 HD 
ENDBRANCH  30  35
ENDBRANCH   6  16
ENDBRANCH   2   4
TORSDOF 3
ENDMDL
MODEL        2
REMARK 921   NORMALIZED FREE ENERGY PREDICTED BY IDOCK:   -8.57 KCAL/MOL
REMARK 922        TOTAL FREE ENERGY PREDICTED BY IDOCK:  -10.73 KCAL/MOL
REMARK 923 INTER-LIGAND FREE ENERGY PREDICTED BY IDOCK:  -10.15 KCAL/MOL
REMARK 924 INTRA-LIGAND FREE ENERGY PREDICTED BY IDOCK:   -0.58 KCAL/MOL
REMARK 927      BINDING AFFINITY PREDICTED BY RF-SCORE:    0.00 PKD
ROOT
HETATM    1  O   UNL     1      -8.893  11.271  64.403  1.00  0.00    -0.383 OA 
HETATM    2  C   UNL     1      -9.902  10.977  65.357  1.00  0.00    -0.251 C  
HETATM    3  H   UNL     1      -8.039  10.930  64.640  1.00  0.00     0.000 HD 
ENDROOT
BRANCH   2   4
HETATM    4  C   UNL     1     -11.284  11.528  64.974  1.00  0.00    -0.157 C  
HETATM    5  O   UNL     1     -12.085  11.725  66.155  1.00  0.00    -0.422 OA 
HETATM    6  C   UNL     1     -11.988  12.969  66.893  1.00  0.00    -0.352 C  
HETATM    7  H   UNL     1     -12.413  13.459  62.591  1.00  0.00     0.000 HD 
HETATM    8  C   UNL     1     -12.043  14.174  65.911  1.00  0.00    -0.426 C  
HETATM    9  O   UNL     1     -12.436  12.726  63.195  1.00  0.00    -0.612 OA 
HETATM   10  O   UNL     1     -13.370  14.300  65.338  1.00  0.00    -0.649 OA 
HETATM   11  C   UNL     1     -11.056  14.043  64.736  1.00  0.00    -0.387 C  
HETATM   12  C   UNL     1     -11.246  12.719  63.994  1.00  0.00    -0.413 C  
HETATM   13  O   UNL     1      -9.700  14.185  65.167  1.00  0.00    -0.568 OA 
HETATM   14  H   UNL     1      -9.091  14.105  64.443  1.00  0.00     0.000 HD 
HETATM   15  H   UNL     1     -13.404  15.036  64.738  1.00  0.00     0.000 HD 
BRANCH   6  16
HETATM   16  C   UNL     1     -10.888  12.948  68.059  1.00  0.00    -0.261 C  
HETATM   17  C   UNL     1     -11.880   9.640  69.727  1.00  0.00     0.141 A  
HETATM   18  C   UNL     1     -11.350  11.952  69.132  1.00  0.00    -0.338 A  
HETATM   19  C   UNL     1     -11.275  10.568  68.880  1.00  0.00    -0.323 A  
HETATM   20  C   UNL     1     -12.588  10.077  70.838  1.00  0.00    -0.424 A  
HETATM   21  C   UNL     1     -12.629  11.438  71.135  1.00  0.00    -0.386 A  
HETATM   22  O   UNL     1     -13.365  11.836  72.215  1.00  0.00    -0.613 OA 
HETATM   23  C   UNL     1     -11.966  12.378  70.322  1.00  0.00    -0.371 A  
HETATM   24  H   UNL     1     -13.393  12.763  72.417  1.00  0.00     0.000 HD 
HETATM   25  C   UNL     1     -11.857  13.809  70.734  1.00  0.00    -0.135 C  
HETATM   26  O   UNL     1     -12.162  14.147  71.871  1.00  0.00    -0.259 OA 
HETATM   27  C   UNL     1     -11.233  14.792  69.806  1.00  0.00    -0.306 A  
HETATM   28  C   UNL     1     -10.621  14.331  68.636  1.00  0.00    -0.254 A  
HETATM   29  C   UNL     1      -9.821  15.229  67.908  1.00  0.00    -0.216 A  
HETATM   30  C   UNL     1      -9.842  16.606  68.144  1.00  0.00    -0.250 A  
HETATM   31  C   UNL     1     -10.523  17.068  69.267  1.00  0.00    -0.293 A  
HETATM   32  H   UNL     1     -11.766  17.596  71.419  1.00  0.00     0.000 HD 
HETATM   33  O   UNL     1     -11.804  16.669  71.213  1.00  0.00    -0.111 OA 
HETATM   34  C   UNL     1     -11.177  16.167  70.111  1.00  0.00    -0.370 A  
BRANCH  30  35
HETATM   35  C   UNL     1      -9.221  17.545  67.143  1.00  0.00    -0.243 C  
HETATM   36  O   UNL     1      -9.449  17.054  65.825  1.00  0.00    -0.518 OA 
HETATM   37  H   UNL     1      -9.058  17.646  65.193  1.00  0.00     0.000 HD 
ENDBRANCH  30  35
ENDBRANCH   6  16
ENDBRANCH   2   4
TORSDOF 3
ENDMDL
MODEL        3
REMARK 921   NORMALIZED FREE ENERGY PREDICTED BY IDOCK:   -8.37 KCAL/MOL
REMARK 922        TOTAL FREE ENERGY PREDICTED BY IDOCK:  -10.50 KCAL/MOL
REMARK 923 INTER-LIGAND FREE ENERGY PREDICTED BY IDOCK:  -10.10 KCAL/MOL
REMARK 924 INTRA-LIGAND FREE ENERGY PREDICTED BY IDOCK:   -0.39 KCAL/MOL
REMARK 927      BINDING AFFINITY PREDICTED BY RF-SCORE:    0.00 PKD
ROOT
HETATM    1  O   UNL     1      -7.848  11.151  65.771  1.00  0.00    -0.352 OA 
HETATM    2  C   UNL     1      -8.887  10.411  66.395  1.00  0.00    -0.147 C  
HETATM    3  H   UNL     1      -7.006  11.053  66.200  1.00  0.00     0.000 HD 
ENDROOT
BRANCH   2   4
HETATM    4  C   UNL     1     -10.249  10.570  65.701  1.00  0.00    -0.246 C  
HETATM    5  O   UNL     1     -11.304  10.598  66.682  1.00  0.00    -0.138 OA 
HETATM    6  C   UNL     1     -11.675  11.852  67.307  1.00  0.00    -0.247 C  
HETATM    7  H   UNL     1     -11.289  12.047  62.978  1.00  0.00     0.000 HD 
HETATM    8  C   UNL     1     -11.816  12.962  66.228  1.00  0.00    -0.416 C  
HETATM    9  O   UNL     1     -11.258  11.357  63.631  1.00  0.00    -0.402 OA 
HETATM   10  O   UNL     1     -12.981  12.717  65.399  1.00  0.00    -0.587 OA 
HETATM   11  C   UNL     1     -10.601  13.046  65.283  1.00  0.00    -0.304 C  
HETATM   12  C   UNL     1     -10.299  11.690  64.643  1.00  0.00    -0.292 C  
HETATM   13  O   UNL     1      -9.445  13.552  65.955  1.00  0.00    -0.479 OA 
HETATM   14  H   UNL     1      -8.696  13.604  65.373  1.00  0.00     0.000 HD 
HETATM   15  H   UNL     1     -13.067  13.395  64.739  1.00  0.00     0.000 HD 
BRANCH   6  16
HETATM   16  C   UNL     1     -10.875  12.162  68.662  1.00  0.00    -0.268 C  
HETATM   17  C   UNL     1     -10.988   8.658  70.215  1.00  0.00    -0.251 A  
HETATM   18  C   UNL     1     -11.168  11.032  69.658  1.00  0.00    -0.345 A  
HETATM   19  C   UNL     1     -10.583   9.764  69.469  1.00  0.00    -0.253 A  
HETATM   20  C   UNL     1     -12.000   8.791  71.155  1.00  0.00    -0.331 A  
HETATM   21  C   UNL     1     -12.554  10.047  71.396  1.00  0.00    -0.415 A  
HETATM   22  O   UNL     1     -13.571  10.134  72.303  1.00  0.00    -0.567 OA 
HETATM   23  C   UNL     1     -12.105  11.183  70.695  1.00  0.00    -0.477 A  
HETATM   24  H   UNL     1     -13.949  10.990  72.467  1.00  0.00     0.000 HD 
HETATM   25  C   UNL     1     -12.567  12.551  71.074  1.00  0.00    -0.256 C  
HETATM   26  O   UNL     1     -13.178  12.726  72.121  1.00  0.00    -0.475 OA 
HETATM   27  C   UNL     1     -12.147  13.719  70.251  1.00  0.00    -0.425 A  
HETATM   28  C   UNL     1     -11.205  13.533  69.234  1.00  0.00    -0.285 A  
HETATM   29  C   UNL     1     -10.633  14.673  68.644  1.00  0.00    -0.252 A  
HETATM   30  C   UNL     1     -11.162  15.954  68.829  1.00  0.00    -0.359 A  
HETATM   31  C   UNL     1     -12.159  16.119  69.786  1.00  0.00     0.019 A  
HETATM   32  H   UNL     1     -13.892  16.120  71.644  1.00  0.00     0.000 HD 
HETATM   33  O   UNL     1     -13.575  15.243  71.464  1.00  0.00    -0.432 OA 
HETATM   34  C   UNL     1     -12.618  15.021  70.518  1.00  0.00    -0.369 A  
BRANCH  30  35
HETATM   35  C   UNL     1     -10.717  17.081  67.935  1.00  0.00    -0.348 C  
HETATM   36  O   UNL     1     -10.413  18.226  68.728  1.00  0.00    -0.403 OA 
HETATM   37  H   UNL     1     -10.132  18.938  68.165  1.00  0.00     0.000 HD 
ENDBRANCH  30  35
ENDBRANCH   6  16
ENDBRANCH   2   4
TORSDOF 3
ENDMDL
MODEL        4
REMARK 921   NORMALIZED FREE ENERGY PREDICTED BY IDOCK:   -8.07 KCAL/MOL
REMARK 922        TOTAL FREE ENERGY PREDICTED BY IDOCK:  -10.14 KCAL/MOL
REMARK 923 INTER-LIGAND FREE ENERGY PREDICTED BY IDOCK:   -9.75 KCAL/MOL
REMARK 924 INTRA-LIGAND FREE ENERGY PREDICTED BY IDOCK:   -0.39 KCAL/MOL
REMARK 927      BINDING AFFINITY PREDICTED BY RF-SCORE:    0.00 PKD
ROOT
HETATM    1  O   UNL     1     -10.151   7.848  65.963  1.00  0.00    -0.430 OA 
HETATM    2  C   UNL     1      -9.769   9.214  66.004  1.00  0.00    -0.287 C  
HETATM    3  H   UNL     1     -10.852   7.671  65.347  1.00  0.00     0.000 HD 
ENDROOT
BRANCH   2   4
HETATM    4  C   UNL     1      -8.634   9.500  67.000  1.00  0.00    -0.128 C  
HETATM    5  O   UNL     1      -8.743  10.845  67.504  1.00  0.00    -0.129 OA 
HETATM    6  C   UNL     1      -9.583  11.119  68.653  1.00  0.00    -0.196 C  
HETATM    7  H   UNL     1      -6.936   7.700  69.135  1.00  0.00     0.000 HD 
HETATM    8  C   UNL     1      -9.315  10.069  69.769  1.00  0.00    -0.202 C  
HETATM    9  O   UNL     1      -7.059   8.374  68.477  1.00  0.00    -0.073 OA 
HETATM   10  O   UNL     1      -7.997  10.267  70.343  1.00  0.00    -0.423 OA 
HETATM   11  C   UNL     1      -9.371   8.616  69.260  1.00  0.00    -0.153 C  
HETATM   12  C   UNL     1      -8.434   8.406  68.069  1.00  0.00    -0.132 C  
HETATM   13  O   UNL     1     -10.705   8.227  68.923  1.00  0.00    -0.368 OA 
HETATM   14  H   UNL     1     -10.740   7.331  68.609  1.00  0.00     0.000 HD 
HETATM   15  H   UNL     1      -7.832   9.626  71.024  1.00  0.00     0.000 HD 
BRANCH   6  16
HETATM   16  C   UNL     1     -11.093  11.503  68.276  1.00  0.00    -0.295 C  
HETATM   17  C   UNL     1     -10.368  13.926  65.393  1.00  0.00    -0.364 A  
HETATM   18  C   UNL     1     -11.063  12.794  67.446  1.00  0.00    -0.312 A  
HETATM   19  C   UNL     1     -10.619  12.756  66.109  1.00  0.00    -0.286 A  
HETATM   20  C   UNL     1     -10.541  15.160  66.002  1.00  0.00    -0.329 A  
HETATM   21  C   UNL     1     -11.032  15.221  67.305  1.00  0.00    -0.327 A  
HETATM   22  O   UNL     1     -11.157  16.452  67.885  1.00  0.00    -0.326 OA 
HETATM   23  C   UNL     1     -11.351  14.048  68.015  1.00  0.00    -0.320 A  
HETATM   24  H   UNL     1     -11.491  16.493  68.773  1.00  0.00     0.000 HD 
HETATM   25  C   UNL     1     -12.042  14.113  69.337  1.00  0.00    -0.328 C  
HETATM   26  O   UNL     1     -12.522  15.169  69.729  1.00  0.00    -0.271 OA 
HETATM   27  C   UNL     1     -12.277  12.857  70.102  1.00  0.00    -0.336 A  
HETATM   28  C   UNL     1     -11.988  11.628  69.501  1.00  0.00    -0.383 A  
HETATM   29  C   UNL     1     -12.451  10.459  70.128  1.00  0.00    -0.247 A  
HETATM   30  C   UNL     1     -12.929  10.455  71.441  1.00  0.00    -0.545 A  
HETATM   31  C   UNL     1     -13.137  11.682  72.066  1.00  0.00    -0.433 A  
HETATM   32  H   UNL     1     -13.490  14.054  72.903  1.00  0.00     0.000 HD 
HETATM   33  O   UNL     1     -13.102  14.045  72.035  1.00  0.00    -0.353 OA 
HETATM   34  C   UNL     1     -12.853  12.871  71.389  1.00  0.00    -0.283 A  
BRANCH  30  35
HETATM   35  C   UNL     1     -13.109   9.148  72.167  1.00  0.00    -0.446 C  
HETATM   36  O   UNL     1     -14.198   9.257  73.080  1.00  0.00    -1.041 OA 
HETATM   37  H   UNL     1     -14.312   8.432  73.538  1.00  0.00     0.000 HD 
ENDBRANCH  30  35
ENDBRANCH   6  16
ENDBRANCH   2   4
TORSDOF 3
ENDMDL
MODEL        5
REMARK 921   NORMALIZED FREE ENERGY PREDICTED BY IDOCK:   -7.84 KCAL/MOL
REMARK 922        TOTAL FREE ENERGY PREDICTED BY IDOCK:   -9.87 KCAL/MOL
REMARK 923 INTER-LIGAND FREE ENERGY PREDICTED BY IDOCK:   -9.45 KCAL/MOL
REMARK 924 INTRA-LIGAND FREE ENERGY PREDICTED BY IDOCK:   -0.41 KCAL/MOL
REMARK 927      BINDING AFFINITY PREDICTED BY RF-SCORE:    0.00 PKD
ROOT
HETATM    1  O   UNL     1     -11.421   6.575  67.825  1.00  0.00    -0.664 OA 
HETATM    2  C   UNL     1     -10.696   7.514  67.046  1.00  0.00    -0.297 C  
HETATM    3  H   UNL     1     -12.222   6.279  67.409  1.00  0.00     0.000 HD 
ENDROOT
BRANCH   2   4
HETATM    4  C   UNL     1      -9.399   7.992  67.719  1.00  0.00    -0.137 C  
HETATM    5  O   UNL     1      -9.133   9.363  67.364  1.00  0.00    -0.126 OA 
HETATM    6  C   UNL     1      -9.723  10.437  68.138  1.00  0.00    -0.151 C  
HETATM    7  H   UNL     1      -7.873   7.306  70.526  1.00  0.00     0.000 HD 
HETATM    8  C   UNL     1      -9.547  10.155  69.657  1.00  0.00    -0.210 C  
HETATM    9  O   UNL     1      -7.931   7.506  69.599  1.00  0.00    -0.119 OA 
HETATM   10  O   UNL     1      -8.152  10.281  70.037  1.00  0.00    -0.325 OA 
HETATM   11  C   UNL     1      -9.998   8.740  70.067  1.00  0.00    -0.187 C  
HETATM   12  C   UNL     1      -9.306   7.668  69.224  1.00  0.00    -0.148 C  
HETATM   13  O   UNL     1     -11.419   8.597  69.991  1.00  0.00    -0.455 OA 
HETATM   14  H   UNL     1     -11.698   7.725  70.244  1.00  0.00     0.000 HD 
HETATM   15  H   UNL     1      -8.044  10.109  70.965  1.00  0.00     0.000 HD 
BRANCH   6  16
HETATM   16  C   UNL     1     -11.145  10.929  67.585  1.00  0.00    -0.376 C  
HETATM   17  C   UNL     1     -10.357  10.866  63.833  1.00  0.00    -0.397 A  
HETATM   18  C   UNL     1     -10.953  11.411  66.140  1.00  0.00    -0.294 A  
HETATM   19  C   UNL     1     -10.750  10.471  65.110  1.00  0.00     0.003 A  
HETATM   20  C   UNL     1     -10.141  12.210  63.560  1.00  0.00    -0.410 A  
HETATM   21  C   UNL     1     -10.388  13.160  64.548  1.00  0.00    -0.368 A  
HETATM   22  O   UNL     1     -10.132  14.470  64.256  1.00  0.00    -0.465 OA 
HETATM   23  C   UNL     1     -10.850  12.777  65.823  1.00  0.00    -0.299 A  
HETATM   24  H   UNL     1     -10.300  15.117  64.930  1.00  0.00     0.000 HD 
HETATM   25  C   UNL     1     -11.285  13.798  66.821  1.00  0.00    -0.316 C  
HETATM   26  O   UNL     1     -11.440  14.965  66.481  1.00  0.00    -0.345 OA 
HETATM   27  C   UNL     1     -11.676  13.363  68.190  1.00  0.00    -0.397 A  
HETATM   28  C   UNL     1     -11.778  11.996  68.467  1.00  0.00    -0.387 A  
HETATM   29  C   UNL     1     -12.390  11.608  69.671  1.00  0.00    -0.172 A  
HETATM   30  C   UNL     1     -12.638  12.512  70.708  1.00  0.00    -0.299 A  
HETATM   31  C   UNL     1     -12.455  13.868  70.451  1.00  0.00    -0.404 A  
HETATM   32  H   UNL     1     -12.114  16.259  69.663  1.00  0.00     0.000 HD 
HETATM   33  O   UNL     1     -11.884  15.633  68.986  1.00  0.00    -0.376 OA 
HETATM   34  C   UNL     1     -12.018  14.292  69.194  1.00  0.00    -0.335 A  
BRANCH  30  35
HETATM   35  C   UNL     1     -12.994  11.999  72.078  1.00  0.00    -0.269 C  
HETATM   36  O   UNL     1     -13.913  12.895  72.698  1.00  0.00    -0.727 OA 
HETATM   37  H   UNL     1     -14.138  12.571  73.563  1.00  0.00     0.000 HD 
ENDBRANCH  30  35
ENDBRANCH   6  16
ENDBRANCH   2   4
TORSDOF 3
ENDMDL
MODEL        6
REMARK 921   NORMALIZED FREE ENERGY PREDICTED BY IDOCK:   -7.74 KCAL/MOL
REMARK 922        TOTAL FREE ENERGY PREDICTED BY IDOCK:   -9.75 KCAL/MOL
REMARK 923 INTER-LIGAND FREE ENERGY PREDICTED BY IDOCK:   -9.37 KCAL/MOL
REMARK 924 INTRA-LIGAND FREE ENERGY PREDICTED BY IDOCK:   -0.38 KCAL/MOL
REMARK 927      BINDING AFFINITY PREDICTED BY RF-SCORE:    0.00 PKD
ROOT
HETATM    1  O   UNL     1      -9.540   9.449  64.419  1.00  0.00    -0.389 OA 
HETATM    2  C   UNL     1      -9.965   9.638  65.759  1.00  0.00    -0.272 C  
HETATM    3  H   UNL     1     -10.259   9.352  63.805  1.00  0.00     0.000 HD 
ENDROOT
BRANCH   2   4
HETATM    4  C   UNL     1      -8.802   9.795  66.752  1.00  0.00    -0.138 C  
HETATM    5  O   UNL     1      -8.802  11.124  67.308  1.00  0.00    -0.142 OA 
HETATM    6  C   UNL     1      -9.607  11.417  68.477  1.00  0.00    -0.189 C  
HETATM    7  H   UNL     1      -7.232   7.786  68.796  1.00  0.00     0.000 HD 
HETATM    8  C   UNL     1      -9.412  10.308  69.548  1.00  0.00    -0.185 C  
HETATM    9  O   UNL     1      -7.308   8.493  68.165  1.00  0.00    -0.088 OA 
HETATM   10  O   UNL     1      -8.077  10.379  70.113  1.00  0.00    -0.359 OA 
HETATM   11  C   UNL     1      -9.586   8.884  68.985  1.00  0.00    -0.158 C  
HETATM   12  C   UNL     1      -8.679   8.648  67.776  1.00  0.00    -0.137 C  
HETATM   13  O   UNL     1     -10.949   8.613  68.649  1.00  0.00    -0.440 OA 
HETATM   14  H   UNL     1     -11.058   7.736  68.302  1.00  0.00     0.000 HD 
HETATM   15  H   UNL     1      -7.957   9.701  70.768  1.00  0.00     0.000 HD 
BRANCH   6  16
HETATM   16  C   UNL     1     -11.086  11.933  68.132  1.00  0.00    -0.294 C  
HETATM   17  C   UNL     1     -10.200  14.393  65.328  1.00  0.00    -0.416 A  
HETATM   18  C   UNL     1     -10.962  13.247  67.348  1.00  0.00    -0.287 A  
HETATM   19  C   UNL     1     -10.535  13.222  66.006  1.00  0.00    -0.289 A  
HETATM   20  C   UNL     1     -10.268  15.615  65.982  1.00  0.00    -0.354 A  
HETATM   21  C   UNL     1     -10.740  15.667  67.292  1.00  0.00    -0.305 A  
HETATM   22  O   UNL     1     -10.761  16.882  67.917  1.00  0.00    -0.347 OA 
HETATM   23  C   UNL     1     -11.144  14.498  67.965  1.00  0.00    -0.289 A  
HETATM   24  H   UNL     1     -11.082  16.917  68.811  1.00  0.00     0.000 HD 
HETATM   25  C   UNL     1     -11.814  14.569  69.297  1.00  0.00    -0.323 C  
HETATM   26  O   UNL     1     -12.205  15.645  69.732  1.00  0.00    -0.360 OA 
HETATM   27  C   UNL     1     -12.140  13.309  70.020  1.00  0.00    -0.385 A  
HETATM   28  C   UNL     1     -11.955  12.084  69.372  1.00  0.00    -0.334 A  
HETATM   29  C   UNL     1     -12.503  10.932  69.963  1.00  0.00    -0.332 A  
HETATM   30  C   UNL     1     -12.966  10.919  71.282  1.00  0.00    -0.492 A  
HETATM   31  C   UNL     1     -13.070  12.135  71.952  1.00  0.00    -0.475 A  
HETATM   32  H   UNL     1     -13.227  14.496  72.877  1.00  0.00     0.000 HD 
HETATM   33  O   UNL     1     -12.849  14.488  72.005  1.00  0.00    -0.313 OA 
HETATM   34  C   UNL     1     -12.700  13.321  71.314  1.00  0.00    -0.323 A  
BRANCH  30  35
HETATM   35  C   UNL     1     -13.242   9.605  71.964  1.00  0.00    -0.453 C  
HETATM   36  O   UNL     1     -12.955   8.534  71.068  1.00  0.00    -0.503 OA 
HETATM   37  H   UNL     1     -13.129   7.705  71.498  1.00  0.00     0.000 HD 
ENDBRANCH  30  35
ENDBRANCH   6  16
ENDBRANCH   2   4
TORSDOF 3
ENDMDL
MODEL        7
REMARK 921   NORMALIZED FREE ENERGY PREDICTED BY IDOCK:   -7.74 KCAL/MOL
REMARK 922        TOTAL FREE ENERGY PREDICTED BY IDOCK:   -9.75 KCAL/MOL
REMARK 923 INTER-LIGAND FREE ENERGY PREDICTED BY IDOCK:   -9.23 KCAL/MOL
REMARK 924 INTRA-LIGAND FREE ENERGY PREDICTED BY IDOCK:   -0.52 KCAL/MOL
REMARK 927      BINDING AFFINITY PREDICTED BY RF-SCORE:    0.00 PKD
ROOT
HETATM    1  O   UNL     1     -11.093   7.097  67.014  1.00  0.00    -0.533 OA 
HETATM    2  C   UNL     1     -10.392   8.254  66.585  1.00  0.00    -0.223 C  
HETATM    3  H   UNL     1     -11.857   6.901  66.485  1.00  0.00     0.000 HD 
ENDROOT
BRANCH   2   4
HETATM    4  C   UNL     1      -9.155   8.570  67.441  1.00  0.00    -0.133 C  
HETATM    5  O   UNL     1      -9.038   9.993  67.636  1.00  0.00    -0.134 OA 
HETATM    6  C   UNL     1      -9.742  10.631  68.731  1.00  0.00    -0.189 C  
HETATM    7  H   UNL     1      -7.566   7.033  69.847  1.00  0.00     0.000 HD 
HETATM    8  C   UNL     1      -9.537   9.817  70.040  1.00  0.00    -0.241 C  
HETATM    9  O   UNL     1      -7.644   7.560  69.061  1.00  0.00    -0.103 OA 
HETATM   10  O   UNL     1      -8.164   9.930  70.496  1.00  0.00    -0.348 OA 
HETATM   11  C   UNL     1      -9.833   8.314  69.871  1.00  0.00    -0.186 C  
HETATM   12  C   UNL     1      -9.028   7.714  68.717  1.00  0.00    -0.133 C  
HETATM   13  O   UNL     1     -11.230   8.069  69.688  1.00  0.00    -0.444 OA 
HETATM   14  H   UNL     1     -11.413   7.143  69.584  1.00  0.00     0.000 HD 
HETATM   15  H   UNL     1      -8.038   9.432  71.296  1.00  0.00     0.000 HD 
BRANCH   6  16
HETATM   16  C   UNL     1     -11.208  11.151  68.344  1.00  0.00    -0.325 C  
HETATM   17  C   UNL     1     -10.314  13.071  65.147  1.00  0.00    -0.321 A  
HETATM   18  C   UNL     1     -11.056  12.310  67.349  1.00  0.00    -0.333 A  
HETATM   19  C   UNL     1     -10.675  12.045  66.019  1.00  0.00    -0.317 A  
HETATM   20  C   UNL     1     -10.310  14.386  65.591  1.00  0.00    -0.360 A  
HETATM   21  C   UNL     1     -10.735  14.675  66.886  1.00  0.00    -0.294 A  
HETATM   22  O   UNL     1     -10.685  15.976  67.301  1.00  0.00    -0.314 OA 
HETATM   23  C   UNL     1     -11.165  13.653  67.754  1.00  0.00    -0.310 A  
HETATM   24  H   UNL     1     -10.974  16.173  68.184  1.00  0.00     0.000 HD 
HETATM   25  C   UNL     1     -11.787  13.974  69.072  1.00  0.00    -0.354 C  
HETATM   26  O   UNL     1     -12.118  15.124  69.332  1.00  0.00    -0.302 OA 
HETATM   27  C   UNL     1     -12.141  12.867  70.003  1.00  0.00    -0.357 A  
HETATM   28  C   UNL     1     -12.029  11.544  69.563  1.00  0.00    -0.402 A  
HETATM   29  C   UNL     1     -12.604  10.533  70.352  1.00  0.00    -0.364 A  
HETATM   30  C   UNL     1     -13.024  10.759  71.666  1.00  0.00    -0.581 A  
HETATM   31  C   UNL     1     -13.055  12.073  72.127  1.00  0.00    -0.352 A  
HETATM   32  H   UNL     1     -13.082  14.558  72.650  1.00  0.00     0.000 HD 
HETATM   33  O   UNL     1     -12.734  14.389  71.782  1.00  0.00    -0.324 OA 
HETATM   34  C   UNL     1     -12.657  13.119  71.292  1.00  0.00    -0.290 A  
BRANCH  30  35
HETATM   35  C   UNL     1     -13.331   9.590  72.563  1.00  0.00    -0.290 C  
HETATM   36  O   UNL     1     -12.362   8.565  72.360  1.00  0.00    -0.374 OA 
HETATM   37  H   UNL     1     -12.556   7.827  72.926  1.00  0.00     0.000 HD 
ENDBRANCH  30  35
ENDBRANCH   6  16
ENDBRANCH   2   4
TORSDOF 3
ENDMDL
MODEL        8
REMARK 921   NORMALIZED FREE ENERGY PREDICTED BY IDOCK:   -7.57 KCAL/MOL
REMARK 922        TOTAL FREE ENERGY PREDICTED BY IDOCK:   -9.55 KCAL/MOL
REMARK 923 INTER-LIGAND FREE ENERGY PREDICTED BY IDOCK:   -9.05 KCAL/MOL
REMARK 924 INTRA-LIGAND FREE ENERGY PREDICTED BY IDOCK:   -0.50 KCAL/MOL
REMARK 927      BINDING AFFINITY PREDICTED BY RF-SCORE:    0.00 PKD
ROOT
HETATM    1  O   UNL     1     -10.482  18.076  66.716  1.00  0.00    -0.354 OA 
HETATM    2  C   UNL     1     -10.776  17.439  67.949  1.00  0.00    -0.351 C  
HETATM    3  H   UNL     1     -11.256  18.328  66.227  1.00  0.00     0.000 HD 
ENDROOT
BRANCH   2   4
HETATM    4  C   UNL     1      -9.522  17.033  68.740  1.00  0.00    -0.263 C  
HETATM    5  O   UNL     1      -9.866  16.064  69.750  1.00  0.00    -0.246 OA 
HETATM    6  C   UNL     1      -9.897  14.654  69.415  1.00  0.00     0.005 C  
HETATM    7  H   UNL     1      -6.344  16.750  68.033  1.00  0.00     0.000 HD 
HETATM    8  C   UNL     1      -8.623  14.271  68.611  1.00  0.00    -0.149 C  
HETATM    9  O   UNL     1      -7.094  16.972  68.573  1.00  0.00    -0.182 OA 
HETATM   10  O   UNL     1      -7.451  14.321  69.464  1.00  0.00    -0.336 OA 
HETATM   11  C   UNL     1      -8.353  15.211  67.420  1.00  0.00    -0.186 C  
HETATM   12  C   UNL     1      -8.305  16.673  67.864  1.00  0.00    -0.185 C  
HETATM   13  O   UNL     1      -9.319  15.034  66.380  1.00  0.00    -0.267 OA 
HETATM   14  H   UNL     1      -9.153  15.613  65.645  1.00  0.00     0.000 HD 
HETATM   15  H   UNL     1      -6.672  14.088  68.973  1.00  0.00     0.000 HD 
BRANCH   6  16
HETATM   16  C   UNL     1     -11.331  14.137  68.919  1.00  0.00    -0.308 C  
HETATM   17  C   UNL     1     -13.490  15.683  71.686  1.00  0.00    -0.522 A  
HETATM   18  C   UNL     1     -12.311  14.248  70.096  1.00  0.00    -0.413 A  
HETATM   19  C   UNL     1     -12.780  15.514  70.498  1.00  0.00    -0.436 A  
HETATM   20  C   UNL     1     -13.733  14.591  72.507  1.00  0.00    -0.580 A  
HETATM   21  C   UNL     1     -13.325  13.322  72.102  1.00  0.00    -0.523 A  
HETATM   22  O   UNL     1     -13.550  12.275  72.951  1.00  0.00    -0.462 OA 
HETATM   23  C   UNL     1     -12.666  13.130  70.872  1.00  0.00    -0.313 A  
HETATM   24  H   UNL     1     -13.272  11.411  72.675  1.00  0.00     0.000 HD 
HETATM   25  C   UNL     1     -12.389  11.758  70.355  1.00  0.00    -0.277 C  
HETATM   26  O   UNL     1     -12.906  10.783  70.886  1.00  0.00    -0.352 OA 
HETATM   27  C   UNL     1     -11.605  11.594  69.099  1.00  0.00    -0.378 A  
HETATM   28  C   UNL     1     -11.278  12.727  68.347  1.00  0.00    -0.313 A  
HETATM   29  C   UNL     1     -10.770  12.538  67.050  1.00  0.00    -0.268 A  
HETATM   30  C   UNL     1     -10.322  11.294  66.599  1.00  0.00    -0.279 A  
HETATM   31  C   UNL     1     -10.577  10.178  67.392  1.00  0.00    -0.329 A  
HETATM   32  H   UNL     1     -11.258   8.336  69.002  1.00  0.00     0.000 HD 
HETATM   33  O   UNL     1     -11.499   9.194  69.333  1.00  0.00     0.100 OA 
HETATM   34  C   UNL     1     -11.247  10.322  68.608  1.00  0.00    -0.208 A  
BRANCH  30  35
HETATM   35  C   UNL     1      -9.503  11.208  65.338  1.00  0.00    -0.222 C  
HETATM   36  O   UNL     1      -9.435  12.493  64.725  1.00  0.00    -0.454 OA 
HETATM   37  H   UNL     1      -8.918  12.439  63.929  1.00  0.00     0.000 HD 
ENDBRANCH  30  35
ENDBRANCH   6  16
ENDBRANCH   2   4
TORSDOF 3
ENDMDL
MODEL        9
REMARK 921   NORMALIZED FREE ENERGY PREDICTED BY IDOCK:   -7.42 KCAL/MOL
REMARK 922        TOTAL FREE ENERGY PREDICTED BY IDOCK:   -9.38 KCAL/MOL
REMARK 923 INTER-LIGAND FREE ENERGY PREDICTED BY IDOCK:   -8.96 KCAL/MOL
REMARK 924 INTRA-LIGAND FREE ENERGY PREDICTED BY IDOCK:   -0.42 KCAL/MOL
REMARK 927      BINDING AFFINITY PREDICTED BY RF-SCORE:    0.00 PKD
ROOT
HETATM    1  O   UNL     1      -7.335  10.757  64.527  1.00  0.00    -0.350 OA 
HETATM    2  C   UNL     1      -8.357  10.889  65.503  1.00  0.00    -0.079 C  
HETATM    3  H   UNL     1      -6.462  10.719  64.898  1.00  0.00     0.000 HD 
ENDROOT
BRANCH   2   4
HETATM    4  C   UNL     1      -9.770  10.952  64.902  1.00  0.00    -0.266 C  
HETATM    5  O   UNL     1     -10.744  10.543  65.883  1.00  0.00    -0.122 OA 
HETATM    6  C   UNL     1     -11.285  11.515  66.811  1.00  0.00    -0.285 C  
HETATM    7  H   UNL     1     -11.239  12.822  62.661  1.00  0.00     0.000 HD 
HETATM    8  C   UNL     1     -11.694  12.807  66.047  1.00  0.00    -0.418 C  
HETATM    9  O   UNL     1     -11.042  12.013  63.119  1.00  0.00    -0.329 OA 
HETATM   10  O   UNL     1     -12.852  12.556  65.211  1.00  0.00    -0.613 OA 
HETATM   11  C   UNL     1     -10.581  13.344  65.127  1.00  0.00    -0.343 C  
HETATM   12  C   UNL     1     -10.089  12.266  64.160  1.00  0.00    -0.302 C  
HETATM   13  O   UNL     1      -9.489  13.881  65.877  1.00  0.00    -0.485 OA 
HETATM   14  H   UNL     1      -8.803  14.212  65.310  1.00  0.00     0.000 HD 
HETATM   15  H   UNL     1     -13.102  13.344  64.744  1.00  0.00     0.000 HD 
BRANCH   6  16
HETATM   16  C   UNL     1     -10.462  11.633  68.181  1.00  0.00    -0.217 C  
HETATM   17  C   UNL     1      -9.889   7.898  68.833  1.00  0.00    -0.174 A  
HETATM   18  C   UNL     1     -10.497  10.266  68.877  1.00  0.00    -0.231 A  
HETATM   19  C   UNL     1      -9.723   9.203  68.371  1.00  0.00    -0.166 A  
HETATM   20  C   UNL     1     -10.845   7.623  69.800  1.00  0.00    -0.222 A  
HETATM   21  C   UNL     1     -11.583   8.668  70.353  1.00  0.00    -0.078 A  
HETATM   22  O   UNL     1     -12.540   8.356  71.278  1.00  0.00    -0.380 OA 
HETATM   23  C   UNL     1     -11.377   9.999  69.942  1.00  0.00    -0.306 A  
HETATM   24  H   UNL     1     -13.043   9.068  71.654  1.00  0.00     0.000 HD 
HETATM   25  C   UNL     1     -12.034  11.134  70.654  1.00  0.00    -0.360 C  
HETATM   26  O   UNL     1     -12.596  10.945  71.726  1.00  0.00    -0.353 OA 
HETATM   27  C   UNL     1     -11.869  12.519  70.132  1.00  0.00    -0.336 A  
HETATM   28  C   UNL     1     -10.978  12.748  69.079  1.00  0.00    -0.241 A  
HETATM   29  C   UNL     1     -10.643  14.079  68.772  1.00  0.00    -0.260 A  
HETATM   30  C   UNL     1     -11.364  15.165  69.276  1.00  0.00    -0.313 A  
HETATM   31  C   UNL     1     -12.311  14.919  70.268  1.00  0.00    -0.393 A  
HETATM   32  H   UNL     1     -13.894  14.174  72.108  1.00  0.00     0.000 HD 
HETATM   33  O   UNL     1     -13.448  13.434  71.713  1.00  0.00    -0.390 OA 
HETATM   34  C   UNL     1     -12.531  13.616  70.719  1.00  0.00    -0.359 A  
BRANCH  30  35
HETATM   35  C   UNL     1     -11.172  16.532  68.675  1.00  0.00    -0.297 C  
HETATM   36  O   UNL     1     -10.803  16.403  67.305  1.00  0.00    -0.291 OA 
HETATM   37  H   UNL     1     -10.682  17.265  66.925  1.00  0.00     0.000 HD 
ENDBRANCH  30  35
ENDBRANCH   6  16
ENDBRANCH   2   4
TORSDOF 3
ENDMDL
MODEL       10
REMARK 921   NORMALIZED FREE ENERGY PREDICTED BY IDOCK:   -7.30 KCAL/MOL
REMARK 922        TOTAL FREE ENERGY PREDICTED BY IDOCK:   -9.23 KCAL/MOL
REMARK 923 INTER-LIGAND FREE ENERGY PREDICTED BY IDOCK:   -8.66 KCAL/MOL
REMARK 924 INTRA-LIGAND FREE ENERGY PREDICTED BY IDOCK:   -0.58 KCAL/MOL
REMARK 927      BINDING AFFINITY PREDICTED BY RF-SCORE:    0.00 PKD
ROOT
HETATM    1  O   UNL     1      -9.943  17.037  66.000  1.00  0.00    -0.386 OA 
HETATM    2  C   UNL     1     -10.295  16.930  67.371  1.00  0.00    -0.309 C  
HETATM    3  H   UNL     1     -10.682  17.226  65.435  1.00  0.00     0.000 HD 
ENDROOT
BRANCH   2   4
HETATM    4  C   UNL     1      -9.098  16.624  68.286  1.00  0.00    -0.218 C  
HETATM    5  O   UNL     1      -9.525  15.832  69.411  1.00  0.00    -0.254 OA 
HETATM    6  C   UNL     1      -9.581  14.388  69.296  1.00  0.00     0.121 C  
HETATM    7  H   UNL     1      -5.897  16.166  67.815  1.00  0.00     0.000 HD 
HETATM    8  C   UNL     1      -8.278  13.857  68.635  1.00  0.00    -0.088 C  
HETATM    9  O   UNL     1      -6.668  16.485  68.270  1.00  0.00    -0.131 OA 
HETATM   10  O   UNL     1      -7.152  14.014  69.537  1.00  0.00    -0.279 OA 
HETATM   11  C   UNL     1      -7.917  14.594  67.331  1.00  0.00    -0.201 C  
HETATM   12  C   UNL     1      -7.847  16.106  67.547  1.00  0.00    -0.147 C  
HETATM   13  O   UNL     1      -8.830  14.279  66.277  1.00  0.00    -0.474 OA 
HETATM   14  H   UNL     1      -8.608  14.733  65.473  1.00  0.00     0.000 HD 
HETATM   15  H   UNL     1      -6.356  13.690  69.133  1.00  0.00     0.000 HD 
BRANCH   6  16
HETATM   16  C   UNL     1     -11.002  13.832  68.804  1.00  0.00    -0.289 C  
HETATM   17  C   UNL     1     -13.254  15.787  71.215  1.00  0.00    -0.348 A  
HETATM   18  C   UNL     1     -12.034  14.123  69.902  1.00  0.00    -0.398 A  
HETATM   19  C   UNL     1     -12.491  15.441  70.100  1.00  0.00    -0.370 A  
HETATM   20  C   UNL     1     -13.563  14.826  72.166  1.00  0.00    -0.518 A  
HETATM   21  C   UNL     1     -13.167  13.505  71.963  1.00  0.00    -0.439 A  
HETATM   22  O   UNL     1     -13.458  12.592  72.937  1.00  0.00    -0.571 OA 
HETATM   23  C   UNL     1     -12.453  13.132  70.807  1.00  0.00    -0.389 A  
HETATM   24  H   UNL     1     -13.188  11.692  72.798  1.00  0.00     0.000 HD 
HETATM   25  C   UNL     1     -12.185  11.696  70.500  1.00  0.00    -0.361 C  
HETATM   26  O   UNL     1     -12.751  10.815  71.134  1.00  0.00    -0.366 OA 
HETATM   27  C   UNL     1     -11.346  11.345  69.321  1.00  0.00    -0.355 A  
HETATM   28  C   UNL     1     -10.956  12.355  68.437  1.00  0.00    -0.272 A  
HETATM   29  C   UNL     1     -10.390  11.978  67.207  1.00  0.00    -0.232 A  
HETATM   30  C   UNL     1      -9.951  10.675  66.956  1.00  0.00    -0.243 A  
HETATM   31  C   UNL     1     -10.272   9.686  67.882  1.00  0.00    -0.242 A  
HETATM   32  H   UNL     1     -11.074   8.099  69.696  1.00  0.00     0.000 HD 
HETATM   33  O   UNL     1     -11.310   8.999  69.892  1.00  0.00    -0.149 OA 
HETATM   34  C   UNL     1     -10.996  10.010  69.032  1.00  0.00    -0.212 A  
BRANCH  30  35
HETATM   35  C   UNL     1      -9.075  10.398  65.763  1.00  0.00    -0.168 C  
HETATM   36  O   UNL     1      -8.054  11.390  65.682  1.00  0.00    -0.369 OA 
HETATM   37  H   UNL     1      -7.501  11.216  64.929  1.00  0.00     0.000 HD 
ENDBRANCH  30  35
ENDBRANCH   6  16
ENDBRANCH   2   4
TORSDOF 3
ENDMDL
MODEL       11
REMARK 921   NORMALIZED FREE ENERGY PREDICTED BY IDOCK:   -7.26 KCAL/MOL
REMARK 922        TOTAL FREE ENERGY PREDICTED BY IDOCK:   -9.19 KCAL/MOL
REMARK 923 INTER-LIGAND FREE ENERGY PREDICTED BY IDOCK:   -8.82 KCAL/MOL
REMARK 924 INTRA-LIGAND FREE ENERGY PREDICTED BY IDOCK:   -0.37 KCAL/MOL
REMARK 927      BINDING AFFINITY PREDICTED BY RF-SCORE:    0.00 PKD
ROOT
HETATM    1  O   UNL     1     -14.241  15.436  70.815  1.00  0.00    -0.844 OA 
HETATM    2  C   UNL     1     -13.397  14.526  70.126  1.00  0.00     0.468 C  
HETATM    3  H   UNL     1     -15.157  15.187  70.798  1.00  0.00     0.000 HD 
ENDROOT
BRANCH   2   4
HETATM    4  C   UNL     1     -11.914  14.928  70.154  1.00  0.00    -0.317 C  
HETATM    5  O   UNL     1     -11.082  13.752  70.181  1.00  0.00     0.048 OA 
HETATM    6  C   UNL     1     -10.703  13.108  68.939  1.00  0.00    -0.169 C  
HETATM    7  H   UNL     1     -10.183  17.427  68.955  1.00  0.00     0.000 HD 
HETATM    8  C   UNL     1     -10.220  14.173  67.914  1.00  0.00    -0.235 C  
HETATM    9  O   UNL     1     -10.424  16.772  69.599  1.00  0.00    -0.291 OA 
HETATM   10  O   UNL     1      -8.947  14.734  68.329  1.00  0.00    -0.169 OA 
HETATM   11  C   UNL     1     -11.201  15.351  67.757  1.00  0.00    -0.321 C  
HETATM   12  C   UNL     1     -11.523  15.992  69.108  1.00  0.00    -0.347 C  
HETATM   13  O   UNL     1     -12.402  14.951  67.093  1.00  0.00    -0.383 OA 
HETATM   14  H   UNL     1     -13.007  15.677  66.996  1.00  0.00     0.000 HD 
HETATM   15  H   UNL     1      -8.652  15.385  67.704  1.00  0.00     0.000 HD 
BRANCH   6  16
HETATM   16  C   UNL     1     -11.718  11.960  68.468  1.00  0.00    -0.388 C  
HETATM   17  C   UNL     1     -12.365  10.326  71.876  1.00  0.00    -0.239 A  
HETATM   18  C   UNL     1     -11.779  10.895  69.571  1.00  0.00    -0.400 A  
HETATM   19  C   UNL     1     -12.467  11.169  70.770  1.00  0.00    -0.479 A  
HETATM   20  C   UNL     1     -11.559   9.198  71.814  1.00  0.00    -0.457 A  
HETATM   21  C   UNL     1     -10.913   8.880  70.620  1.00  0.00    -0.241 A  
HETATM   22  O   UNL     1     -10.100   7.782  70.605  1.00  0.00    -0.190 OA 
HETATM   23  C   UNL     1     -11.062   9.688  69.477  1.00  0.00    -0.198 A  
HETATM   24  H   UNL     1      -9.660   7.566  69.792  1.00  0.00     0.000 HD 
HETATM   25  C   UNL     1     -10.521   9.257  68.155  1.00  0.00    -0.215 C  
HETATM   26  O   UNL     1     -10.120   8.110  67.998  1.00  0.00    -0.181 OA 
HETATM   27  C   UNL     1     -10.613  10.180  66.990  1.00  0.00    -0.290 A  
HETATM   28  C   UNL     1     -11.343  11.367  67.117  1.00  0.00    -0.327 A  
HETATM   29  C   UNL     1     -11.634  12.093  65.950  1.00  0.00    -0.425 A  
HETATM   30  C   UNL     1     -10.999  11.836  64.732  1.00  0.00    -0.360 A  
HETATM   31  C   UNL     1     -10.205  10.696  64.635  1.00  0.00    -0.404 A  
HETATM   32  H   UNL     1      -8.904   8.517  64.740  1.00  0.00     0.000 HD 
HETATM   33  O   UNL     1      -9.285   8.736  65.583  1.00  0.00    -0.217 OA 
HETATM   34  C   UNL     1     -10.048   9.855  65.740  1.00  0.00    -0.247 A  
BRANCH  30  35
HETATM   35  C   UNL     1     -11.106  12.832  63.608  1.00  0.00    -0.393 C  
HETATM   36  O   UNL     1     -11.762  14.009  64.075  1.00  0.00    -0.604 OA 
HETATM   37  H   UNL     1     -11.830  14.637  63.366  1.00  0.00     0.000 HD 
ENDBRANCH  30  35
ENDBRANCH   6  16
ENDBRANCH   2   4
TORSDOF 3
ENDMDL
MODEL       12
REMARK 921   NORMALIZED FREE ENERGY PREDICTED BY IDOCK:   -7.14 KCAL/MOL
REMARK 922        TOTAL FREE ENERGY PREDICTED BY IDOCK:   -9.05 KCAL/MOL
REMARK 923 INTER-LIGAND FREE ENERGY PREDICTED BY IDOCK:   -8.85 KCAL/MOL
REMARK 924 INTRA-LIGAND FREE ENERGY PREDICTED BY IDOCK:   -0.19 KCAL/MOL
REMARK 927      BINDING AFFINITY PREDICTED BY RF-SCORE:    0.00 PKD
ROOT
HETATM    1  O   UNL     1     -13.713  15.703  70.590  1.00  0.00    -0.847 OA 
HETATM    2  C   UNL     1     -12.992  15.134  69.509  1.00  0.00     0.447 C  
HETATM    3  H   UNL     1     -14.652  15.572  70.528  1.00  0.00     0.000 HD 
ENDROOT
BRANCH   2   4
HETATM    4  C   UNL     1     -11.473  15.346  69.610  1.00  0.00    -0.320 C  
HETATM    5  O   UNL     1     -10.808  14.081  69.799  1.00  0.00    -0.067 OA 
HETATM    6  C   UNL     1     -10.442  13.280  68.647  1.00  0.00    -0.228 C  
HETATM    7  H   UNL     1      -9.355  17.481  68.331  1.00  0.00     0.000 HD 
HETATM    8  C   UNL     1      -9.760  14.174  67.573  1.00  0.00    -0.234 C  
HETATM    9  O   UNL     1      -9.720  16.925  69.010  1.00  0.00    -0.260 OA 
HETATM   10  O   UNL     1      -8.452  14.606  68.030  1.00  0.00    -0.142 OA 
HETATM   11  C   UNL     1     -10.565  15.446  67.245  1.00  0.00    -0.294 C  
HETATM   12  C   UNL     1     -10.881  16.248  68.508  1.00  0.00    -0.330 C  
HETATM   13  O   UNL     1     -11.766  15.141  66.531  1.00  0.00    -0.202 OA 
HETATM   14  H   UNL     1     -12.262  15.925  66.328  1.00  0.00     0.000 HD 
HETATM   15  H   UNL     1      -8.036  15.152  67.374  1.00  0.00     0.000 HD 
BRANCH   6  16
HETATM   16  C   UNL     1     -11.570  12.230  68.204  1.00  0.00    -0.396 C  
HETATM   17  C   UNL     1     -12.721  11.112  71.686  1.00  0.00    -0.466 A  
HETATM   18  C   UNL     1     -11.873  11.321  69.402  1.00  0.00    -0.424 A  
HETATM   19  C   UNL     1     -12.610  11.824  70.493  1.00  0.00    -0.234 A  
HETATM   20  C   UNL     1     -12.083   9.887  71.822  1.00  0.00    -0.382 A  
HETATM   21  C   UNL     1     -11.394   9.347  70.738  1.00  0.00    -0.300 A  
HETATM   22  O   UNL     1     -10.749   8.156  70.918  1.00  0.00    -0.215 OA 
HETATM   23  C   UNL     1     -11.332  10.027  69.506  1.00  0.00    -0.220 A  
HETATM   24  H   UNL     1     -10.280   7.788  70.179  1.00  0.00     0.000 HD 
HETATM   25  C   UNL     1     -10.752   9.374  68.296  1.00  0.00    -0.171 C  
HETATM   26  O   UNL     1     -10.509   8.174  68.301  1.00  0.00    -0.204 OA 
HETATM   27  C   UNL     1     -10.616  10.157  67.036  1.00  0.00    -0.290 A  
HETATM   28  C   UNL     1     -11.175  11.437  66.966  1.00  0.00    -0.350 A  
HETATM   29  C   UNL     1     -11.263  12.053  65.706  1.00  0.00    -0.383 A  
HETATM   30  C   UNL     1     -10.574  11.571  64.590  1.00  0.00    -0.369 A  
HETATM   31  C   UNL     1      -9.948  10.331  64.692  1.00  0.00    -0.377 A  
HETATM   32  H   UNL     1      -8.986   8.026  65.152  1.00  0.00     0.000 HD 
HETATM   33  O   UNL     1      -9.399   8.392  65.926  1.00  0.00    -0.200 OA 
HETATM   34  C   UNL     1     -10.003   9.614  65.888  1.00  0.00    -0.281 A  
BRANCH  30  35
HETATM   35  C   UNL     1     -10.445  12.433  63.362  1.00  0.00    -0.311 C  
HETATM   36  O   UNL     1     -11.688  13.081  63.102  1.00  0.00    -0.803 OA 
HETATM   37  H   UNL     1     -11.607  13.625  62.327  1.00  0.00     0.000 HD 
ENDBRANCH  30  35
ENDBRANCH   6  16
ENDBRANCH   2   4
TORSDOF 3
ENDMDL
MODEL       13
REMARK 921   NORMALIZED FREE ENERGY PREDICTED BY IDOCK:   -7.00 KCAL/MOL
REMARK 922        TOTAL FREE ENERGY PREDICTED BY IDOCK:   -8.88 KCAL/MOL
REMARK 923 INTER-LIGAND FREE ENERGY PREDICTED BY IDOCK:   -8.61 KCAL/MOL
REMARK 924 INTRA-LIGAND FREE ENERGY PREDICTED BY IDOCK:   -0.27 KCAL/MOL
REMARK 927      BINDING AFFINITY PREDICTED BY RF-SCORE:    0.00 PKD
ROOT
HETATM    1  O   UNL     1      -8.289   9.016  67.362  1.00  0.00    -0.111 OA 
HETATM    2  C   UNL     1      -7.933  10.164  68.116  1.00  0.00    -0.104 C  
HETATM    3  H   UNL     1      -7.606   8.729  66.767  1.00  0.00     0.000 HD 
ENDROOT
BRANCH   2   4
HETATM    4  C   UNL     1      -9.038  10.628  69.078  1.00  0.00    -0.166 C  
HETATM    5  O   UNL     1      -9.050  12.067  69.163  1.00  0.00     0.255 OA 
HETATM    6  C   UNL     1      -9.809  12.839  68.199  1.00  0.00    -0.226 C  
HETATM    7  H   UNL     1     -11.981   9.488  69.926  1.00  0.00     0.000 HD 
HETATM    8  C   UNL     1     -11.228  12.226  68.026  1.00  0.00    -0.269 C  
HETATM    9  O   UNL     1     -11.135   9.896  70.074  1.00  0.00    -0.251 OA 
HETATM   10  O   UNL     1     -12.018  12.434  69.225  1.00  0.00    -0.298 OA 
HETATM   11  C   UNL     1     -11.203  10.708  67.761  1.00  0.00    -0.313 C  
HETATM   12  C   UNL     1     -10.411   9.967  68.839  1.00  0.00    -0.205 C  
HETATM   13  O   UNL     1     -10.685  10.408  66.462  1.00  0.00    -0.184 OA 
HETATM   14  H   UNL     1     -10.670   9.473  66.298  1.00  0.00     0.000 HD 
HETATM   15  H   UNL     1     -12.885  12.059  69.119  1.00  0.00     0.000 HD 
BRANCH   6  16
HETATM   16  C   UNL     1      -8.967  13.265  66.903  1.00  0.00    -0.212 C  
HETATM   17  C   UNL     1      -5.895  14.733  68.666  1.00  0.00    -0.090 A  
HETATM   18  C   UNL     1      -7.897  14.275  67.340  1.00  0.00    -0.207 A  
HETATM   19  C   UNL     1      -6.773  13.832  68.064  1.00  0.00    -0.140 A  
HETATM   20  C   UNL     1      -6.131  16.097  68.570  1.00  0.00    -0.112 A  
HETATM   21  C   UNL     1      -7.207  16.557  67.813  1.00  0.00    -0.139 A  
HETATM   22  O   UNL     1      -7.429  17.905  67.770  1.00  0.00    -0.200 OA 
HETATM   23  C   UNL     1      -8.061  15.658  67.146  1.00  0.00    -0.247 A  
HETATM   24  H   UNL     1      -8.163  18.218  67.254  1.00  0.00     0.000 HD 
HETATM   25  C   UNL     1      -9.100  16.149  66.194  1.00  0.00    -0.347 C  
HETATM   26  O   UNL     1      -9.094  17.316  65.823  1.00  0.00    -0.523 OA 
HETATM   27  C   UNL     1     -10.048  15.177  65.581  1.00  0.00    -0.392 A  
HETATM   28  C   UNL     1      -9.848  13.808  65.787  1.00  0.00    -0.242 A  
HETATM   29  C   UNL     1     -10.586  12.906  65.002  1.00  0.00    -0.333 A  
HETATM   30  C   UNL     1     -11.690  13.306  64.244  1.00  0.00    -0.454 A  
HETATM   31  C   UNL     1     -11.933  14.670  64.110  1.00  0.00    -0.316 A  
HETATM   32  H   UNL     1     -12.070  17.203  63.982  1.00  0.00     0.000 HD 
HETATM   33  O   UNL     1     -11.362  16.921  64.550  1.00  0.00    -1.006 OA 
HETATM   34  C   UNL     1     -11.098  15.596  64.738  1.00  0.00    -0.412 A  
BRANCH  30  35
HETATM   35  C   UNL     1     -12.627  12.268  63.684  1.00  0.00    -0.490 C  
HETATM   36  O   UNL     1     -11.899  11.367  62.853  1.00  0.00    -0.874 OA 
HETATM   37  H   UNL     1     -12.490  10.713  62.500  1.00  0.00     0.000 HD 
ENDBRANCH  30  35
ENDBRANCH   6  16
ENDBRANCH   2   4
TORSDOF 3
ENDMDL
MODEL       14
REMARK 921   NORMALIZED FREE ENERGY PREDICTED BY IDOCK:   -6.81 KCAL/MOL
REMARK 922        TOTAL FREE ENERGY PREDICTED BY IDOCK:   -8.65 KCAL/MOL
REMARK 923 INTER-LIGAND FREE ENERGY PREDICTED BY IDOCK:   -8.36 KCAL/MOL
REMARK 924 INTRA-LIGAND FREE ENERGY PREDICTED BY IDOCK:   -0.30 KCAL/MOL
REMARK 927      BINDING AFFINITY PREDICTED BY RF-SCORE:    0.00 PKD
ROOT
HETATM    1  O   UNL     1     -11.102  11.446  62.949  1.00  0.00    -0.791 OA 
HETATM    2  C   UNL     1     -10.567  12.197  64.027  1.00  0.00    -0.389 C  
HETATM    3  H   UNL     1     -10.456  11.218  62.291  1.00  0.00     0.000 HD 
ENDROOT
BRANCH   2   4
HETATM    4  C   UNL     1     -11.612  12.566  65.092  1.00  0.00    -0.353 C  
HETATM    5  O   UNL     1     -11.054  12.405  66.411  1.00  0.00    -0.274 OA 
HETATM    6  C   UNL     1     -10.311  13.492  67.016  1.00  0.00    -0.252 C  
HETATM    7  H   UNL     1     -14.102  14.677  65.241  1.00  0.00     0.000 HD 
HETATM    8  C   UNL     1     -11.087  14.828  66.841  1.00  0.00    -0.339 C  
HETATM    9  O   UNL     1     -13.655  13.853  65.397  1.00  0.00    -0.571 OA 
HETATM   10  O   UNL     1     -12.285  14.829  67.659  1.00  0.00    -0.563 OA 
HETATM   11  C   UNL     1     -11.533  15.083  65.388  1.00  0.00    -0.287 C  
HETATM   12  C   UNL     1     -12.336  13.904  64.837  1.00  0.00    -0.420 C  
HETATM   13  O   UNL     1     -10.421  15.373  64.538  1.00  0.00    -0.562 OA 
HETATM   14  H   UNL     1     -10.696  15.530  63.642  1.00  0.00     0.000 HD 
HETATM   15  H   UNL     1     -12.760  15.645  67.552  1.00  0.00     0.000 HD 
BRANCH   6  16
HETATM   16  C   UNL     1      -8.736  13.446  66.719  1.00  0.00    -0.093 C  
HETATM   17  C   UNL     1      -8.138   9.712  67.349  1.00  0.00    -0.110 A  
HETATM   18  C   UNL     1      -8.173  12.156  67.330  1.00  0.00    -0.175 A  
HETATM   19  C   UNL     1      -8.440  10.917  66.716  1.00  0.00    -0.139 A  
HETATM   20  C   UNL     1      -7.576   9.719  68.618  1.00  0.00    -0.079 A  
HETATM   21  C   UNL     1      -7.254  10.933  69.220  1.00  0.00    -0.128 A  
HETATM   22  O   UNL     1      -6.735  10.904  70.483  1.00  0.00    -0.459 OA 
HETATM   23  C   UNL     1      -7.494  12.155  68.562  1.00  0.00    -0.117 A  
HETATM   24  H   UNL     1      -6.516  11.732  70.893  1.00  0.00     0.000 HD 
HETATM   25  C   UNL     1      -6.989  13.443  69.123  1.00  0.00    -0.044 C  
HETATM   26  O   UNL     1      -6.189  13.438  70.051  1.00  0.00    -0.138 OA 
HETATM   27  C   UNL     1      -7.344  14.723  68.451  1.00  0.00    -0.116 A  
HETATM   28  C   UNL     1      -8.010  14.686  67.222  1.00  0.00    -0.223 A  
HETATM   29  C   UNL     1      -8.108  15.878  66.484  1.00  0.00    -0.270 A  
HETATM   30  C   UNL     1      -7.823  17.127  67.044  1.00  0.00    -0.229 A  
HETATM   31  C   UNL     1      -7.234  17.161  68.305  1.00  0.00    -0.204 A  
HETATM   32  H   UNL     1      -6.097  16.900  70.561  1.00  0.00     0.000 HD 
HETATM   33  O   UNL     1      -6.355  16.059  70.203  1.00  0.00    -0.139 OA 
HETATM   34  C   UNL     1      -6.960  15.971  68.983  1.00  0.00    -0.165 A  
BRANCH  30  35
HETATM   35  C   UNL     1      -8.243  18.381  66.324  1.00  0.00    -0.219 C  
HETATM   36  O   UNL     1      -9.613  18.276  65.944  1.00  0.00    -0.510 OA 
HETATM   37  H   UNL     1      -9.878  19.068  65.490  1.00  0.00     0.000 HD 
ENDBRANCH  30  35
ENDBRANCH   6  16
ENDBRANCH   2   4
TORSDOF 3
ENDMDL
MODEL       15
REMARK 921   NORMALIZED FREE ENERGY PREDICTED BY IDOCK:   -6.55 KCAL/MOL
REMARK 922        TOTAL FREE ENERGY PREDICTED BY IDOCK:   -8.36 KCAL/MOL
REMARK 923 INTER-LIGAND FREE ENERGY PREDICTED BY IDOCK:   -7.71 KCAL/MOL
REMARK 924 INTRA-LIGAND FREE ENERGY PREDICTED BY IDOCK:   -0.64 KCAL/MOL
REMARK 927      BINDING AFFINITY PREDICTED BY RF-SCORE:    0.00 PKD
ROOT
HETATM    1  O   UNL     1      -9.927  17.848  68.556  1.00  0.00    -0.338 OA 
HETATM    2  C   UNL     1     -10.746  16.986  67.781  1.00  0.00    -0.318 C  
HETATM    3  H   UNL     1      -9.364  18.405  68.032  1.00  0.00     0.000 HD 
ENDROOT
BRANCH   2   4
HETATM    4  C   UNL     1     -11.657  16.085  68.630  1.00  0.00    -0.343 C  
HETATM    5  O   UNL     1     -11.982  14.883  67.904  1.00  0.00    -0.317 OA 
HETATM    6  C   UNL     1     -11.091  13.741  67.965  1.00  0.00    -0.261 C  
HETATM    7  H   UNL     1     -12.001  15.518  71.830  1.00  0.00     0.000 HD 
HETATM    8  C   UNL     1     -10.676  13.470  69.439  1.00  0.00     0.095 C  
HETATM    9  O   UNL     1     -12.299  15.649  70.938  1.00  0.00    -0.381 OA 
HETATM   10  O   UNL     1     -11.807  12.974  70.200  1.00  0.00    -0.440 OA 
HETATM   11  C   UNL     1     -10.162  14.728  70.164  1.00  0.00     0.251 C  
HETATM   12  C   UNL     1     -11.173  15.873  70.079  1.00  0.00    -0.353 C  
HETATM   13  O   UNL     1      -8.890  15.144  69.661  1.00  0.00    -0.411 OA 
HETATM   14  H   UNL     1      -8.572  15.920  70.108  1.00  0.00     0.000 HD 
HETATM   15  H   UNL     1     -11.553  12.808  71.101  1.00  0.00     0.000 HD 
BRANCH   6  16
HETATM   16  C   UNL     1      -9.976  13.726  66.813  1.00  0.00    -0.270 C  
HETATM   17  C   UNL     1     -12.185  14.772  63.858  1.00  0.00    -0.023 A  
HETATM   18  C   UNL     1     -10.693  13.678  65.456  1.00  0.00    -0.296 A  
HETATM   19  C   UNL     1     -11.344  14.829  64.968  1.00  0.00    -0.391 A  
HETATM   20  C   UNL     1     -12.408  13.560  63.220  1.00  0.00    -0.150 A  
HETATM   21  C   UNL     1     -11.732  12.422  63.653  1.00  0.00    -0.514 A  
HETATM   22  O   UNL     1     -12.001  11.239  63.023  1.00  0.00    -0.863 OA 
HETATM   23  C   UNL     1     -10.829  12.480  64.732  1.00  0.00    -0.332 A  
HETATM   24  H   UNL     1     -11.540  10.463  63.319  1.00  0.00     0.000 HD 
HETATM   25  C   UNL     1      -9.972  11.309  65.082  1.00  0.00    -0.264 C  
HETATM   26  O   UNL     1      -9.892  10.355  64.319  1.00  0.00    -0.315 OA 
HETATM   27  C   UNL     1      -9.100  11.376  66.287  1.00  0.00    -0.211 A  
HETATM   28  C   UNL     1      -8.982  12.586  66.977  1.00  0.00    -0.211 A  
HETATM   29  C   UNL     1      -7.969  12.701  67.945  1.00  0.00    -0.156 A  
HETATM   30  C   UNL     1      -7.276  11.590  68.435  1.00  0.00    -0.089 A  
HETATM   31  C   UNL     1      -7.461  10.368  67.795  1.00  0.00    -0.088 A  
HETATM   32  H   UNL     1      -7.936   8.312  66.382  1.00  0.00     0.000 HD 
HETATM   33  O   UNL     1      -8.454   9.057  66.098  1.00  0.00    -0.119 OA 
HETATM   34  C   UNL     1      -8.331  10.270  66.708  1.00  0.00    -0.124 A  
BRANCH  30  35
HETATM   35  C   UNL     1      -6.440  11.722  69.681  1.00  0.00    -0.113 C  
HETATM   36  O   UNL     1      -6.653  13.005  70.265  1.00  0.00    -0.368 OA 
HETATM   37  H   UNL     1      -6.126  13.088  71.051  1.00  0.00     0.000 HD 
ENDBRANCH  30  35
ENDBRANCH   6  16
ENDBRANCH   2   4
TORSDOF 3
ENDMDL
MODEL       16
REMARK 921   NORMALIZED FREE ENERGY PREDICTED BY IDOCK:   -6.51 KCAL/MOL
REMARK 922        TOTAL FREE ENERGY PREDICTED BY IDOCK:   -8.30 KCAL/MOL
REMARK 923 INTER-LIGAND FREE ENERGY PREDICTED BY IDOCK:   -7.88 KCAL/MOL
REMARK 924 INTRA-LIGAND FREE ENERGY PREDICTED BY IDOCK:   -0.43 KCAL/MOL
REMARK 927      BINDING AFFINITY PREDICTED BY RF-SCORE:    0.00 PKD
ROOT
HETATM    1  O   UNL     1      -7.800  15.151  66.611  1.00  0.00    -0.305 OA 
HETATM    2  C   UNL     1      -8.439  13.888  66.716  1.00  0.00     0.023 C  
HETATM    3  H   UNL     1      -6.971  15.194  67.073  1.00  0.00     0.000 HD 
ENDROOT
BRANCH   2   4
HETATM    4  C   UNL     1      -9.780  13.819  65.968  1.00  0.00    -0.237 C  
HETATM    5  O   UNL     1     -10.516  12.649  66.377  1.00  0.00    -0.244 OA 
HETATM    6  C   UNL     1     -11.371  12.707  67.545  1.00  0.00    -0.308 C  
HETATM    7  H   UNL     1     -11.874  16.032  64.786  1.00  0.00     0.000 HD 
HETATM    8  C   UNL     1     -12.245  13.992  67.501  1.00  0.00    -0.223 C  
HETATM    9  O   UNL     1     -11.382  15.220  64.785  1.00  0.00    -0.409 OA 
HETATM   10  O   UNL     1     -13.235  13.895  66.445  1.00  0.00    -0.235 OA 
HETATM   11  C   UNL     1     -11.428  15.271  67.236  1.00  0.00    -0.224 C  
HETATM   12  C   UNL     1     -10.580  15.138  65.971  1.00  0.00    -0.322 C  
HETATM   13  O   UNL     1     -10.608  15.614  68.356  1.00  0.00    -0.238 OA 
HETATM   14  H   UNL     1     -10.104  16.403  68.193  1.00  0.00     0.000 HD 
HETATM   15  H   UNL     1     -13.769  14.680  66.417  1.00  0.00     0.000 HD 
BRANCH   6  16
HETATM   16  C   UNL     1     -10.634  12.298  68.909  1.00  0.00    -0.170 C  
HETATM   17  C   UNL     1      -8.523   9.388  67.574  1.00  0.00    -0.122 A  
HETATM   18  C   UNL     1     -10.070  10.880  68.739  1.00  0.00    -0.205 A  
HETATM   19  C   UNL     1      -8.935  10.671  67.930  1.00  0.00    -0.138 A  
HETATM   20  C   UNL     1      -9.246   8.285  68.005  1.00  0.00    -0.142 A  
HETATM   21  C   UNL     1     -10.339   8.467  68.850  1.00  0.00    -0.215 A  
HETATM   22  O   UNL     1     -11.048   7.361  69.226  1.00  0.00    -0.423 OA 
HETATM   23  C   UNL     1     -10.724   9.754  69.270  1.00  0.00    -0.246 A  
HETATM   24  H   UNL     1     -11.793   7.485  69.802  1.00  0.00     0.000 HD 
HETATM   25  C   UNL     1     -11.777   9.940  70.312  1.00  0.00    -0.216 C  
HETATM   26  O   UNL     1     -12.176   8.981  70.961  1.00  0.00    -0.289 OA 
HETATM   27  C   UNL     1     -12.225  11.316  70.662  1.00  0.00    -0.489 A  
HETATM   28  C   UNL     1     -11.545  12.412  70.123  1.00  0.00    -0.159 A  
HETATM   29  C   UNL     1     -11.810  13.685  70.657  1.00  0.00    -0.232 A  
HETATM   30  C   UNL     1     -12.907  13.931  71.488  1.00  0.00    -0.441 A  
HETATM   31  C   UNL     1     -13.632  12.839  71.956  1.00  0.00    -0.460 A  
HETATM   32  H   UNL     1     -14.701  10.662  72.710  1.00  0.00     0.000 HD 
HETATM   33  O   UNL     1     -13.996  10.508  72.091  1.00  0.00     0.041 OA 
HETATM   34  C   UNL     1     -13.271  11.544  71.580  1.00  0.00    -0.286 A  
BRANCH  30  35
HETATM   35  C   UNL     1     -13.326  15.350  71.770  1.00  0.00    -0.476 C  
HETATM   36  O   UNL     1     -12.549  16.244  70.976  1.00  0.00    -0.486 OA 
HETATM   37  H   UNL     1     -12.813  17.139  71.154  1.00  0.00     0.000 HD 
ENDBRANCH  30  35
ENDBRANCH   6  16
ENDBRANCH   2   4
TORSDOF 3
ENDMDL
MODEL       17
REMARK 921   NORMALIZED FREE ENERGY PREDICTED BY IDOCK:   -6.50 KCAL/MOL
REMARK 922        TOTAL FREE ENERGY PREDICTED BY IDOCK:   -8.29 KCAL/MOL
REMARK 923 INTER-LIGAND FREE ENERGY PREDICTED BY IDOCK:   -8.18 KCAL/MOL
REMARK 924 INTRA-LIGAND FREE ENERGY PREDICTED BY IDOCK:   -0.11 KCAL/MOL
REMARK 927      BINDING AFFINITY PREDICTED BY RF-SCORE:    0.00 PKD
ROOT
HETATM    1  O   UNL     1     -11.958  13.449  70.782  1.00  0.00    -0.493 OA 
HETATM    2  C   UNL     1     -11.289  12.510  69.954  1.00  0.00     0.023 C  
HETATM    3  H   UNL     1     -11.547  14.306  70.789  1.00  0.00     0.000 HD 
ENDROOT
BRANCH   2   4
HETATM    4  C   UNL     1     -11.955  11.125  69.943  1.00  0.00    -0.363 C  
HETATM    5  O   UNL     1     -12.101  10.656  68.588  1.00  0.00    -0.410 OA 
HETATM    6  C   UNL     1     -11.011   9.944  67.950  1.00  0.00    -0.223 C  
HETATM    7  H   UNL     1     -11.959   8.556  71.963  1.00  0.00     0.000 HD 
HETATM    8  C   UNL     1     -10.449   8.860  68.913  1.00  0.00    -0.205 C  
HETATM    9  O   UNL     1     -12.339   9.179  71.354  1.00  0.00    -0.308 OA 
HETATM   10  O   UNL     1     -11.410   7.788  69.085  1.00  0.00    -0.391 OA 
HETATM   11  C   UNL     1     -10.127   9.407  70.318  1.00  0.00    -0.240 C  
HETATM   12  C   UNL     1     -11.337  10.114  70.931  1.00  0.00    -0.340 C  
HETATM   13  O   UNL     1      -8.994  10.278  70.298  1.00  0.00    -0.303 OA 
HETATM   14  H   UNL     1      -8.796  10.615  71.164  1.00  0.00     0.000 HD 
HETATM   15  H   UNL     1     -11.067   7.126  69.674  1.00  0.00     0.000 HD 
BRANCH   6  16
HETATM   16  C   UNL     1      -9.998  10.893  67.148  1.00  0.00    -0.221 C  
HETATM   17  C   UNL     1     -12.524  13.469  65.849  1.00  0.00    -0.484 A  
HETATM   18  C   UNL     1     -10.817  11.749  66.172  1.00  0.00    -0.336 A  
HETATM   19  C   UNL     1     -11.603  12.811  66.662  1.00  0.00    -0.430 A  
HETATM   20  C   UNL     1     -12.693  13.069  64.531  1.00  0.00    -0.318 A  
HETATM   21  C   UNL     1     -11.888  12.057  64.012  1.00  0.00    -0.408 A  
HETATM   22  O   UNL     1     -12.105  11.666  62.721  1.00  0.00    -0.713 OA 
HETATM   23  C   UNL     1     -10.908  11.431  64.805  1.00  0.00    -0.339 A  
HETATM   24  H   UNL     1     -11.557  10.976  62.367  1.00  0.00     0.000 HD 
HETATM   25  C   UNL     1      -9.928  10.478  64.206  1.00  0.00    -0.331 C  
HETATM   26  O   UNL     1      -9.829  10.381  62.989  1.00  0.00    -0.293 OA 
HETATM   27  C   UNL     1      -8.968   9.762  65.092  1.00  0.00    -0.237 A  
HETATM   28  C   UNL     1      -8.898  10.111  66.444  1.00  0.00    -0.158 A  
HETATM   29  C   UNL     1      -7.823   9.616  67.202  1.00  0.00    -0.091 A  
HETATM   30  C   UNL     1      -6.999   8.585  66.742  1.00  0.00    -0.073 A  
HETATM   31  C   UNL     1      -7.130   8.183  65.415  1.00  0.00    -0.063 A  
HETATM   32  H   UNL     1      -7.541   7.731  62.950  1.00  0.00     0.000 HD 
HETATM   33  O   UNL     1      -8.142   8.384  63.289  1.00  0.00    -0.159 OA 
HETATM   34  C   UNL     1      -8.075   8.793  64.588  1.00  0.00    -0.157 A  
BRANCH  30  35
HETATM   35  C   UNL     1      -6.077   7.881  67.703  1.00  0.00    -0.050 C  
HETATM   36  O   UNL     1      -6.792   6.849  68.380  1.00  0.00    -0.068 OA 
HETATM   37  H   UNL     1      -6.211   6.405  68.986  1.00  0.00     0.000 HD 
ENDBRANCH  30  35
ENDBRANCH   6  16
ENDBRANCH   2   4
TORSDOF 3
ENDMDL
MODEL       18
REMARK 921   NORMALIZED FREE ENERGY PREDICTED BY IDOCK:   -6.48 KCAL/MOL
REMARK 922        TOTAL FREE ENERGY PREDICTED BY IDOCK:   -8.27 KCAL/MOL
REMARK 923 INTER-LIGAND FREE ENERGY PREDICTED BY IDOCK:   -7.68 KCAL/MOL
REMARK 924 INTRA-LIGAND FREE ENERGY PREDICTED BY IDOCK:   -0.59 KCAL/MOL
REMARK 927      BINDING AFFINITY PREDICTED BY RF-SCORE:    0.00 PKD
ROOT
HETATM    1  O   UNL     1      -8.035  16.142  66.941  1.00  0.00    -0.193 OA 
HETATM    2  C   UNL     1      -8.287  14.769  66.684  1.00  0.00     0.032 C  
HETATM    3  H   UNL     1      -7.254  16.292  67.460  1.00  0.00     0.000 HD 
ENDROOT
BRANCH   2   4
HETATM    4  C   UNL     1      -9.551  14.528  65.844  1.00  0.00    -0.247 C  
HETATM    5  O   UNL     1     -10.051  13.195  66.073  1.00  0.00    -0.277 OA 
HETATM    6  C   UNL     1     -10.951  12.943  67.180  1.00  0.00    -0.262 C  
HETATM    7  H   UNL     1     -11.997  16.410  64.770  1.00  0.00     0.000 HD 
HETATM    8  C   UNL     1     -12.065  14.026  67.216  1.00  0.00    -0.370 C  
HETATM    9  O   UNL     1     -11.349  15.716  64.714  1.00  0.00    -0.409 OA 
HETATM   10  O   UNL     1     -12.966  13.863  66.091  1.00  0.00    -0.413 OA 
HETATM   11  C   UNL     1     -11.515  15.464  67.148  1.00  0.00    -0.133 C  
HETATM   12  C   UNL     1     -10.601  15.653  65.936  1.00  0.00    -0.343 C  
HETATM   13  O   UNL     1     -10.832  15.825  68.351  1.00  0.00    -0.270 OA 
HETATM   14  H   UNL     1     -10.492  16.711  68.309  1.00  0.00     0.000 HD 
HETATM   15  H   UNL     1     -13.647  14.526  66.113  1.00  0.00     0.000 HD 
BRANCH   6  16
HETATM   16  C   UNL     1     -10.207  12.526  68.538  1.00  0.00    -0.210 C  
HETATM   17  C   UNL     1      -7.588  10.149  67.057  1.00  0.00    -0.092 A  
HETATM   18  C   UNL     1      -9.407  11.244  68.270  1.00  0.00    -0.180 A  
HETATM   19  C   UNL     1      -8.224  11.305  67.507  1.00  0.00    -0.124 A  
HETATM   20  C   UNL     1      -8.131   8.905  67.346  1.00  0.00    -0.108 A  
HETATM   21  C   UNL     1      -9.270   8.820  68.144  1.00  0.00    -0.140 A  
HETATM   22  O   UNL     1      -9.797   7.582  68.379  1.00  0.00    -0.156 OA 
HETATM   23  C   UNL     1      -9.882   9.979  68.659  1.00  0.00    -0.168 A  
HETATM   24  H   UNL     1     -10.573   7.525  68.923  1.00  0.00     0.000 HD 
HETATM   25  C   UNL     1     -10.989   9.886  69.656  1.00  0.00    -0.252 C  
HETATM   26  O   UNL     1     -11.246   8.815  70.192  1.00  0.00    -0.237 OA 
HETATM   27  C   UNL     1     -11.676  11.128  70.106  1.00  0.00    -0.439 A  
HETATM   28  C   UNL     1     -11.170  12.369  69.707  1.00  0.00    -0.027 A  
HETATM   29  C   UNL     1     -11.665  13.521  70.340  1.00  0.00    -0.201 A  
HETATM   30  C   UNL     1     -12.818  13.501  71.130  1.00  0.00    -0.387 A  
HETATM   31  C   UNL     1     -13.367  12.264  71.457  1.00  0.00    -0.138 A  
HETATM   32  H   UNL     1     -14.082   9.877  71.949  1.00  0.00     0.000 HD 
HETATM   33  O   UNL     1     -13.338   9.903  71.357  1.00  0.00    -0.383 OA 
HETATM   34  C   UNL     1     -12.779  11.089  70.984  1.00  0.00    -0.386 A  
BRANCH  30  35
HETATM   35  C   UNL     1     -13.480  14.797  71.518  1.00  0.00    -0.394 C  
HETATM   36  O   UNL     1     -13.326  15.745  70.465  1.00  0.00    -0.767 OA 
HETATM   37  H   UNL     1     -13.744  16.563  70.710  1.00  0.00     0.000 HD 
ENDBRANCH  30  35
ENDBRANCH   6  16
ENDBRANCH   2   4
TORSDOF 3
ENDMDL
MODEL       19
REMARK 921   NORMALIZED FREE ENERGY PREDICTED BY IDOCK:   -6.47 KCAL/MOL
REMARK 922        TOTAL FREE ENERGY PREDICTED BY IDOCK:   -8.25 KCAL/MOL
REMARK 923 INTER-LIGAND FREE ENERGY PREDICTED BY IDOCK:   -7.77 KCAL/MOL
REMARK 924 INTRA-LIGAND FREE ENERGY PREDICTED BY IDOCK:   -0.48 KCAL/MOL
REMARK 927      BINDING AFFINITY PREDICTED BY RF-SCORE:    0.00 PKD
ROOT
HETATM    1  O   UNL     1      -9.772   6.095  67.261  1.00  0.00    -0.120 OA 
HETATM    2  C   UNL     1      -9.122   7.107  66.506  1.00  0.00    -0.154 C  
HETATM    3  H   UNL     1     -10.476   5.666  66.789  1.00  0.00     0.000 HD 
ENDROOT
BRANCH   2   4
HETATM    4  C   UNL     1      -7.983   7.800  67.270  1.00  0.00    -0.118 C  
HETATM    5  O   UNL     1      -8.056   9.227  67.080  1.00  0.00    -0.110 OA 
HETATM    6  C   UNL     1      -8.892  10.028  67.952  1.00  0.00    -0.125 C  
HETATM    7  H   UNL     1      -6.345   7.177  70.028  1.00  0.00     0.000 HD 
HETATM    8  C   UNL     1      -8.657   9.621  69.434  1.00  0.00    -0.158 C  
HETATM    9  O   UNL     1      -6.447   7.464  69.128  1.00  0.00    -0.037 OA 
HETATM   10  O   UNL     1      -7.336  10.034  69.869  1.00  0.00    -0.125 OA 
HETATM   11  C   UNL     1      -8.753   8.101  69.667  1.00  0.00    -0.142 C  
HETATM   12  C   UNL     1      -7.818   7.334  68.731  1.00  0.00    -0.121 C  
HETATM   13  O   UNL     1     -10.096   7.631  69.530  1.00  0.00    -0.183 OA 
HETATM   14  H   UNL     1     -10.156   6.694  69.674  1.00  0.00     0.000 HD 
HETATM   15  H   UNL     1      -7.192   9.785  70.775  1.00  0.00     0.000 HD 
BRANCH   6  16
HETATM   16  C   UNL     1     -10.389  10.226  67.413  1.00  0.00    -0.282 C  
HETATM   17  C   UNL     1      -9.604  10.695  63.689  1.00  0.00    -0.360 A  
HETATM   18  C   UNL     1     -10.313  10.871  66.022  1.00  0.00    -0.304 A  
HETATM   19  C   UNL     1      -9.896  10.103  64.917  1.00  0.00    -0.390 A  
HETATM   20  C   UNL     1      -9.708  12.071  63.542  1.00  0.00    -0.226 A  
HETATM   21  C   UNL     1     -10.171  12.842  64.606  1.00  0.00    -0.298 A  
HETATM   22  O   UNL     1     -10.227  14.197  64.438  1.00  0.00    -0.646 OA 
HETATM   23  C   UNL     1     -10.532  12.247  65.830  1.00  0.00    -0.288 A  
HETATM   24  H   UNL     1     -10.543  14.722  65.163  1.00  0.00     0.000 HD 
HETATM   25  C   UNL     1     -11.194  13.042  66.906  1.00  0.00    -0.295 C  
HETATM   26  O   UNL     1     -11.617  14.167  66.668  1.00  0.00    -0.349 OA 
HETATM   27  C   UNL     1     -11.474  12.403  68.222  1.00  0.00    -0.360 A  
HETATM   28  C   UNL     1     -11.254  11.030  68.373  1.00  0.00    -0.337 A  
HETATM   29  C   UNL     1     -11.759  10.401  69.523  1.00  0.00    -0.259 A  
HETATM   30  C   UNL     1     -12.212  11.123  70.631  1.00  0.00    -0.492 A  
HETATM   31  C   UNL     1     -12.351  12.502  70.501  1.00  0.00    -0.345 A  
HETATM   32  H   UNL     1     -12.578  14.969  69.938  1.00  0.00     0.000 HD 
HETATM   33  O   UNL     1     -12.207  14.479  69.213  1.00  0.00    -0.301 OA 
HETATM   34  C   UNL     1     -12.024  13.130  69.297  1.00  0.00    -0.292 A  
BRANCH  30  35
HETATM   35  C   UNL     1     -12.440  10.416  71.941  1.00  0.00    -0.195 C  
HETATM   36  O   UNL     1     -11.559   9.300  72.040  1.00  0.00    -0.356 OA 
HETATM   37  H   UNL     1     -11.703   8.854  72.867  1.00  0.00     0.000 HD 
ENDBRANCH  30  35
ENDBRANCH   6  16
ENDBRANCH   2   4
TORSDOF 3
ENDMDL
MODEL       20
REMARK 921   NORMALIZED FREE ENERGY PREDICTED BY IDOCK:   -6.39 KCAL/MOL
REMARK 922        TOTAL FREE ENERGY PREDICTED BY IDOCK:   -8.16 KCAL/MOL
REMARK 923 INTER-LIGAND FREE ENERGY PREDICTED BY IDOCK:   -7.50 KCAL/MOL
REMARK 924 INTRA-LIGAND FREE ENERGY PREDICTED BY IDOCK:   -0.66 KCAL/MOL
REMARK 927      BINDING AFFINITY PREDICTED BY RF-SCORE:    0.00 PKD
ROOT
HETATM    1  O   UNL     1      -9.551   9.400  63.242  1.00  0.00    -0.437 OA 
HETATM    2  C   UNL     1      -9.603  10.407  64.241  1.00  0.00    -0.318 C  
HETATM    3  H   UNL     1     -10.360   9.311  62.753  1.00  0.00     0.000 HD 
ENDROOT
BRANCH   2   4
HETATM    4  C   UNL     1      -8.293  10.550  65.032  1.00  0.00    -0.140 C  
HETATM    5  O   UNL     1      -8.567  11.042  66.358  1.00  0.00    -0.155 OA 
HETATM    6  C   UNL     1      -8.899  10.111  67.418  1.00  0.00    -0.131 C  
HETATM    7  H   UNL     1      -5.431   8.974  65.051  1.00  0.00     0.000 HD 
HETATM    8  C   UNL     1      -7.907   8.913  67.404  1.00  0.00    -0.097 C  
HETATM    9  O   UNL     1      -6.001   9.733  65.095  1.00  0.00    -0.071 OA 
HETATM   10  O   UNL     1      -6.587   9.345  67.825  1.00  0.00    -0.062 OA 
HETATM   11  C   UNL     1      -7.749   8.275  66.010  1.00  0.00    -0.093 C  
HETATM   12  C   UNL     1      -7.367   9.319  64.959  1.00  0.00    -0.102 C  
HETATM   13  O   UNL     1      -8.930   7.573  65.615  1.00  0.00    -0.344 OA 
HETATM   14  H   UNL     1      -8.833   7.179  64.756  1.00  0.00     0.000 HD 
HETATM   15  H   UNL     1      -5.981   8.613  67.816  1.00  0.00     0.000 HD 
BRANCH   6  16
HETATM   16  C   UNL     1     -10.471   9.834  67.569  1.00  0.00    -0.309 C  
HETATM   17  C   UNL     1     -11.731  13.435  67.178  1.00  0.00    -0.424 A  
HETATM   18  C   UNL     1     -11.161  11.167  67.892  1.00  0.00    -0.331 A  
HETATM   19  C   UNL     1     -11.313  12.138  66.882  1.00  0.00    -0.402 A  
HETATM   20  C   UNL     1     -11.990  13.795  68.493  1.00  0.00    -0.402 A  
HETATM   21  C   UNL     1     -11.898  12.835  69.499  1.00  0.00    -0.316 A  
HETATM   22  O   UNL     1     -12.126  13.233  70.786  1.00  0.00    -0.455 OA 
HETATM   23  C   UNL     1     -11.541  11.505  69.203  1.00  0.00    -0.382 A  
HETATM   24  H   UNL     1     -12.063  12.578  71.472  1.00  0.00     0.000 HD 
HETATM   25  C   UNL     1     -11.616  10.439  70.244  1.00  0.00    -0.327 C  
HETATM   26  O   UNL     1     -12.178  10.658  71.310  1.00  0.00    -0.352 OA 
HETATM   27  C   UNL     1     -11.140   9.065  69.920  1.00  0.00    -0.155 A  
HETATM   28  C   UNL     1     -10.779   8.762  68.604  1.00  0.00    -0.109 A  
HETATM   29  C   UNL     1     -10.582   7.412  68.265  1.00  0.00    -0.204 A  
HETATM   30  C   UNL     1     -10.456   6.411  69.232  1.00  0.00    -0.277 A  
HETATM   31  C   UNL     1     -10.737   6.740  70.556  1.00  0.00    -0.277 A  
HETATM   32  H   UNL     1     -11.390   7.614  72.850  1.00  0.00     0.000 HD 
HETATM   33  O   UNL     1     -11.408   8.304  72.196  1.00  0.00    -0.301 OA 
HETATM   34  C   UNL     1     -11.114   8.042  70.890  1.00  0.00    -0.255 A  
BRANCH  30  35
HETATM   35  C   UNL     1      -9.934   5.054  68.839  1.00  0.00    -0.166 C  
HETATM   36  O   UNL     1      -9.121   5.176  67.674  1.00  0.00    -0.109 OA 
HETATM   37  H   UNL     1      -8.791   4.320  67.426  1.00  0.00     0.000 HD 
ENDBRANCH  30  35
ENDBRANCH   6  16
ENDBRANCH   2   4
TORSDOF 3
ENDMDL
MODEL       21
REMARK 921   NORMALIZED FREE ENERGY PREDICTED BY IDOCK:   -6.38 KCAL/MOL
REMARK 922        TOTAL FREE ENERGY PREDICTED BY IDOCK:   -8.15 KCAL/MOL
REMARK 923 INTER-LIGAND FREE ENERGY PREDICTED BY IDOCK:   -7.49 KCAL/MOL
REMARK 924 INTRA-LIGAND FREE ENERGY PREDICTED BY IDOCK:   -0.66 KCAL/MOL
REMARK 927      BINDING AFFINITY PREDICTED BY RF-SCORE:    0.00 PKD
ROOT
HETATM    1  O   UNL     1     -12.727   6.619  72.265  1.00  0.00    -0.547 OA 
HETATM    2  C   UNL     1     -11.727   6.218  71.341  1.00  0.00    -0.254 C  
HETATM    3  H   UNL     1     -13.599   6.328  72.026  1.00  0.00     0.000 HD 
ENDROOT
BRANCH   2   4
HETATM    4  C   UNL     1     -10.316   6.688  71.727  1.00  0.00    -0.196 C  
HETATM    5  O   UNL     1      -9.519   6.890  70.543  1.00  0.00    -0.168 OA 
HETATM    6  C   UNL     1      -9.565   8.164  69.852  1.00  0.00    -0.175 C  
HETATM    7  H   UNL     1      -9.070   8.475  74.163  1.00  0.00     0.000 HD 
HETATM    8  C   UNL     1      -9.442   9.328  70.876  1.00  0.00    -0.261 C  
HETATM    9  O   UNL     1      -9.088   7.764  73.533  1.00  0.00    -0.233 OA 
HETATM   10  O   UNL     1      -8.104   9.370  71.436  1.00  0.00    -0.306 OA 
HETATM   11  C   UNL     1     -10.422   9.200  72.058  1.00  0.00    -0.099 C  
HETATM   12  C   UNL     1     -10.287   7.843  72.750  1.00  0.00    -0.333 C  
HETATM   13  O   UNL     1     -11.773   9.423  71.649  1.00  0.00    -0.358 OA 
HETATM   14  H   UNL     1     -12.378   9.344  72.378  1.00  0.00     0.000 HD 
HETATM   15  H   UNL     1      -8.029  10.081  72.062  1.00  0.00     0.000 HD 
BRANCH   6  16
HETATM   16  C   UNL     1     -10.677   8.237  68.700  1.00  0.00    -0.068 C  
HETATM   17  C   UNL     1     -10.033   4.832  67.059  1.00  0.00    -0.235 A  
HETATM   18  C   UNL     1     -10.328   7.190  67.633  1.00  0.00    -0.276 A  
HETATM   19  C   UNL     1     -10.534   5.822  67.902  1.00  0.00    -0.290 A  
HETATM   20  C   UNL     1      -9.301   5.186  65.934  1.00  0.00    -0.167 A  
HETATM   21  C   UNL     1      -9.132   6.533  65.621  1.00  0.00     0.090 A  
HETATM   22  O   UNL     1      -8.376   6.846  64.527  1.00  0.00    -0.308 OA 
HETATM   23  C   UNL     1      -9.690   7.542  66.430  1.00  0.00    -0.180 A  
HETATM   24  H   UNL     1      -8.261   7.765  64.314  1.00  0.00     0.000 HD 
HETATM   25  C   UNL     1      -9.665   8.972  66.004  1.00  0.00    -0.269 C  
HETATM   26  O   UNL     1      -9.344   9.267  64.859  1.00  0.00    -0.211 OA 
HETATM   27  C   UNL     1     -10.179  10.021  66.928  1.00  0.00    -0.299 A  
HETATM   28  C   UNL     1     -10.816   9.633  68.111  1.00  0.00    -0.241 A  
HETATM   29  C   UNL     1     -11.516  10.612  68.837  1.00  0.00    -0.334 A  
HETATM   30  C   UNL     1     -11.365  11.978  68.585  1.00  0.00    -0.329 A  
HETATM   31  C   UNL     1     -10.657  12.361  67.448  1.00  0.00    -0.237 A  
HETATM   32  H   UNL     1      -9.398  12.743  65.276  1.00  0.00     0.000 HD 
HETATM   33  O   UNL     1      -9.447  11.818  65.491  1.00  0.00    -0.227 OA 
HETATM   34  C   UNL     1     -10.105  11.392  66.607  1.00  0.00    -0.212 A  
BRANCH  30  35
HETATM   35  C   UNL     1     -11.878  12.984  69.582  1.00  0.00    -0.319 C  
HETATM   36  O   UNL     1     -12.158  12.329  70.817  1.00  0.00    -0.447 OA 
HETATM   37  H   UNL     1     -12.482  12.963  71.446  1.00  0.00     0.000 HD 
ENDBRANCH  30  35
ENDBRANCH   6  16
ENDBRANCH   2   4
TORSDOF 3
ENDMDL
MODEL       22
REMARK 921   NORMALIZED FREE ENERGY PREDICTED BY IDOCK:   -6.36 KCAL/MOL
REMARK 922        TOTAL FREE ENERGY PREDICTED BY IDOCK:   -8.13 KCAL/MOL
REMARK 923 INTER-LIGAND FREE ENERGY PREDICTED BY IDOCK:   -8.26 KCAL/MOL
REMARK 924 INTRA-LIGAND FREE ENERGY PREDICTED BY IDOCK:    0.13 KCAL/MOL
REMARK 927      BINDING AFFINITY PREDICTED BY RF-SCORE:    0.00 PKD
ROOT
HETATM    1  O   UNL     1     -12.229   6.729  69.850  1.00  0.00    -0.634 OA 
HETATM    2  C   UNL     1     -11.041   5.984  69.632  1.00  0.00    -0.404 C  
HETATM    3  H   UNL     1     -12.962   6.434  69.322  1.00  0.00     0.000 HD 
ENDROOT
BRANCH   2   4
HETATM    4  C   UNL     1      -9.856   6.461  70.487  1.00  0.00    -0.183 C  
HETATM    5  O   UNL     1      -9.135   7.502  69.798  1.00  0.00    -0.141 OA 
HETATM    6  C   UNL     1      -9.559   8.882  69.929  1.00  0.00    -0.177 C  
HETATM    7  H   UNL     1      -9.287   6.719  73.695  1.00  0.00     0.000 HD 
HETATM    8  C   UNL     1      -9.829   9.214  71.424  1.00  0.00    -0.284 C  
HETATM    9  O   UNL     1      -9.068   6.532  72.789  1.00  0.00    -0.138 OA 
HETATM   10  O   UNL     1      -8.585   9.239  72.170  1.00  0.00    -0.196 OA 
HETATM   11  C   UNL     1     -10.748   8.188  72.116  1.00  0.00    -0.293 C  
HETATM   12  C   UNL     1     -10.213   6.764  71.957  1.00  0.00    -0.191 C  
HETATM   13  O   UNL     1     -12.091   8.276  71.636  1.00  0.00    -0.281 OA 
HETATM   14  H   UNL     1     -12.658   7.644  72.062  1.00  0.00     0.000 HD 
HETATM   15  H   UNL     1      -8.749   9.442  73.083  1.00  0.00     0.000 HD 
BRANCH   6  16
HETATM   16  C   UNL     1     -10.611   9.346  68.812  1.00  0.00    -0.234 C  
HETATM   17  C   UNL     1      -8.934   7.767  65.747  1.00  0.00    -0.109 A  
HETATM   18  C   UNL     1      -9.937   9.218  67.440  1.00  0.00    -0.253 A  
HETATM   19  C   UNL     1      -9.731   7.943  66.877  1.00  0.00    -0.285 A  
HETATM   20  C   UNL     1      -8.312   8.860  65.162  1.00  0.00    -0.170 A  
HETATM   21  C   UNL     1      -8.546  10.137  65.670  1.00  0.00    -0.155 A  
HETATM   22  O   UNL     1      -7.890  11.186  65.091  1.00  0.00    -0.346 OA 
HETATM   23  C   UNL     1      -9.402  10.334  66.771  1.00  0.00    -0.187 A  
HETATM   24  H   UNL     1      -8.049  12.056  65.437  1.00  0.00     0.000 HD 
HETATM   25  C   UNL     1      -9.795  11.707  67.203  1.00  0.00    -0.188 C  
HETATM   26  O   UNL     1      -9.547  12.672  66.489  1.00  0.00    -0.239 OA 
HETATM   27  C   UNL     1     -10.623  11.880  68.428  1.00  0.00    -0.239 A  
HETATM   28  C   UNL     1     -11.146  10.749  69.062  1.00  0.00    -0.308 A  
HETATM   29  C   UNL     1     -12.126  10.937  70.052  1.00  0.00    -0.433 A  
HETATM   30  C   UNL     1     -12.385  12.190  70.616  1.00  0.00    -0.385 A  
HETATM   31  C   UNL     1     -11.794  13.307  70.031  1.00  0.00    -0.365 A  
HETATM   32  H   UNL     1     -10.650  15.147  68.706  1.00  0.00     0.000 HD 
HETATM   33  O   UNL     1     -10.426  14.286  68.371  1.00  0.00    -0.235 OA 
HETATM   34  C   UNL     1     -10.955  13.157  68.925  1.00  0.00    -0.230 A  
BRANCH  30  35
HETATM   35  C   UNL     1     -13.202  12.286  71.878  1.00  0.00    -0.376 C  
HETATM   36  O   UNL     1     -13.368  10.986  72.438  1.00  0.00    -0.600 OA 
HETATM   37  H   UNL     1     -13.883  11.047  73.234  1.00  0.00     0.000 HD 
ENDBRANCH  30  35
ENDBRANCH   6  16
ENDBRANCH   2   4
TORSDOF 3
ENDMDL
MODEL       23
REMARK 921   NORMALIZED FREE ENERGY PREDICTED BY IDOCK:   -6.36 KCAL/MOL
REMARK 922        TOTAL FREE ENERGY PREDICTED BY IDOCK:   -8.13 KCAL/MOL
REMARK 923 INTER-LIGAND FREE ENERGY PREDICTED BY IDOCK:   -7.73 KCAL/MOL
REMARK 924 INTRA-LIGAND FREE ENERGY PREDICTED BY IDOCK:   -0.40 KCAL/MOL
REMARK 927      BINDING AFFINITY PREDICTED BY RF-SCORE:    0.00 PKD
ROOT
HETATM    1  O   UNL     1     -11.639   4.782  73.266  1.00  0.00    -0.348 OA 
HETATM    2  C   UNL     1     -10.746   4.886  72.169  1.00  0.00    -0.123 C  
HETATM    3  H   UNL     1     -12.426   4.288  73.067  1.00  0.00     0.000 HD 
ENDROOT
BRANCH   2   4
HETATM    4  C   UNL     1      -9.473   5.685  72.492  1.00  0.00    -0.144 C  
HETATM    5  O   UNL     1      -8.985   6.342  71.306  1.00  0.00    -0.139 OA 
HETATM    6  C   UNL     1      -9.500   7.647  70.942  1.00  0.00    -0.164 C  
HETATM    7  H   UNL     1      -8.355   7.271  75.122  1.00  0.00     0.000 HD 
HETATM    8  C   UNL     1      -9.522   8.576  72.188  1.00  0.00    -0.305 C  
HETATM    9  O   UNL     1      -8.289   6.722  74.350  1.00  0.00    -0.129 OA 
HETATM   10  O   UNL     1      -8.171   8.919  72.588  1.00  0.00    -0.387 OA 
HETATM   11  C   UNL     1     -10.204   7.932  73.411  1.00  0.00    -0.146 C  
HETATM   12  C   UNL     1      -9.582   6.576  73.746  1.00  0.00    -0.188 C  
HETATM   13  O   UNL     1     -11.615   7.803  73.220  1.00  0.00    -0.644 OA 
HETATM   14  H   UNL     1     -12.036   7.406  73.974  1.00  0.00     0.000 HD 
HETATM   15  H   UNL     1      -8.184   9.487  73.350  1.00  0.00     0.000 HD 
BRANCH   6  16
HETATM   16  C   UNL     1     -10.775   7.593  69.971  1.00  0.00    -0.245 C  
HETATM   17  C   UNL     1      -9.776   4.542  67.873  1.00  0.00    -0.195 A  
HETATM   18  C   UNL     1     -10.411   6.734  68.753  1.00  0.00    -0.211 A  
HETATM   19  C   UNL     1     -10.312   5.335  68.888  1.00  0.00    -0.228 A  
HETATM   20  C   UNL     1      -9.310   5.133  66.707  1.00  0.00    -0.134 A  
HETATM   21  C   UNL     1      -9.448   6.509  66.532  1.00  0.00    -0.154 A  
HETATM   22  O   UNL     1      -8.948   7.061  65.386  1.00  0.00    -0.370 OA 
HETATM   23  C   UNL     1     -10.049   7.310  67.522  1.00  0.00    -0.250 A  
HETATM   24  H   UNL     1      -9.042   7.999  65.267  1.00  0.00     0.000 HD 
HETATM   25  C   UNL     1     -10.360   8.747  67.264  1.00  0.00    -0.290 C  
HETATM   26  O   UNL     1     -10.286   9.198  66.128  1.00  0.00    -0.272 OA 
HETATM   27  C   UNL     1     -10.907   9.586  68.366  1.00  0.00    -0.183 A  
HETATM   28  C   UNL     1     -11.265   8.978  69.573  1.00  0.00     0.053 A  
HETATM   29  C   UNL     1     -12.010   9.728  70.498  1.00  0.00    -0.282 A  
HETATM   30  C   UNL     1     -12.160  11.113  70.387  1.00  0.00    -0.475 A  
HETATM   31  C   UNL     1     -11.725  11.727  69.215  1.00  0.00    -0.398 A  
HETATM   32  H   UNL     1     -10.922  12.542  66.948  1.00  0.00     0.000 HD 
HETATM   33  O   UNL     1     -10.762  11.612  67.059  1.00  0.00    -0.229 OA 
HETATM   34  C   UNL     1     -11.143  10.966  68.199  1.00  0.00    -0.280 A  
BRANCH  30  35
HETATM   35  C   UNL     1     -12.686  11.904  71.555  1.00  0.00    -0.274 C  
HETATM   36  O   UNL     1     -13.391  11.036  72.439  1.00  0.00    -0.600 OA 
HETATM   37  H   UNL     1     -13.724  11.535  73.177  1.00  0.00     0.000 HD 
ENDBRANCH  30  35
ENDBRANCH   6  16
ENDBRANCH   2   4
TORSDOF 3
ENDMDL
MODEL       24
REMARK 921   NORMALIZED FREE ENERGY PREDICTED BY IDOCK:   -6.35 KCAL/MOL
REMARK 922        TOTAL FREE ENERGY PREDICTED BY IDOCK:   -8.12 KCAL/MOL
REMARK 923 INTER-LIGAND FREE ENERGY PREDICTED BY IDOCK:   -7.78 KCAL/MOL
REMARK 924 INTRA-LIGAND FREE ENERGY PREDICTED BY IDOCK:   -0.34 KCAL/MOL
REMARK 927      BINDING AFFINITY PREDICTED BY RF-SCORE:    0.00 PKD
ROOT
HETATM    1  O   UNL     1      -7.488   7.847  67.474  1.00  0.00    -0.090 OA 
HETATM    2  C   UNL     1      -7.577   9.061  68.203  1.00  0.00    -0.092 C  
HETATM    3  H   UNL     1      -6.666   7.746  67.009  1.00  0.00     0.000 HD 
ENDROOT
BRANCH   2   4
HETATM    4  C   UNL     1      -8.907   9.224  68.957  1.00  0.00    -0.136 C  
HETATM    5  O   UNL     1      -9.164  10.619  69.212  1.00  0.00    -0.178 OA 
HETATM    6  C   UNL     1      -9.835  11.424  68.210  1.00  0.00    -0.200 C  
HETATM    7  H   UNL     1     -11.739   7.595  69.009  1.00  0.00     0.000 HD 
HETATM    8  C   UNL     1     -11.077  10.665  67.664  1.00  0.00    -0.319 C  
HETATM    9  O   UNL     1     -11.013   8.081  69.383  1.00  0.00    -0.150 OA 
HETATM   10  O   UNL     1     -12.108  10.583  68.681  1.00  0.00    -0.775 OA 
HETATM   11  C   UNL     1     -10.761   9.222  67.226  1.00  0.00    -0.174 C  
HETATM   12  C   UNL     1     -10.084   8.434  68.349  1.00  0.00    -0.198 C  
HETATM   13  O   UNL     1      -9.960   9.193  66.042  1.00  0.00    -0.293 OA 
HETATM   14  H   UNL     1      -9.765   8.304  65.771  1.00  0.00     0.000 HD 
HETATM   15  H   UNL     1     -12.867  10.118  68.348  1.00  0.00     0.000 HD 
BRANCH   6  16
HETATM   16  C   UNL     1      -8.837  12.149  67.186  1.00  0.00    -0.191 C  
HETATM   17  C   UNL     1      -5.951  12.872  69.606  1.00  0.00    -0.120 A  
HETATM   18  C   UNL     1      -7.798  12.928  68.004  1.00  0.00    -0.149 A  
HETATM   19  C   UNL     1      -6.777  12.232  68.682  1.00  0.00    -0.083 A  
HETATM   20  C   UNL     1      -6.137  14.219  69.883  1.00  0.00    -0.141 A  
HETATM   21  C   UNL     1      -7.105  14.937  69.184  1.00  0.00    -0.148 A  
HETATM   22  O   UNL     1      -7.284  16.253  69.508  1.00  0.00    -0.219 OA 
HETATM   23  C   UNL     1      -7.900  14.317  68.201  1.00  0.00    -0.139 A  
HETATM   24  H   UNL     1      -7.943  16.742  69.031  1.00  0.00     0.000 HD 
HETATM   25  C   UNL     1      -8.808  15.118  67.329  1.00  0.00    -0.200 C  
HETATM   26  O   UNL     1      -8.726  16.340  67.313  1.00  0.00    -0.175 OA 
HETATM   27  C   UNL     1      -9.704  14.418  66.367  1.00  0.00    -0.320 A  
HETATM   28  C   UNL     1      -9.567  13.037  66.189  1.00  0.00    -0.209 A  
HETATM   29  C   UNL     1     -10.233  12.440  65.105  1.00  0.00    -0.305 A  
HETATM   30  C   UNL     1     -11.230  13.103  64.384  1.00  0.00    -0.403 A  
HETATM   31  C   UNL     1     -11.419  14.462  64.625  1.00  0.00    -0.390 A  
HETATM   32  H   UNL     1     -11.470  16.931  65.219  1.00  0.00     0.000 HD 
HETATM   33  O   UNL     1     -10.841  16.457  65.752  1.00  0.00    -0.257 OA 
HETATM   34  C   UNL     1     -10.636  15.120  65.576  1.00  0.00    -0.366 A  
BRANCH  30  35
HETATM   35  C   UNL     1     -12.124  12.325  63.455  1.00  0.00    -0.553 C  
HETATM   36  O   UNL     1     -11.459  11.133  63.041  1.00  0.00    -0.812 OA 
HETATM   37  H   UNL     1     -12.022  10.642  62.455  1.00  0.00     0.000 HD 
ENDBRANCH  30  35
ENDBRANCH   6  16
ENDBRANCH   2   4
TORSDOF 3
ENDMDL
MODEL       25
REMARK 921   NORMALIZED FREE ENERGY PREDICTED BY IDOCK:   -6.34 KCAL/MOL
REMARK 922        TOTAL FREE ENERGY PREDICTED BY IDOCK:   -8.11 KCAL/MOL
REMARK 923 INTER-LIGAND FREE ENERGY PREDICTED BY IDOCK:   -7.67 KCAL/MOL
REMARK 924 INTRA-LIGAND FREE ENERGY PREDICTED BY IDOCK:   -0.43 KCAL/MOL
REMARK 927      BINDING AFFINITY PREDICTED BY RF-SCORE:    0.00 PKD
ROOT
HETATM    1  O   UNL     1      -6.823   5.170  69.353  1.00  0.00    -0.050 OA 
HETATM    2  C   UNL     1      -8.084   5.654  69.790  1.00  0.00    -0.102 C  
HETATM    3  H   UNL     1      -6.094   5.503  69.863  1.00  0.00     0.000 HD 
ENDROOT
BRANCH   2   4
HETATM    4  C   UNL     1      -9.264   5.114  68.967  1.00  0.00    -0.117 C  
HETATM    5  O   UNL     1     -10.376   6.027  69.036  1.00  0.00    -0.182 OA 
HETATM    6  C   UNL     1     -10.460   7.134  68.104  1.00  0.00    -0.200 C  
HETATM    7  H   UNL     1      -9.545   3.299  66.263  1.00  0.00     0.000 HD 
HETATM    8  C   UNL     1     -10.170   6.635  66.660  1.00  0.00    -0.138 C  
HETATM    9  O   UNL     1      -9.778   3.593  67.136  1.00  0.00    -0.199 OA 
HETATM   10  O   UNL     1     -11.255   5.798  66.186  1.00  0.00    -0.735 OA 
HETATM   11  C   UNL     1      -8.879   5.800  66.556  1.00  0.00    -0.126 C  
HETATM   12  C   UNL     1      -8.886   4.637  67.549  1.00  0.00    -0.105 C  
HETATM   13  O   UNL     1      -7.713   6.607  66.737  1.00  0.00    -0.102 OA 
HETATM   14  H   UNL     1      -6.916   6.093  66.673  1.00  0.00     0.000 HD 
HETATM   15  H   UNL     1     -11.078   5.492  65.304  1.00  0.00     0.000 HD 
BRANCH   6  16
HETATM   16  C   UNL     1      -9.765   8.480  68.631  1.00  0.00    -0.171 C  
HETATM   17  C   UNL     1     -10.870   8.301  72.298  1.00  0.00    -0.408 A  
HETATM   18  C   UNL     1     -10.425   8.866  69.962  1.00  0.00    -0.227 A  
HETATM   19  C   UNL     1     -10.136   8.127  71.126  1.00  0.00    -0.222 A  
HETATM   20  C   UNL     1     -11.920   9.207  72.329  1.00  0.00    -0.277 A  
HETATM   21  C   UNL     1     -12.187   9.987  71.205  1.00  0.00    -0.402 A  
HETATM   22  O   UNL     1     -13.251  10.844  71.259  1.00  0.00    -0.333 OA 
HETATM   23  C   UNL     1     -11.410   9.867  70.037  1.00  0.00    -0.303 A  
HETATM   24  H   UNL     1     -13.433  11.375  70.493  1.00  0.00     0.000 HD 
HETATM   25  C   UNL     1     -11.577  10.821  68.901  1.00  0.00    -0.291 C  
HETATM   26  O   UNL     1     -12.243  11.839  69.045  1.00  0.00    -0.263 OA 
HETATM   27  C   UNL     1     -10.806  10.605  67.646  1.00  0.00    -0.346 A  
HETATM   28  C   UNL     1      -9.827   9.607  67.610  1.00  0.00    -0.202 A  
HETATM   29  C   UNL     1      -8.941   9.586  66.519  1.00  0.00    -0.173 A  
HETATM   30  C   UNL     1      -9.172  10.327  65.357  1.00  0.00    -0.236 A  
HETATM   31  C   UNL     1     -10.203  11.263  65.370  1.00  0.00    -0.323 A  
HETATM   32  H   UNL     1     -12.083  12.934  65.724  1.00  0.00     0.000 HD 
HETATM   33  O   UNL     1     -11.963  12.379  66.486  1.00  0.00    -0.564 OA 
HETATM   34  C   UNL     1     -10.985  11.429  66.515  1.00  0.00    -0.272 A  
BRANCH  30  35
HETATM   35  C   UNL     1      -8.378  10.030  64.111  1.00  0.00    -0.167 C  
HETATM   36  O   UNL     1      -8.863   8.831  63.512  1.00  0.00    -0.434 OA 
HETATM   37  H   UNL     1      -8.363   8.644  62.727  1.00  0.00     0.000 HD 
ENDBRANCH  30  35
ENDBRANCH   6  16
ENDBRANCH   2   4
TORSDOF 3
ENDMDL
MODEL       26
REMARK 921   NORMALIZED FREE ENERGY PREDICTED BY IDOCK:   -6.33 KCAL/MOL
REMARK 922        TOTAL FREE ENERGY PREDICTED BY IDOCK:   -8.10 KCAL/MOL
REMARK 923 INTER-LIGAND FREE ENERGY PREDICTED BY IDOCK:   -7.69 KCAL/MOL
REMARK 924 INTRA-LIGAND FREE ENERGY PREDICTED BY IDOCK:   -0.41 KCAL/MOL
REMARK 927      BINDING AFFINITY PREDICTED BY RF-SCORE:    0.00 PKD
ROOT
HETATM    1  O   UNL     1      -9.143   9.018  71.990  1.00  0.00    -0.375 OA 
HETATM    2  C   UNL     1      -9.498   9.335  70.653  1.00  0.00    -0.272 C  
HETATM    3  H   UNL     1      -8.458   9.574  72.341  1.00  0.00     0.000 HD 
ENDROOT
BRANCH   2   4
HETATM    4  C   UNL     1     -10.607   8.435  70.087  1.00  0.00    -0.233 C  
HETATM    5  O   UNL     1     -11.274   9.098  68.995  1.00  0.00     0.016 OA 
HETATM    6  C   UNL     1     -10.742   8.989  67.651  1.00  0.00    -0.163 C  
HETATM    7  H   UNL     1     -11.025   5.208  69.784  1.00  0.00     0.000 HD 
HETATM    8  C   UNL     1     -10.387   7.507  67.339  1.00  0.00    -0.276 C  
HETATM    9  O   UNL     1     -11.294   6.103  69.954  1.00  0.00    -0.405 OA 
HETATM   10  O   UNL     1     -11.595   6.713  67.219  1.00  0.00    -0.747 OA 
HETATM   11  C   UNL     1      -9.522   6.849  68.431  1.00  0.00    -0.128 C  
HETATM   12  C   UNL     1     -10.170   6.982  69.811  1.00  0.00    -0.201 C  
HETATM   13  O   UNL     1      -8.196   7.383  68.447  1.00  0.00    -0.123 OA 
HETATM   14  H   UNL     1      -7.663   6.978  69.120  1.00  0.00     0.000 HD 
HETATM   15  H   UNL     1     -11.379   5.807  67.028  1.00  0.00     0.000 HD 
BRANCH   6  16
HETATM   16  C   UNL     1      -9.703  10.149  67.269  1.00  0.00    -0.203 C  
HETATM   17  C   UNL     1     -11.578  13.128  68.791  1.00  0.00    -0.348 A  
HETATM   18  C   UNL     1     -10.431  11.496  67.377  1.00  0.00    -0.240 A  
HETATM   19  C   UNL     1     -10.733  12.028  68.646  1.00  0.00    -0.266 A  
HETATM   20  C   UNL     1     -12.153  13.710  67.671  1.00  0.00    -0.328 A  
HETATM   21  C   UNL     1     -11.825  13.233  66.403  1.00  0.00    -0.396 A  
HETATM   22  O   UNL     1     -12.437  13.808  65.325  1.00  0.00    -0.437 OA 
HETATM   23  C   UNL     1     -10.921  12.166  66.241  1.00  0.00    -0.332 A  
HETATM   24  H   UNL     1     -12.213  13.483  64.461  1.00  0.00     0.000 HD 
HETATM   25  C   UNL     1     -10.431  11.772  64.888  1.00  0.00    -0.287 C  
HETATM   26  O   UNL     1     -10.646  12.493  63.921  1.00  0.00    -0.389 OA 
HETATM   27  C   UNL     1      -9.552  10.578  64.747  1.00  0.00    -0.342 A  
HETATM   28  C   UNL     1      -9.076   9.943  65.898  1.00  0.00    -0.201 A  
HETATM   29  C   UNL     1      -8.053   8.990  65.754  1.00  0.00    -0.109 A  
HETATM   30  C   UNL     1      -7.700   8.457  64.511  1.00  0.00    -0.121 A  
HETATM   31  C   UNL     1      -8.242   9.041  63.369  1.00  0.00    -0.182 A  
HETATM   32  H   UNL     1      -9.319  10.359  61.484  1.00  0.00     0.000 HD 
HETATM   33  O   UNL     1      -9.606  10.671  62.334  1.00  0.00    -0.235 OA 
HETATM   34  C   UNL     1      -9.126  10.116  63.484  1.00  0.00    -0.275 A  
BRANCH  30  35
HETATM   35  C   UNL     1      -6.835   7.225  64.444  1.00  0.00    -0.047 C  
HETATM   36  O   UNL     1      -6.681   6.680  65.753  1.00  0.00    -0.046 OA 
HETATM   37  H   UNL     1      -6.136   5.903  65.711  1.00  0.00     0.000 HD 
ENDBRANCH  30  35
ENDBRANCH   6  16
ENDBRANCH   2   4
TORSDOF 3
ENDMDL
MODEL       27
REMARK 921   NORMALIZED FREE ENERGY PREDICTED BY IDOCK:   -6.27 KCAL/MOL
REMARK 922        TOTAL FREE ENERGY PREDICTED BY IDOCK:   -8.02 KCAL/MOL
REMARK 923 INTER-LIGAND FREE ENERGY PREDICTED BY IDOCK:   -7.61 KCAL/MOL
REMARK 924 INTRA-LIGAND FREE ENERGY PREDICTED BY IDOCK:   -0.40 KCAL/MOL
REMARK 927      BINDING AFFINITY PREDICTED BY RF-SCORE:    0.00 PKD
ROOT
HETATM    1  O   UNL     1      -9.079  15.194  69.721  1.00  0.00    -0.444 OA 
HETATM    2  C   UNL     1      -8.587  14.226  68.807  1.00  0.00    -0.101 C  
HETATM    3  H   UNL     1      -8.472  15.392  70.424  1.00  0.00     0.000 HD 
ENDROOT
BRANCH   2   4
HETATM    4  C   UNL     1      -9.569  13.907  67.669  1.00  0.00    -0.215 C  
HETATM    5  O   UNL     1      -9.381  12.551  67.217  1.00  0.00    -0.179 OA 
HETATM    6  C   UNL     1     -10.076  11.467  67.883  1.00  0.00    -0.189 C  
HETATM    7  H   UNL     1     -12.593  14.875  66.897  1.00  0.00     0.000 HD 
HETATM    8  C   UNL     1     -11.571  11.840  68.088  1.00  0.00    -0.323 C  
HETATM    9  O   UNL     1     -11.694  14.624  66.722  1.00  0.00    -0.373 OA 
HETATM   10  O   UNL     1     -12.265  11.866  66.814  1.00  0.00    -0.489 OA 
HETATM   11  C   UNL     1     -11.767  13.225  68.735  1.00  0.00    -0.329 C  
HETATM   12  C   UNL     1     -11.029  14.314  67.954  1.00  0.00    -0.267 C  
HETATM   13  O   UNL     1     -11.360  13.229  70.105  1.00  0.00    -0.502 OA 
HETATM   14  H   UNL     1     -11.481  14.082  70.505  1.00  0.00     0.000 HD 
HETATM   15  H   UNL     1     -13.179  12.094  66.939  1.00  0.00     0.000 HD 
BRANCH   6  16
HETATM   16  C   UNL     1      -9.250  10.815  69.093  1.00  0.00    -0.131 C  
HETATM   17  C   UNL     1      -5.807  10.640  67.414  1.00  0.00    -0.045 A  
HETATM   18  C   UNL     1      -7.948  10.235  68.523  1.00  0.00    -0.107 A  
HETATM   19  C   UNL     1      -6.909  11.103  68.132  1.00  0.00    -0.067 A  
HETATM   20  C   UNL     1      -5.727   9.301  67.056  1.00  0.00    -0.045 A  
HETATM   21  C   UNL     1      -6.717   8.417  67.480  1.00  0.00    -0.063 A  
HETATM   22  O   UNL     1      -6.625   7.113  67.080  1.00  0.00    -0.054 OA 
HETATM   23  C   UNL     1      -7.800   8.861  68.262  1.00  0.00    -0.101 A  
HETATM   24  H   UNL     1      -7.300   6.511  67.369  1.00  0.00     0.000 HD 
HETATM   25  C   UNL     1      -8.761   7.892  68.866  1.00  0.00    -0.135 C  
HETATM   26  O   UNL     1      -8.511   6.693  68.861  1.00  0.00    -0.122 OA 
HETATM   27  C   UNL     1      -9.948   8.403  69.607  1.00  0.00    -0.193 A  
HETATM   28  C   UNL     1     -10.057   9.774  69.856  1.00  0.00    -0.288 A  
HETATM   29  C   UNL     1     -11.036  10.206  70.768  1.00  0.00    -0.313 A  
HETATM   30  C   UNL     1     -12.067   9.371  71.206  1.00  0.00    -0.424 A  
HETATM   31  C   UNL     1     -11.997   8.019  70.884  1.00  0.00    -0.201 A  
HETATM   32  H   UNL     1     -11.552   5.609  70.216  1.00  0.00     0.000 HD 
HETATM   33  O   UNL     1     -10.891   6.195  69.864  1.00  0.00    -0.282 OA 
HETATM   34  C   UNL     1     -10.928   7.533  70.127  1.00  0.00    -0.254 A  
BRANCH  30  35
HETATM   35  C   UNL     1     -13.255   9.962  71.919  1.00  0.00    -0.458 C  
HETATM   36  O   UNL     1     -13.670   9.084  72.962  1.00  0.00    -0.923 OA 
HETATM   37  H   UNL     1     -14.420   9.457  73.412  1.00  0.00     0.000 HD 
ENDBRANCH  30  35
ENDBRANCH   6  16
ENDBRANCH   2   4
TORSDOF 3
ENDMDL
MODEL       28
REMARK 921   NORMALIZED FREE ENERGY PREDICTED BY IDOCK:   -6.22 KCAL/MOL
REMARK 922        TOTAL FREE ENERGY PREDICTED BY IDOCK:   -7.96 KCAL/MOL
REMARK 923 INTER-LIGAND FREE ENERGY PREDICTED BY IDOCK:   -7.35 KCAL/MOL
REMARK 924 INTRA-LIGAND FREE ENERGY PREDICTED BY IDOCK:   -0.61 KCAL/MOL
REMARK 927      BINDING AFFINITY PREDICTED BY RF-SCORE:    0.00 PKD
ROOT
HETATM    1  O   UNL     1      -9.262   8.298  62.330  1.00  0.00    -0.366 OA 
HETATM    2  C   UNL     1      -9.304   9.692  62.593  1.00  0.00    -0.047 C  
HETATM    3  H   UNL     1     -10.036   7.975  61.884  1.00  0.00     0.000 HD 
ENDROOT
BRANCH   2   4
HETATM    4  C   UNL     1      -8.052  10.214  63.315  1.00  0.00    -0.160 C  
HETATM    5  O   UNL     1      -8.425  11.168  64.328  1.00  0.00     0.125 OA 
HETATM    6  C   UNL     1      -8.783  10.708  65.655  1.00  0.00    -0.188 C  
HETATM    7  H   UNL     1      -5.133   8.952  64.068  1.00  0.00     0.000 HD 
HETATM    8  C   UNL     1      -7.744   9.664  66.154  1.00  0.00    -0.102 C  
HETATM    9  O   UNL     1      -5.736   9.631  63.787  1.00  0.00    -0.085 OA 
HETATM   10  O   UNL     1      -6.471  10.307  66.423  1.00  0.00    -0.076 OA 
HETATM   11  C   UNL     1      -7.474   8.542  65.132  1.00  0.00    -0.091 C  
HETATM   12  C   UNL     1      -7.073   9.113  63.771  1.00  0.00    -0.093 C  
HETATM   13  O   UNL     1      -8.599   7.670  64.998  1.00  0.00    -0.337 OA 
HETATM   14  H   UNL     1      -8.434   6.978  64.369  1.00  0.00     0.000 HD 
HETATM   15  H   UNL     1      -5.835   9.669  66.727  1.00  0.00     0.000 HD 
BRANCH   6  16
HETATM   16  C   UNL     1     -10.349  10.415  65.840  1.00  0.00    -0.261 C  
HETATM   17  C   UNL     1     -11.730  13.459  63.959  1.00  0.00    -0.465 A  
HETATM   18  C   UNL     1     -11.113  11.717  65.561  1.00  0.00    -0.336 A  
HETATM   19  C   UNL     1     -11.240  12.183  64.237  1.00  0.00    -0.409 A  
HETATM   20  C   UNL     1     -12.088  14.304  65.000  1.00  0.00    -0.428 A  
HETATM   21  C   UNL     1     -12.021  13.843  66.313  1.00  0.00    -0.434 A  
HETATM   22  O   UNL     1     -12.349  14.713  67.315  1.00  0.00    -0.554 OA 
HETATM   23  C   UNL     1     -11.591  12.533  66.601  1.00  0.00    -0.442 A  
HETATM   24  H   UNL     1     -12.303  14.399  68.210  1.00  0.00     0.000 HD 
HETATM   25  C   UNL     1     -11.688  11.979  67.984  1.00  0.00    -0.331 C  
HETATM   26  O   UNL     1     -12.326  12.575  68.843  1.00  0.00    -0.052 OA 
HETATM   27  C   UNL     1     -11.136  10.626  68.270  1.00  0.00    -0.334 A  
HETATM   28  C   UNL     1     -10.678   9.838  67.209  1.00  0.00    -0.296 A  
HETATM   29  C   UNL     1     -10.403   8.483  67.460  1.00  0.00    -0.334 A  
HETATM   30  C   UNL     1     -10.298   7.971  68.756  1.00  0.00    -0.223 A  
HETATM   31  C   UNL     1     -10.677   8.789  69.817  1.00  0.00    -0.220 A  
HETATM   32  H   UNL     1     -11.513  10.475  71.523  1.00  0.00     0.000 HD 
HETATM   33  O   UNL     1     -11.517  10.838  70.645  1.00  0.00    -0.325 OA 
HETATM   34  C   UNL     1     -11.130  10.088  69.574  1.00  0.00    -0.238 A  
BRANCH  30  35
HETATM   35  C   UNL     1      -9.696   6.608  68.974  1.00  0.00    -0.140 C  
HETATM   36  O   UNL     1      -8.963   6.220  67.815  1.00  0.00    -0.115 OA 
HETATM   37  H   UNL     1      -8.583   5.360  67.952  1.00  0.00     0.000 HD 
ENDBRANCH  30  35
ENDBRANCH   6  16
ENDBRANCH   2   4
TORSDOF 3
ENDMDL
MODEL       29
REMARK 921   NORMALIZED FREE ENERGY PREDICTED BY IDOCK:   -6.17 KCAL/MOL
REMARK 922        TOTAL FREE ENERGY PREDICTED BY IDOCK:   -7.90 KCAL/MOL
REMARK 923 INTER-LIGAND FREE ENERGY PREDICTED BY IDOCK:   -7.26 KCAL/MOL
REMARK 924 INTRA-LIGAND FREE ENERGY PREDICTED BY IDOCK:   -0.64 KCAL/MOL
REMARK 927      BINDING AFFINITY PREDICTED BY RF-SCORE:    0.00 PKD
ROOT
HETATM    1  O   UNL     1     -10.191   4.645  69.593  1.00  0.00    -0.221 OA 
HETATM    2  C   UNL     1      -9.317   5.669  69.142  1.00  0.00    -0.124 C  
HETATM    3  H   UNL     1     -10.725   4.273  68.901  1.00  0.00     0.000 HD 
ENDROOT
BRANCH   2   4
HETATM    4  C   UNL     1      -8.453   6.269  70.262  1.00  0.00    -0.134 C  
HETATM    5  O   UNL     1      -8.160   7.651  69.975  1.00  0.00    -0.115 OA 
HETATM    6  C   UNL     1      -9.092   8.685  70.380  1.00  0.00    -0.159 C  
HETATM    7  H   UNL     1      -8.182   5.771  73.480  1.00  0.00     0.000 HD 
HETATM    8  C   UNL     1      -9.541   8.449  71.850  1.00  0.00    -0.254 C  
HETATM    9  O   UNL     1      -7.865   5.948  72.602  1.00  0.00    -0.100 OA 
HETATM   10  O   UNL     1      -8.441   8.702  72.762  1.00  0.00    -0.396 OA 
HETATM   11  C   UNL     1     -10.021   7.008  72.113  1.00  0.00    -0.165 C  
HETATM   12  C   UNL     1      -8.968   5.984  71.687  1.00  0.00    -0.142 C  
HETATM   13  O   UNL     1     -11.269   6.742  71.467  1.00  0.00    -0.243 OA 
HETATM   14  H   UNL     1     -11.565   5.855  71.629  1.00  0.00     0.000 HD 
HETATM   15  H   UNL     1      -8.715   8.558  73.660  1.00  0.00     0.000 HD 
BRANCH   6  16
HETATM   16  C   UNL     1     -10.188   9.042  69.266  1.00  0.00    -0.210 C  
HETATM   17  C   UNL     1      -7.870   9.232  66.217  1.00  0.00    -0.103 A  
HETATM   18  C   UNL     1      -9.455   9.606  68.041  1.00  0.00    -0.146 A  
HETATM   19  C   UNL     1      -8.722   8.741  67.205  1.00  0.00    -0.127 A  
HETATM   20  C   UNL     1      -7.719  10.602  66.054  1.00  0.00    -0.151 A  
HETATM   21  C   UNL     1      -8.475  11.475  66.833  1.00  0.00    -0.165 A  
HETATM   22  O   UNL     1      -8.275  12.817  66.670  1.00  0.00    -0.406 OA 
HETATM   23  C   UNL     1      -9.388  10.988  67.788  1.00  0.00    -0.162 A  
HETATM   24  H   UNL     1      -8.790  13.411  67.202  1.00  0.00     0.000 HD 
HETATM   25  C   UNL     1     -10.325  11.910  68.495  1.00  0.00    -0.218 C  
HETATM   26  O   UNL     1     -10.457  13.066  68.113  1.00  0.00    -0.231 OA 
HETATM   27  C   UNL     1     -11.210  11.374  69.567  1.00  0.00    -0.322 A  
HETATM   28  C   UNL     1     -11.258   9.993  69.783  1.00  0.00    -0.307 A  
HETATM   29  C   UNL     1     -12.276   9.487  70.610  1.00  0.00    -0.191 A  
HETATM   30  C   UNL     1     -13.048  10.312  71.433  1.00  0.00    -0.512 A  
HETATM   31  C   UNL     1     -12.934  11.690  71.270  1.00  0.00    -0.368 A  
HETATM   32  H   UNL     1     -12.575  14.136  70.688  1.00  0.00     0.000 HD 
HETATM   33  O   UNL     1     -12.005  13.570  70.180  1.00  0.00    -0.319 OA 
HETATM   34  C   UNL     1     -12.056  12.214  70.320  1.00  0.00    -0.302 A  
BRANCH  30  35
HETATM   35  C   UNL     1     -13.892   9.702  72.521  1.00  0.00    -0.139 C  
HETATM   36  O   UNL     1     -13.202   8.596  73.096  1.00  0.00    -0.826 OA 
HETATM   37  H   UNL     1     -13.735   8.211  73.783  1.00  0.00     0.000 HD 
ENDBRANCH  30  35
ENDBRANCH   6  16
ENDBRANCH   2   4
TORSDOF 3
ENDMDL
MODEL       30
REMARK 921   NORMALIZED FREE ENERGY PREDICTED BY IDOCK:   -6.15 KCAL/MOL
REMARK 922        TOTAL FREE ENERGY PREDICTED BY IDOCK:   -7.88 KCAL/MOL
REMARK 923 INTER-LIGAND FREE ENERGY PREDICTED BY IDOCK:   -7.72 KCAL/MOL
REMARK 924 INTRA-LIGAND FREE ENERGY PREDICTED BY IDOCK:   -0.16 KCAL/MOL
REMARK 927      BINDING AFFINITY PREDICTED BY RF-SCORE:    0.00 PKD
ROOT
HETATM    1  O   UNL     1      -8.705   9.791  66.706  1.00  0.00    -0.130 OA 
HETATM    2  C   UNL     1      -9.966   9.957  67.335  1.00  0.00    -0.189 C  
HETATM    3  H   UNL     1      -8.054   9.384  67.266  1.00  0.00     0.000 HD 
ENDROOT
BRANCH   2   4
HETATM    4  C   UNL     1     -11.018  10.615  66.428  1.00  0.00     0.014 C  
HETATM    5  O   UNL     1     -11.878  11.471  67.206  1.00  0.00    -0.609 OA 
HETATM    6  C   UNL     1     -11.491  12.845  67.459  1.00  0.00    -0.335 C  
HETATM    7  H   UNL     1     -11.082  11.595  63.311  1.00  0.00     0.000 HD 
HETATM    8  C   UNL     1     -11.001  13.509  66.141  1.00  0.00    -0.284 C  
HETATM    9  O   UNL     1     -11.434  11.208  64.104  1.00  0.00    -0.106 OA 
HETATM   10  O   UNL     1     -12.111  13.702  65.228  1.00  0.00    -0.363 OA 
HETATM   11  C   UNL     1      -9.946  12.668  65.395  1.00  0.00    -0.214 C  
HETATM   12  C   UNL     1     -10.445  11.245  65.142  1.00  0.00    -0.291 C  
HETATM   13  O   UNL     1      -8.699  12.645  66.094  1.00  0.00    -0.414 OA 
HETATM   14  H   UNL     1      -8.049  12.127  65.635  1.00  0.00     0.000 HD 
HETATM   15  H   UNL     1     -11.812  14.108  64.422  1.00  0.00     0.000 HD 
BRANCH   6  16
HETATM   16  C   UNL     1     -10.646  13.043  68.807  1.00  0.00    -0.218 C  
HETATM   17  C   UNL     1     -13.019  11.269  71.241  1.00  0.00    -0.427 A  
HETATM   18  C   UNL     1     -11.587  12.812  69.997  1.00  0.00    -0.194 A  
HETATM   19  C   UNL     1     -12.003  11.504  70.316  1.00  0.00    -0.455 A  
HETATM   20  C   UNL     1     -13.654  12.338  71.857  1.00  0.00    -0.195 A  
HETATM   21  C   UNL     1     -13.222  13.637  71.596  1.00  0.00    -0.367 A  
HETATM   22  O   UNL     1     -13.893  14.667  72.193  1.00  0.00    -0.388 OA 
HETATM   23  C   UNL     1     -12.152  13.882  70.714  1.00  0.00    -0.404 A  
HETATM   24  H   UNL     1     -13.598  15.552  72.015  1.00  0.00     0.000 HD 
HETATM   25  C   UNL     1     -11.572  15.250  70.571  1.00  0.00    -0.306 C  
HETATM   26  O   UNL     1     -11.877  16.134  71.361  1.00  0.00    -0.441 OA 
HETATM   27  C   UNL     1     -10.506  15.490  69.558  1.00  0.00    -0.263 A  
HETATM   28  C   UNL     1      -9.960  14.400  68.872  1.00  0.00    -0.183 A  
HETATM   29  C   UNL     1      -8.793  14.610  68.118  1.00  0.00    -0.173 A  
HETATM   30  C   UNL     1      -8.327  15.889  67.804  1.00  0.00    -0.159 A  
HETATM   31  C   UNL     1      -8.929  16.978  68.429  1.00  0.00    -0.247 A  
HETATM   32  H   UNL     1     -10.160  18.743  69.778  1.00  0.00     0.000 HD 
HETATM   33  O   UNL     1     -10.515  17.875  69.935  1.00  0.00     0.286 OA 
HETATM   34  C   UNL     1      -9.980  16.777  69.327  1.00  0.00    -0.206 A  
BRANCH  30  35
HETATM   35  C   UNL     1      -7.271  16.060  66.743  1.00  0.00    -0.107 C  
HETATM   36  O   UNL     1      -7.536  17.244  65.994  1.00  0.00    -0.353 OA 
HETATM   37  H   UNL     1      -6.870  17.352  65.325  1.00  0.00     0.000 HD 
ENDBRANCH  30  35
ENDBRANCH   6  16
ENDBRANCH   2   4
TORSDOF 3
ENDMDL
MODEL       31
REMARK 921   NORMALIZED FREE ENERGY PREDICTED BY IDOCK:   -6.05 KCAL/MOL
REMARK 922        TOTAL FREE ENERGY PREDICTED BY IDOCK:   -7.76 KCAL/MOL
REMARK 923 INTER-LIGAND FREE ENERGY PREDICTED BY IDOCK:   -7.14 KCAL/MOL
REMARK 924 INTRA-LIGAND FREE ENERGY PREDICTED BY IDOCK:   -0.62 KCAL/MOL
REMARK 927      BINDING AFFINITY PREDICTED BY RF-SCORE:    0.00 PKD
ROOT
HETATM    1  O   UNL     1     -12.835   7.135  70.786  1.00  0.00    -0.599 OA 
HETATM    2  C   UNL     1     -11.620   6.524  70.381  1.00  0.00    -0.407 C  
HETATM    3  H   UNL     1     -13.608   6.696  70.452  1.00  0.00     0.000 HD 
ENDROOT
BRANCH   2   4
HETATM    4  C   UNL     1     -10.370   7.235  70.923  1.00  0.00    -0.201 C  
HETATM    5  O   UNL     1      -9.326   7.227  69.929  1.00  0.00    -0.154 OA 
HETATM    6  C   UNL     1      -9.274   8.276  68.930  1.00  0.00    -0.147 C  
HETATM    7  H   UNL     1      -9.841   9.700  73.002  1.00  0.00     0.000 HD 
HETATM    8  C   UNL     1      -9.463   9.664  69.606  1.00  0.00    -0.210 C  
HETATM    9  O   UNL     1      -9.669   8.858  72.596  1.00  0.00    -0.163 OA 
HETATM   10  O   UNL     1      -8.302   9.997  70.410  1.00  0.00    -0.349 OA 
HETATM   11  C   UNL     1     -10.688   9.721  70.539  1.00  0.00    -0.317 C  
HETATM   12  C   UNL     1     -10.649   8.602  71.581  1.00  0.00    -0.303 C  
HETATM   13  O   UNL     1     -11.913   9.678  69.803  1.00  0.00    -0.450 OA 
HETATM   14  H   UNL     1     -12.669   9.714  70.378  1.00  0.00     0.000 HD 
HETATM   15  H   UNL     1      -8.417  10.844  70.824  1.00  0.00     0.000 HD 
BRANCH   6  16
HETATM   16  C   UNL     1     -10.082   7.933  67.588  1.00  0.00    -0.262 C  
HETATM   17  C   UNL     1      -9.015   4.271  67.192  1.00  0.00    -0.133 A  
HETATM   18  C   UNL     1      -9.474   6.663  66.977  1.00  0.00    -0.170 A  
HETATM   19  C   UNL     1      -9.717   5.412  67.578  1.00  0.00    -0.153 A  
HETATM   20  C   UNL     1      -8.042   4.358  66.207  1.00  0.00    -0.102 A  
HETATM   21  C   UNL     1      -7.824   5.574  65.562  1.00  0.00    -0.099 A  
HETATM   22  O   UNL     1      -6.834   5.632  64.622  1.00  0.00    -0.048 OA 
HETATM   23  C   UNL     1      -8.573   6.718  65.898  1.00  0.00    -0.153 A  
HETATM   24  H   UNL     1      -6.685   6.461  64.183  1.00  0.00     0.000 HD 
HETATM   25  C   UNL     1      -8.469   7.970  65.092  1.00  0.00    -0.100 C  
HETATM   26  O   UNL     1      -7.889   7.960  64.013  1.00  0.00    -0.130 OA 
HETATM   27  C   UNL     1      -9.203   9.188  65.533  1.00  0.00    -0.287 A  
HETATM   28  C   UNL     1     -10.098   9.094  66.604  1.00  0.00    -0.343 A  
HETATM   29  C   UNL     1     -10.964  10.175  66.840  1.00  0.00    -0.106 A  
HETATM   30  C   UNL     1     -10.778  11.424  66.242  1.00  0.00    -0.322 A  
HETATM   31  C   UNL     1      -9.826  11.532  65.232  1.00  0.00    -0.286 A  
HETATM   32  H   UNL     1      -8.092  11.398  63.381  1.00  0.00     0.000 HD 
HETATM   33  O   UNL     1      -8.178  10.569  63.838  1.00  0.00    -0.147 OA 
HETATM   34  C   UNL     1      -9.076  10.417  64.853  1.00  0.00    -0.208 A  
BRANCH  30  35
HETATM   35  C   UNL     1     -11.529  12.621  66.764  1.00  0.00    -0.351 C  
HETATM   36  O   UNL     1     -12.146  12.292  68.006  1.00  0.00    -0.439 OA 
HETATM   37  H   UNL     1     -12.619  13.047  68.336  1.00  0.00     0.000 HD 
ENDBRANCH  30  35
ENDBRANCH   6  16
ENDBRANCH   2   4
TORSDOF 3
ENDMDL
MODEL       32
REMARK 921   NORMALIZED FREE ENERGY PREDICTED BY IDOCK:   -6.04 KCAL/MOL
REMARK 922        TOTAL FREE ENERGY PREDICTED BY IDOCK:   -7.75 KCAL/MOL
REMARK 923 INTER-LIGAND FREE ENERGY PREDICTED BY IDOCK:   -7.17 KCAL/MOL
REMARK 924 INTRA-LIGAND FREE ENERGY PREDICTED BY IDOCK:   -0.58 KCAL/MOL
REMARK 927      BINDING AFFINITY PREDICTED BY RF-SCORE:    0.00 PKD
ROOT
HETATM    1  O   UNL     1      -7.144  13.408  68.193  1.00  0.00    -0.089 OA 
HETATM    2  C   UNL     1      -7.648  12.095  68.004  1.00  0.00    -0.123 C  
HETATM    3  H   UNL     1      -6.447  13.456  68.837  1.00  0.00     0.000 HD 
ENDROOT
BRANCH   2   4
HETATM    4  C   UNL     1      -8.775  12.019  66.962  1.00  0.00    -0.188 C  
HETATM    5  O   UNL     1      -9.524  10.799  67.130  1.00  0.00    -0.158 OA 
HETATM    6  C   UNL     1     -10.627  10.754  68.068  1.00  0.00    -0.207 C  
HETATM    7  H   UNL     1     -10.650  14.215  65.433  1.00  0.00     0.000 HD 
HETATM    8  C   UNL     1     -11.532  12.005  67.884  1.00  0.00    -0.330 C  
HETATM    9  O   UNL     1     -10.130  13.424  65.507  1.00  0.00    -0.295 OA 
HETATM   10  O   UNL     1     -12.245  11.932  66.623  1.00  0.00    -0.493 OA 
HETATM   11  C   UNL     1     -10.743  13.328  67.880  1.00  0.00    -0.239 C  
HETATM   12  C   UNL     1      -9.620  13.304  66.842  1.00  0.00    -0.249 C  
HETATM   13  O   UNL     1     -10.222  13.636  69.175  1.00  0.00    -0.427 OA 
HETATM   14  H   UNL     1      -9.735  14.451  69.173  1.00  0.00     0.000 HD 
HETATM   15  H   UNL     1     -12.798  12.697  66.509  1.00  0.00     0.000 HD 
BRANCH   6  16
HETATM   16  C   UNL     1     -10.204  10.294  69.545  1.00  0.00    -0.261 C  
HETATM   17  C   UNL     1      -7.892   7.383  68.602  1.00  0.00    -0.122 A  
HETATM   18  C   UNL     1      -9.634   8.871  69.455  1.00  0.00    -0.171 A  
HETATM   19  C   UNL     1      -8.355   8.664  68.902  1.00  0.00    -0.124 A  
HETATM   20  C   UNL     1      -8.704   6.282  68.834  1.00  0.00    -0.125 A  
HETATM   21  C   UNL     1      -9.950   6.461  69.431  1.00  0.00    -0.158 A  
HETATM   22  O   UNL     1     -10.737   5.358  69.612  1.00  0.00    -0.308 OA 
HETATM   23  C   UNL     1     -10.401   7.743  69.799  1.00  0.00    -0.221 A  
HETATM   24  H   UNL     1     -11.586   5.481  70.019  1.00  0.00     0.000 HD 
HETATM   25  C   UNL     1     -11.650   7.919  70.597  1.00  0.00    -0.204 C  
HETATM   26  O   UNL     1     -12.191   6.950  71.116  1.00  0.00    -0.358 OA 
HETATM   27  C   UNL     1     -12.146   9.293  70.885  1.00  0.00    -0.297 A  
HETATM   28  C   UNL     1     -11.353  10.391  70.538  1.00  0.00    -0.424 A  
HETATM   29  C   UNL     1     -11.711  11.653  71.043  1.00  0.00     0.449 A  
HETATM   30  C   UNL     1     -12.957  11.897  71.628  1.00  0.00    -0.447 A  
HETATM   31  C   UNL     1     -13.779  10.806  71.896  1.00  0.00    -0.004 A  
HETATM   32  H   UNL     1     -15.011   8.628  72.335  1.00  0.00     0.000 HD 
HETATM   33  O   UNL     1     -14.192   8.479  71.876  1.00  0.00    -0.420 OA 
HETATM   34  C   UNL     1     -13.362   9.515  71.566  1.00  0.00    -0.393 A  
BRANCH  30  35
HETATM   35  C   UNL     1     -13.410  13.315  71.858  1.00  0.00    -0.451 C  
HETATM   36  O   UNL     1     -12.891  14.153  70.828  1.00  0.00    -0.331 OA 
HETATM   37  H   UNL     1     -13.177  15.048  70.973  1.00  0.00     0.000 HD 
ENDBRANCH  30  35
ENDBRANCH   6  16
ENDBRANCH   2   4
TORSDOF 3
ENDMDL
MODEL       33
REMARK 921   NORMALIZED FREE ENERGY PREDICTED BY IDOCK:   -5.94 KCAL/MOL
REMARK 922        TOTAL FREE ENERGY PREDICTED BY IDOCK:   -7.64 KCAL/MOL
REMARK 923 INTER-LIGAND FREE ENERGY PREDICTED BY IDOCK:   -7.77 KCAL/MOL
REMARK 924 INTRA-LIGAND FREE ENERGY PREDICTED BY IDOCK:    0.14 KCAL/MOL
REMARK 927      BINDING AFFINITY PREDICTED BY RF-SCORE:    0.00 PKD
ROOT
HETATM    1  O   UNL     1      -6.247  10.516  68.074  1.00  0.00    -0.054 OA 
HETATM    2  C   UNL     1      -7.164  11.544  67.734  1.00  0.00    -0.094 C  
HETATM    3  H   UNL     1      -5.516  10.448  67.472  1.00  0.00     0.000 HD 
ENDROOT
BRANCH   2   4
HETATM    4  C   UNL     1      -8.346  11.655  68.710  1.00  0.00    -0.039 C  
HETATM    5  O   UNL     1      -8.824  13.013  68.757  1.00  0.00     0.000 OA 
HETATM    6  C   UNL     1      -9.806  13.466  67.791  1.00  0.00    -0.234 C  
HETATM    7  H   UNL     1     -10.746   9.649  69.656  1.00  0.00     0.000 HD 
HETATM    8  C   UNL     1     -10.951  12.420  67.668  1.00  0.00    -0.236 C  
HETATM    9  O   UNL     1     -10.077  10.314  69.773  1.00  0.00    -0.236 OA 
HETATM   10  O   UNL     1     -11.750  12.399  68.879  1.00  0.00    -0.288 OA 
HETATM   11  C   UNL     1     -10.437  10.985  67.442  1.00  0.00    -0.218 C  
HETATM   12  C   UNL     1      -9.432  10.576  68.519  1.00  0.00    -0.164 C  
HETATM   13  O   UNL     1      -9.868  10.827  66.140  1.00  0.00    -0.204 OA 
HETATM   14  H   UNL     1      -9.552   9.943  66.000  1.00  0.00     0.000 HD 
HETATM   15  H   UNL     1     -12.449  11.760  68.804  1.00  0.00     0.000 HD 
BRANCH   6  16
HETATM   16  C   UNL     1      -9.167  14.100  66.465  1.00  0.00    -0.247 C  
HETATM   17  C   UNL     1      -6.976  16.785  68.106  1.00  0.00    -0.160 A  
HETATM   18  C   UNL     1      -8.597  15.479  66.823  1.00  0.00    -0.307 A  
HETATM   19  C   UNL     1      -7.409  15.571  67.576  1.00  0.00    -0.216 A  
HETATM   20  C   UNL     1      -7.730  17.933  67.910  1.00  0.00    -0.224 A  
HETATM   21  C   UNL     1      -8.879  17.875  67.124  1.00  0.00    -0.247 A  
HETATM   22  O   UNL     1      -9.616  19.017  66.981  1.00  0.00    -0.302 OA 
HETATM   23  C   UNL     1      -9.289  16.667  66.527  1.00  0.00    -0.290 A  
HETATM   24  H   UNL     1     -10.399  18.977  66.445  1.00  0.00     0.000 HD 
HETATM   25  C   UNL     1     -10.411  16.637  65.544  1.00  0.00    -0.267 C  
HETATM   26  O   UNL     1     -10.857  17.683  65.087  1.00  0.00    -0.664 OA 
HETATM   27  C   UNL     1     -10.880  15.329  65.007  1.00  0.00    -0.457 A  
HETATM   28  C   UNL     1     -10.160  14.170  65.314  1.00  0.00    -0.364 A  
HETATM   29  C   UNL     1     -10.459  12.997  64.600  1.00  0.00    -0.400 A  
HETATM   30  C   UNL     1     -11.610  12.873  63.817  1.00  0.00    -0.538 A  
HETATM   31  C   UNL     1     -12.369  14.016  63.582  1.00  0.00    -0.087 A  
HETATM   32  H   UNL     1     -13.494  16.271  63.267  1.00  0.00     0.000 HD 
HETATM   33  O   UNL     1     -12.748  16.333  63.853  1.00  0.00    -0.403 OA 
HETATM   34  C   UNL     1     -11.986  15.238  64.137  1.00  0.00    -0.130 A  
BRANCH  30  35
HETATM   35  C   UNL     1     -12.044  11.512  63.338  1.00  0.00    -0.028 C  
HETATM   36  O   UNL     1     -10.899  10.754  62.956  1.00  0.00    -0.676 OA 
HETATM   37  H   UNL     1     -11.173   9.896  62.654  1.00  0.00     0.000 HD 
ENDBRANCH  30  35
ENDBRANCH   6  16
ENDBRANCH   2   4
TORSDOF 3
ENDMDL
MODEL       34
REMARK 921   NORMALIZED FREE ENERGY PREDICTED BY IDOCK:   -5.94 KCAL/MOL
REMARK 922        TOTAL FREE ENERGY PREDICTED BY IDOCK:   -7.63 KCAL/MOL
REMARK 923 INTER-LIGAND FREE ENERGY PREDICTED BY IDOCK:   -7.19 KCAL/MOL
REMARK 924 INTRA-LIGAND FREE ENERGY PREDICTED BY IDOCK:   -0.44 KCAL/MOL
REMARK 927      BINDING AFFINITY PREDICTED BY RF-SCORE:    0.00 PKD
ROOT
HETATM    1  O   UNL     1      -9.763  13.696  65.491  1.00  0.00    -0.491 OA 
HETATM    2  C   UNL     1      -9.417  12.407  65.973  1.00  0.00    -0.166 C  
HETATM    3  H   UNL     1     -10.471  13.684  64.858  1.00  0.00     0.000 HD 
ENDROOT
BRANCH   2   4
HETATM    4  C   UNL     1      -8.272  12.426  66.998  1.00  0.00    -0.141 C  
HETATM    5  O   UNL     1      -8.804  12.525  68.334  1.00  0.00    -0.181 OA 
HETATM    6  C   UNL     1      -9.187  11.323  69.047  1.00  0.00     0.021 C  
HETATM    7  H   UNL     1      -5.284  11.110  67.138  1.00  0.00     0.000 HD 
HETATM    8  C   UNL     1      -8.073  10.247  68.913  1.00  0.00    -0.123 C  
HETATM    9  O   UNL     1      -5.938  11.786  67.268  1.00  0.00    -0.091 OA 
HETATM   10  O   UNL     1      -6.894  10.642  69.660  1.00  0.00    -0.093 OA 
HETATM   11  C   UNL     1      -7.627  10.017  67.456  1.00  0.00    -0.091 C  
HETATM   12  C   UNL     1      -7.209  11.328  66.788  1.00  0.00    -0.142 C  
HETATM   13  O   UNL     1      -8.642   9.365  66.689  1.00  0.00    -0.128 OA 
HETATM   14  H   UNL     1      -8.367   9.223  65.791  1.00  0.00     0.000 HD 
HETATM   15  H   UNL     1      -6.213   9.985  69.578  1.00  0.00     0.000 HD 
BRANCH   6  16
HETATM   16  C   UNL     1     -10.721  10.906  68.837  1.00  0.00    -0.252 C  
HETATM   17  C   UNL     1     -12.313  14.381  69.143  1.00  0.00    -0.156 A  
HETATM   18  C   UNL     1     -11.602  12.051  69.354  1.00  0.00    -0.393 A  
HETATM   19  C   UNL     1     -11.707  13.243  68.611  1.00  0.00    -0.376 A  
HETATM   20  C   UNL     1     -12.814  14.356  70.437  1.00  0.00    -0.301 A  
HETATM   21  C   UNL     1     -12.769  13.171  71.168  1.00  0.00    -0.300 A  
HETATM   22  O   UNL     1     -13.240  13.193  72.451  1.00  0.00    -0.483 OA 
HETATM   23  C   UNL     1     -12.219  11.998  70.617  1.00  0.00    -0.409 A  
HETATM   24  H   UNL     1     -13.210  12.385  72.950  1.00  0.00     0.000 HD 
HETATM   25  C   UNL     1     -12.331  10.690  71.325  1.00  0.00    -0.383 C  
HETATM   26  O   UNL     1     -13.074  10.575  72.292  1.00  0.00    -0.394 OA 
HETATM   27  C   UNL     1     -11.655   9.490  70.758  1.00  0.00    -0.378 A  
HETATM   28  C   UNL     1     -11.060   9.576  69.496  1.00  0.00    -0.168 A  
HETATM   29  C   UNL     1     -10.658   8.384  68.870  1.00  0.00    -0.162 A  
HETATM   30  C   UNL     1     -10.569   7.172  69.561  1.00  0.00    -0.247 A  
HETATM   31  C   UNL     1     -11.089   7.114  70.851  1.00  0.00    -0.290 A  
HETATM   32  H   UNL     1     -12.189   7.294  73.133  1.00  0.00     0.000 HD 
HETATM   33  O   UNL     1     -12.184   8.130  72.682  1.00  0.00    -0.334 OA 
HETATM   34  C   UNL     1     -11.663   8.249  71.428  1.00  0.00    -0.287 A  
BRANCH  30  35
HETATM   35  C   UNL     1      -9.838   6.010  68.940  1.00  0.00    -0.140 C  
HETATM   36  O   UNL     1      -9.110   6.460  67.800  1.00  0.00    -0.114 OA 
HETATM   37  H   UNL     1      -8.649   5.727  67.409  1.00  0.00     0.000 HD 
ENDBRANCH  30  35
ENDBRANCH   6  16
ENDBRANCH   2   4
TORSDOF 3
ENDMDL
MODEL       35
REMARK 921   NORMALIZED FREE ENERGY PREDICTED BY IDOCK:   -5.90 KCAL/MOL
REMARK 922        TOTAL FREE ENERGY PREDICTED BY IDOCK:   -7.59 KCAL/MOL
REMARK 923 INTER-LIGAND FREE ENERGY PREDICTED BY IDOCK:   -7.17 KCAL/MOL
REMARK 924 INTRA-LIGAND FREE ENERGY PREDICTED BY IDOCK:   -0.43 KCAL/MOL
REMARK 927      BINDING AFFINITY PREDICTED BY RF-SCORE:    0.00 PKD
ROOT
HETATM    1  O   UNL     1      -9.583   6.013  69.656  1.00  0.00    -0.144 OA 
HETATM    2  C   UNL     1      -8.804   6.524  68.586  1.00  0.00    -0.121 C  
HETATM    3  H   UNL     1     -10.257   5.405  69.375  1.00  0.00     0.000 HD 
ENDROOT
BRANCH   2   4
HETATM    4  C   UNL     1      -7.714   7.507  69.040  1.00  0.00    -0.117 C  
HETATM    5  O   UNL     1      -7.668   8.642  68.153  1.00  0.00    -0.099 OA 
HETATM    6  C   UNL     1      -8.541   9.776  68.387  1.00  0.00    -0.119 C  
HETATM    7  H   UNL     1      -6.443   8.363  71.927  1.00  0.00     0.000 HD 
HETATM    8  C   UNL     1      -8.502  10.174  69.890  1.00  0.00    -0.081 C  
HETATM    9  O   UNL     1      -6.423   8.156  71.000  1.00  0.00    -0.036 OA 
HETATM   10  O   UNL     1      -7.214  10.749  70.228  1.00  0.00    -0.453 OA 
HETATM   11  C   UNL     1      -8.727   8.981  70.839  1.00  0.00    -0.229 C  
HETATM   12  C   UNL     1      -7.747   7.844  70.545  1.00  0.00    -0.086 C  
HETATM   13  O   UNL     1     -10.075   8.508  70.781  1.00  0.00    -0.188 OA 
HETATM   14  H   UNL     1     -10.213   7.772  71.366  1.00  0.00     0.000 HD 
HETATM   15  H   UNL     1      -7.190  10.992  71.146  1.00  0.00     0.000 HD 
BRANCH   6  16
HETATM   16  C   UNL     1      -9.951   9.675  67.631  1.00  0.00    -0.218 C  
HETATM   17  C   UNL     1      -8.683   8.543  64.193  1.00  0.00     0.114 A  
HETATM   18  C   UNL     1      -9.682   9.670  66.119  1.00  0.00    -0.317 A  
HETATM   19  C   UNL     1      -9.144   8.520  65.509  1.00  0.00    -0.150 A  
HETATM   20  C   UNL     1      -8.734   9.722  63.463  1.00  0.00    -0.234 A  
HETATM   21  C   UNL     1      -9.312  10.857  64.030  1.00  0.00    -0.237 A  
HETATM   22  O   UNL     1      -9.313  12.009  63.296  1.00  0.00    -0.651 OA 
HETATM   23  C   UNL     1      -9.841  10.826  65.335  1.00  0.00    -0.317 A  
HETATM   24  H   UNL     1      -9.707  12.782  63.682  1.00  0.00     0.000 HD 
HETATM   25  C   UNL     1     -10.617  11.981  65.876  1.00  0.00    -0.265 C  
HETATM   26  O   UNL     1     -10.979  12.883  65.131  1.00  0.00    -0.280 OA 
HETATM   27  C   UNL     1     -11.079  11.952  67.292  1.00  0.00    -0.344 A  
HETATM   28  C   UNL     1     -10.913  10.782  68.039  1.00  0.00    -0.336 A  
HETATM   29  C   UNL     1     -11.577  10.685  69.274  1.00  0.00    -0.346 A  
HETATM   30  C   UNL     1     -12.152  11.793  69.901  1.00  0.00    -0.359 A  
HETATM   31  C   UNL     1     -12.240  12.982  69.181  1.00  0.00    -0.106 A  
HETATM   32  H   UNL     1     -12.333  14.966  67.598  1.00  0.00     0.000 HD 
HETATM   33  O   UNL     1     -11.884  14.227  67.204  1.00  0.00    -0.390 OA 
HETATM   34  C   UNL     1     -11.746  13.049  67.876  1.00  0.00    -0.357 A  
BRANCH  30  35
HETATM   35  C   UNL     1     -12.563  11.704  71.348  1.00  0.00    -0.286 C  
HETATM   36  O   UNL     1     -12.697  10.334  71.720  1.00  0.00    -0.408 OA 
HETATM   37  H   UNL     1     -12.957  10.277  72.633  1.00  0.00     0.000 HD 
ENDBRANCH  30  35
ENDBRANCH   6  16
ENDBRANCH   2   4
TORSDOF 3
ENDMDL
MODEL       36
REMARK 921   NORMALIZED FREE ENERGY PREDICTED BY IDOCK:   -5.86 KCAL/MOL
REMARK 922        TOTAL FREE ENERGY PREDICTED BY IDOCK:   -7.54 KCAL/MOL
REMARK 923 INTER-LIGAND FREE ENERGY PREDICTED BY IDOCK:   -7.15 KCAL/MOL
REMARK 924 INTRA-LIGAND FREE ENERGY PREDICTED BY IDOCK:   -0.39 KCAL/MOL
REMARK 927      BINDING AFFINITY PREDICTED BY RF-SCORE:    0.00 PKD
ROOT
HETATM    1  O   UNL     1     -11.581  11.962  63.226  1.00  0.00    -0.648 OA 
HETATM    2  C   UNL     1     -11.086  11.559  64.494  1.00  0.00    -0.273 C  
HETATM    3  H   UNL     1     -11.118  11.566  62.498  1.00  0.00     0.000 HD 
ENDROOT
BRANCH   2   4
HETATM    4  C   UNL     1     -11.836  12.200  65.673  1.00  0.00    -0.276 C  
HETATM    5  O   UNL     1     -11.627  11.428  66.872  1.00  0.00    -0.492 OA 
HETATM    6  C   UNL     1     -10.465  11.683  67.700  1.00  0.00    -0.191 C  
HETATM    7  H   UNL     1     -12.637  15.258  66.504  1.00  0.00     0.000 HD 
HETATM    8  C   UNL     1     -10.296  13.212  67.923  1.00  0.00    -0.231 C  
HETATM    9  O   UNL     1     -12.772  14.321  66.415  1.00  0.00    -0.314 OA 
HETATM   10  O   UNL     1     -11.355  13.719  68.776  1.00  0.00    -0.248 OA 
HETATM   11  C   UNL     1     -10.346  14.024  66.614  1.00  0.00    -0.278 C  
HETATM   12  C   UNL     1     -11.615  13.720  65.817  1.00  0.00    -0.331 C  
HETATM   13  O   UNL     1      -9.184  13.800  65.810  1.00  0.00    -0.485 OA 
HETATM   14  H   UNL     1      -9.214  14.300  65.003  1.00  0.00     0.000 HD 
HETATM   15  H   UNL     1     -11.252  14.654  68.912  1.00  0.00     0.000 HD 
BRANCH   6  16
HETATM   16  C   UNL     1      -9.187  10.793  67.316  1.00  0.00    -0.158 C  
HETATM   17  C   UNL     1     -10.911   7.375  67.090  1.00  0.00    -0.340 A  
HETATM   18  C   UNL     1      -9.526   9.324  67.603  1.00  0.00    -0.156 A  
HETATM   19  C   UNL     1     -10.407   8.630  66.750  1.00  0.00    -0.336 A  
HETATM   20  C   UNL     1     -10.557   6.792  68.299  1.00  0.00    -0.276 A  
HETATM   21  C   UNL     1      -9.645   7.437  69.132  1.00  0.00    -0.156 A  
HETATM   22  O   UNL     1      -9.346   6.852  70.330  1.00  0.00    -0.162 OA 
HETATM   23  C   UNL     1      -9.079   8.674  68.767  1.00  0.00    -0.142 A  
HETATM   24  H   UNL     1      -8.724   7.292  70.897  1.00  0.00     0.000 HD 
HETATM   25  C   UNL     1      -7.972   9.279  69.566  1.00  0.00    -0.098 C  
HETATM   26  O   UNL     1      -7.403   8.619  70.427  1.00  0.00    -0.052 OA 
HETATM   27  C   UNL     1      -7.465  10.632  69.207  1.00  0.00    -0.130 A  
HETATM   28  C   UNL     1      -7.925  11.243  68.036  1.00  0.00    -0.119 A  
HETATM   29  C   UNL     1      -7.253  12.391  67.580  1.00  0.00    -0.130 A  
HETATM   30  C   UNL     1      -6.348  13.093  68.381  1.00  0.00    -0.084 A  
HETATM   31  C   UNL     1      -5.956  12.517  69.587  1.00  0.00    -0.123 A  
HETATM   32  H   UNL     1      -5.372  11.186  71.669  1.00  0.00     0.000 HD 
HETATM   33  O   UNL     1      -6.038  10.748  71.151  1.00  0.00    -0.351 OA 
HETATM   34  C   UNL     1      -6.477  11.282  69.976  1.00  0.00    -0.114 A  
BRANCH  30  35
HETATM   35  C   UNL     1      -5.905  14.473  67.973  1.00  0.00    -0.143 C  
HETATM   36  O   UNL     1      -6.807  14.995  67.000  1.00  0.00    -0.313 OA 
HETATM   37  H   UNL     1      -6.527  15.866  66.743  1.00  0.00     0.000 HD 
ENDBRANCH  30  35
ENDBRANCH   6  16
ENDBRANCH   2   4
TORSDOF 3
ENDMDL
MODEL       37
REMARK 921   NORMALIZED FREE ENERGY PREDICTED BY IDOCK:   -5.74 KCAL/MOL
REMARK 922        TOTAL FREE ENERGY PREDICTED BY IDOCK:   -7.39 KCAL/MOL
REMARK 923 INTER-LIGAND FREE ENERGY PREDICTED BY IDOCK:   -6.94 KCAL/MOL
REMARK 924 INTRA-LIGAND FREE ENERGY PREDICTED BY IDOCK:   -0.46 KCAL/MOL
REMARK 927      BINDING AFFINITY PREDICTED BY RF-SCORE:    0.00 PKD
ROOT
HETATM    1  O   UNL     1      -6.209  13.104  71.123  1.00  0.00    -0.523 OA 
HETATM    2  C   UNL     1      -5.963  12.611  69.816  1.00  0.00    -0.129 C  
HETATM    3  H   UNL     1      -6.410  12.421  71.752  1.00  0.00     0.000 HD 
ENDROOT
BRANCH   2   4
HETATM    4  C   UNL     1      -5.637  13.715  68.798  1.00  0.00    -0.083 C  
HETATM    5  O   UNL     1      -6.089  13.329  67.485  1.00  0.00    -0.232 OA 
HETATM    6  C   UNL     1      -7.454  13.604  67.083  1.00  0.00     0.108 C  
HETATM    7  H   UNL     1      -5.412  16.973  68.929  1.00  0.00     0.000 HD 
HETATM    8  C   UNL     1      -7.832  15.067  67.452  1.00  0.00    -0.200 C  
HETATM    9  O   UNL     1      -5.163  16.099  68.653  1.00  0.00    -0.098 OA 
HETATM   10  O   UNL     1      -7.107  16.004  66.614  1.00  0.00    -0.193 OA 
HETATM   11  C   UNL     1      -7.507  15.425  68.915  1.00  0.00    -0.152 C  
HETATM   12  C   UNL     1      -6.042  15.134  69.247  1.00  0.00    -0.109 C  
HETATM   13  O   UNL     1      -8.372  14.747  69.829  1.00  0.00    -0.422 OA 
HETATM   14  H   UNL     1      -8.172  14.968  70.731  1.00  0.00     0.000 HD 
HETATM   15  H   UNL     1      -7.338  16.897  66.840  1.00  0.00     0.000 HD 
BRANCH   6  16
HETATM   16  C   UNL     1      -8.478  12.415  67.409  1.00  0.00    -0.179 C  
HETATM   17  C   UNL     1      -6.558   9.531  65.765  1.00  0.00    -0.075 A  
HETATM   18  C   UNL     1      -8.157  11.239  66.476  1.00  0.00    -0.160 A  
HETATM   19  C   UNL     1      -7.004  10.461  66.703  1.00  0.00    -0.111 A  
HETATM   20  C   UNL     1      -7.246   9.370  64.571  1.00  0.00    -0.105 A  
HETATM   21  C   UNL     1      -8.418  10.090  64.350  1.00  0.00    -0.173 A  
HETATM   22  O   UNL     1      -9.050   9.932  63.149  1.00  0.00    -0.244 OA 
HETATM   23  C   UNL     1      -8.914  10.983  65.319  1.00  0.00    -0.177 A  
HETATM   24  H   UNL     1      -9.849  10.424  62.998  1.00  0.00     0.000 HD 
HETATM   25  C   UNL     1     -10.256  11.618  65.164  1.00  0.00    -0.274 C  
HETATM   26  O   UNL     1     -11.029  11.221  64.302  1.00  0.00    -0.354 OA 
HETATM   27  C   UNL     1     -10.706  12.630  66.160  1.00  0.00    -0.293 A  
HETATM   28  C   UNL     1      -9.932  12.851  67.304  1.00  0.00    -0.224 A  
HETATM   29  C   UNL     1     -10.492  13.610  68.346  1.00  0.00    -0.251 A  
HETATM   30  C   UNL     1     -11.651  14.372  68.174  1.00  0.00    -0.360 A  
HETATM   31  C   UNL     1     -12.374  14.209  66.996  1.00  0.00    -0.253 A  
HETATM   32  H   UNL     1     -13.514  13.637  64.799  1.00  0.00     0.000 HD 
HETATM   33  O   UNL     1     -12.690  13.173  64.895  1.00  0.00    -0.639 OA 
HETATM   34  C   UNL     1     -11.929  13.318  66.018  1.00  0.00    -0.423 A  
BRANCH  30  35
HETATM   35  C   UNL     1     -12.027  15.403  69.206  1.00  0.00    -0.310 C  
HETATM   36  O   UNL     1     -10.903  16.238  69.477  1.00  0.00    -0.297 OA 
HETATM   37  H   UNL     1     -11.139  16.888  70.128  1.00  0.00     0.000 HD 
ENDBRANCH  30  35
ENDBRANCH   6  16
ENDBRANCH   2   4
TORSDOF 3
ENDMDL
MODEL       38
REMARK 921   NORMALIZED FREE ENERGY PREDICTED BY IDOCK:   -5.67 KCAL/MOL
REMARK 922        TOTAL FREE ENERGY PREDICTED BY IDOCK:   -7.32 KCAL/MOL
REMARK 923 INTER-LIGAND FREE ENERGY PREDICTED BY IDOCK:   -7.15 KCAL/MOL
REMARK 924 INTRA-LIGAND FREE ENERGY PREDICTED BY IDOCK:   -0.17 KCAL/MOL
REMARK 927      BINDING AFFINITY PREDICTED BY RF-SCORE:    0.00 PKD
ROOT
HETATM    1  O   UNL     1     -13.483   9.867  70.934  1.00  0.00    -0.540 OA 
HETATM    2  C   UNL     1     -13.160  10.766  69.884  1.00  0.00     0.387 C  
HETATM    3  H   UNL     1     -14.246   9.331  70.750  1.00  0.00     0.000 HD 
ENDROOT
BRANCH   2   4
HETATM    4  C   UNL     1     -11.925  11.631  70.180  1.00  0.00    -0.359 C  
HETATM    5  O   UNL     1     -10.725  10.844  70.047  1.00  0.00    -0.175 OA 
HETATM    6  C   UNL     1     -10.096  10.701  68.749  1.00  0.00    -0.191 C  
HETATM    7  H   UNL     1     -11.176  14.787  69.783  1.00  0.00     0.000 HD 
HETATM    8  C   UNL     1      -9.996  12.088  68.052  1.00  0.00    -0.197 C  
HETATM    9  O   UNL     1     -11.185  13.950  70.232  1.00  0.00    -0.030 OA 
HETATM   10  O   UNL     1      -9.028  12.928  68.732  1.00  0.00    -0.386 OA 
HETATM   11  C   UNL     1     -11.331  12.857  68.041  1.00  0.00    -0.292 C  
HETATM   12  C   UNL     1     -11.910  12.990  69.451  1.00  0.00    -0.322 C  
HETATM   13  O   UNL     1     -12.283  12.250  67.164  1.00  0.00    -0.506 OA 
HETATM   14  H   UNL     1     -13.106  12.724  67.157  1.00  0.00     0.000 HD 
HETATM   15  H   UNL     1      -8.968  13.775  68.307  1.00  0.00     0.000 HD 
BRANCH   6  16
HETATM   16  C   UNL     1     -10.610   9.432  67.916  1.00  0.00    -0.293 C  
HETATM   17  C   UNL     1     -10.515   6.822  70.724  1.00  0.00    -0.242 A  
HETATM   18  C   UNL     1     -10.239   8.165  68.700  1.00  0.00    -0.226 A  
HETATM   19  C   UNL     1     -10.953   7.831  69.867  1.00  0.00    -0.194 A  
HETATM   20  C   UNL     1      -9.343   6.135  70.441  1.00  0.00    -0.173 A  
HETATM   21  C   UNL     1      -8.651   6.413  69.264  1.00  0.00    -0.125 A  
HETATM   22  O   UNL     1      -7.483   5.742  69.034  1.00  0.00    -0.080 OA 
HETATM   23  C   UNL     1      -9.120   7.384  68.358  1.00  0.00    -0.132 A  
HETATM   24  H   UNL     1      -7.011   5.932  68.232  1.00  0.00     0.000 HD 
HETATM   25  C   UNL     1      -8.484   7.557  67.019  1.00  0.00    -0.122 C  
HETATM   26  O   UNL     1      -7.682   6.729  66.607  1.00  0.00    -0.101 OA 
HETATM   27  C   UNL     1      -8.945   8.657  66.127  1.00  0.00    -0.221 A  
HETATM   28  C   UNL     1     -10.067   9.407  66.494  1.00  0.00    -0.332 A  
HETATM   29  C   UNL     1     -10.638  10.259  65.533  1.00  0.00    -0.025 A  
HETATM   30  C   UNL     1      -9.978  10.594  64.347  1.00  0.00    -0.415 A  
HETATM   31  C   UNL     1      -8.814   9.900  64.026  1.00  0.00    -0.253 A  
HETATM   32  H   UNL     1      -6.782   8.418  63.675  1.00  0.00     0.000 HD 
HETATM   33  O   UNL     1      -7.199   8.244  64.511  1.00  0.00    -0.078 OA 
HETATM   34  C   UNL     1      -8.326   8.915  64.887  1.00  0.00    -0.172 A  
BRANCH  30  35
HETATM   35  C   UNL     1     -10.480  11.743  63.512  1.00  0.00    -0.449 C  
HETATM   36  O   UNL     1     -11.807  11.467  63.071  1.00  0.00    -0.903 OA 
HETATM   37  H   UNL     1     -12.124  12.191  62.544  1.00  0.00     0.000 HD 
ENDBRANCH  30  35
ENDBRANCH   6  16
ENDBRANCH   2   4
TORSDOF 3
ENDMDL
MODEL       39
REMARK 921   NORMALIZED FREE ENERGY PREDICTED BY IDOCK:   -5.66 KCAL/MOL
REMARK 922        TOTAL FREE ENERGY PREDICTED BY IDOCK:   -7.31 KCAL/MOL
REMARK 923 INTER-LIGAND FREE ENERGY PREDICTED BY IDOCK:   -7.25 KCAL/MOL
REMARK 924 INTRA-LIGAND FREE ENERGY PREDICTED BY IDOCK:   -0.05 KCAL/MOL
REMARK 927      BINDING AFFINITY PREDICTED BY RF-SCORE:    0.00 PKD
ROOT
HETATM    1  O   UNL     1     -13.103  14.022  69.770  1.00  0.00    -0.190 OA 
HETATM    2  C   UNL     1     -12.355  13.498  68.684  1.00  0.00     0.065 C  
HETATM    3  H   UNL     1     -13.988  13.680  69.819  1.00  0.00     0.000 HD 
ENDROOT
BRANCH   2   4
HETATM    4  C   UNL     1     -10.923  14.051  68.607  1.00  0.00    -0.263 C  
HETATM    5  O   UNL     1      -9.969  12.986  68.786  1.00  0.00    -0.144 OA 
HETATM    6  C   UNL     1      -9.541  12.202  67.644  1.00  0.00    -0.190 C  
HETATM    7  H   UNL     1      -9.486  16.503  66.994  1.00  0.00     0.000 HD 
HETATM    8  C   UNL     1      -9.188  13.142  66.457  1.00  0.00    -0.177 C  
HETATM    9  O   UNL     1      -9.646  15.932  67.736  1.00  0.00    -0.216 OA 
HETATM   10  O   UNL     1      -7.978  13.888  66.744  1.00  0.00    -0.357 OA 
HETATM   11  C   UNL     1     -10.292  14.174  66.153  1.00  0.00    -0.300 C  
HETATM   12  C   UNL     1     -10.662  14.977  67.401  1.00  0.00    -0.289 C  
HETATM   13  O   UNL     1     -11.453  13.555  65.593  1.00  0.00    -0.308 OA 
HETATM   14  H   UNL     1     -12.134  14.190  65.406  1.00  0.00     0.000 HD 
HETATM   15  H   UNL     1      -7.763  14.463  66.019  1.00  0.00     0.000 HD 
BRANCH   6  16
HETATM   16  C   UNL     1     -10.434  10.896  67.382  1.00  0.00    -0.263 C  
HETATM   17  C   UNL     1     -11.302  10.051  71.020  1.00  0.00    -0.434 A  
HETATM   18  C   UNL     1     -10.534  10.115  68.700  1.00  0.00    -0.225 A  
HETATM   19  C   UNL     1     -11.349  10.602  69.741  1.00  0.00    -0.371 A  
HETATM   20  C   UNL     1     -10.426   9.009  71.292  1.00  0.00    -0.381 A  
HETATM   21  C   UNL     1      -9.651   8.477  70.264  1.00  0.00    -0.167 A  
HETATM   22  O   UNL     1      -8.774   7.476  70.575  1.00  0.00    -0.143 OA 
HETATM   23  C   UNL     1      -9.739   8.983  68.953  1.00  0.00    -0.166 A  
HETATM   24  H   UNL     1      -8.246   7.114  69.874  1.00  0.00     0.000 HD 
HETATM   25  C   UNL     1      -9.048   8.303  67.818  1.00  0.00    -0.132 C  
HETATM   26  O   UNL     1      -8.564   7.188  67.971  1.00  0.00    -0.127 OA 
HETATM   27  C   UNL     1      -9.085   8.920  66.463  1.00  0.00    -0.206 A  
HETATM   28  C   UNL     1      -9.895  10.039  66.246  1.00  0.00    -0.297 A  
HETATM   29  C   UNL     1     -10.118  10.448  64.920  1.00  0.00    -0.382 A  
HETATM   30  C   UNL     1      -9.354   9.968  63.853  1.00  0.00    -0.315 A  
HETATM   31  C   UNL     1      -8.486   8.906  64.093  1.00  0.00    -0.156 A  
HETATM   32  H   UNL     1      -7.069   6.926  64.817  1.00  0.00     0.000 HD 
HETATM   33  O   UNL     1      -7.542   7.302  65.550  1.00  0.00    -0.087 OA 
HETATM   34  C   UNL     1      -8.384   8.361  65.375  1.00  0.00    -0.157 A  
BRANCH  30  35
HETATM   35  C   UNL     1      -9.414  10.664  62.518  1.00  0.00    -0.254 C  
HETATM   36  O   UNL     1      -8.260  11.484  62.356  1.00  0.00    -0.620 OA 
HETATM   37  H   UNL     1      -8.298  11.923  61.514  1.00  0.00     0.000 HD 
ENDBRANCH  30  35
ENDBRANCH   6  16
ENDBRANCH   2   4
TORSDOF 3
ENDMDL
MODEL       40
REMARK 921   NORMALIZED FREE ENERGY PREDICTED BY IDOCK:   -5.65 KCAL/MOL
REMARK 922        TOTAL FREE ENERGY PREDICTED BY IDOCK:   -7.29 KCAL/MOL
REMARK 923 INTER-LIGAND FREE ENERGY PREDICTED BY IDOCK:   -6.81 KCAL/MOL
REMARK 924 INTRA-LIGAND FREE ENERGY PREDICTED BY IDOCK:   -0.48 KCAL/MOL
REMARK 927      BINDING AFFINITY PREDICTED BY RF-SCORE:    0.00 PKD
ROOT
HETATM    1  O   UNL     1      -6.099   8.438  67.138  1.00  0.00    -0.052 OA 
HETATM    2  C   UNL     1      -6.573   7.380  67.958  1.00  0.00    -0.054 C  
HETATM    3  H   UNL     1      -5.364   8.907  67.515  1.00  0.00     0.000 HD 
ENDROOT
BRANCH   2   4
HETATM    4  C   UNL     1      -7.762   6.622  67.348  1.00  0.00    -0.109 C  
HETATM    5  O   UNL     1      -8.708   6.273  68.378  1.00  0.00    -0.117 OA 
HETATM    6  C   UNL     1      -9.736   7.219  68.763  1.00  0.00    -0.151 C  
HETATM    7  H   UNL     1      -9.304   6.689  64.467  1.00  0.00     0.000 HD 
HETATM    8  C   UNL     1     -10.408   7.820  67.496  1.00  0.00    -0.264 C  
HETATM    9  O   UNL     1      -8.933   6.281  65.241  1.00  0.00    -0.010 OA 
HETATM   10  O   UNL     1     -11.205   6.813  66.821  1.00  0.00    -0.626 OA 
HETATM   11  C   UNL     1      -9.392   8.354  66.468  1.00  0.00    -0.201 C  
HETATM   12  C   UNL     1      -8.365   7.285  66.092  1.00  0.00    -0.133 C  
HETATM   13  O   UNL     1      -8.738   9.535  66.938  1.00  0.00    -0.126 OA 
HETATM   14  H   UNL     1      -8.111   9.865  66.304  1.00  0.00     0.000 HD 
HETATM   15  H   UNL     1     -11.615   7.179  66.046  1.00  0.00     0.000 HD 
BRANCH   6  16
HETATM   16  C   UNL     1      -9.306   8.189  69.966  1.00  0.00    -0.159 C  
HETATM   17  C   UNL     1      -7.773   5.564  72.304  1.00  0.00    -0.102 A  
HETATM   18  C   UNL     1      -9.071   7.326  71.213  1.00  0.00    -0.146 A  
HETATM   19  C   UNL     1      -7.918   6.520  71.300  1.00  0.00    -0.108 A  
HETATM   20  C   UNL     1      -8.785   5.380  73.235  1.00  0.00    -0.116 A  
HETATM   21  C   UNL     1      -9.909   6.202  73.200  1.00  0.00    -0.166 A  
HETATM   22  O   UNL     1     -10.901   5.970  74.110  1.00  0.00    -0.363 OA 
HETATM   23  C   UNL     1     -10.036   7.216  72.231  1.00  0.00    -0.202 A  
HETATM   24  H   UNL     1     -11.667   6.530  74.086  1.00  0.00     0.000 HD 
HETATM   25  C   UNL     1     -11.147   8.210  72.299  1.00  0.00    -0.344 C  
HETATM   26  O   UNL     1     -11.843   8.287  73.304  1.00  0.00    -0.046 OA 
HETATM   27  C   UNL     1     -11.305   9.208  71.205  1.00  0.00    -0.392 A  
HETATM   28  C   UNL     1     -10.321   9.295  70.215  1.00  0.00    -0.272 A  
HETATM   29  C   UNL     1     -10.351  10.399  69.346  1.00  0.00    -0.259 A  
HETATM   30  C   UNL     1     -11.461  11.243  69.250  1.00  0.00    -0.369 A  
HETATM   31  C   UNL     1     -12.479  11.096  70.189  1.00  0.00    -0.316 A  
HETATM   32  H   UNL     1     -14.118  10.648  72.077  1.00  0.00     0.000 HD 
HETATM   33  O   UNL     1     -13.392  10.035  72.094  1.00  0.00    -0.444 OA 
HETATM   34  C   UNL     1     -12.383  10.117  71.180  1.00  0.00    -0.385 A  
BRANCH  30  35
HETATM   35  C   UNL     1     -11.572  12.203  68.095  1.00  0.00    -0.337 C  
HETATM   36  O   UNL     1     -11.460  11.487  66.867  1.00  0.00    -0.441 OA 
HETATM   37  H   UNL     1     -11.530  12.093  66.139  1.00  0.00     0.000 HD 
ENDBRANCH  30  35
ENDBRANCH   6  16
ENDBRANCH   2   4
TORSDOF 3
ENDMDL
MODEL       41
REMARK 921   NORMALIZED FREE ENERGY PREDICTED BY IDOCK:   -5.64 KCAL/MOL
REMARK 922        TOTAL FREE ENERGY PREDICTED BY IDOCK:   -7.29 KCAL/MOL
REMARK 923 INTER-LIGAND FREE ENERGY PREDICTED BY IDOCK:   -6.74 KCAL/MOL
REMARK 924 INTRA-LIGAND FREE ENERGY PREDICTED BY IDOCK:   -0.55 KCAL/MOL
REMARK 927      BINDING AFFINITY PREDICTED BY RF-SCORE:    0.00 PKD
ROOT
HETATM    1  O   UNL     1      -9.522  11.946  65.118  1.00  0.00    -0.398 OA 
HETATM    2  C   UNL     1      -9.797  11.978  66.510  1.00  0.00    -0.209 C  
HETATM    3  H   UNL     1     -10.300  12.017  64.578  1.00  0.00     0.000 HD 
ENDROOT
BRANCH   2   4
HETATM    4  C   UNL     1      -8.538  11.864  67.384  1.00  0.00    -0.164 C  
HETATM    5  O   UNL     1      -8.864  11.250  68.646  1.00  0.00    -0.161 OA 
HETATM    6  C   UNL     1      -8.866   9.806  68.767  1.00  0.00    -0.129 C  
HETATM    7  H   UNL     1      -5.353  11.439  66.788  1.00  0.00     0.000 HD 
HETATM    8  C   UNL     1      -7.582   9.217  68.117  1.00  0.00    -0.084 C  
HETATM    9  O   UNL     1      -6.109  11.802  67.235  1.00  0.00    -0.092 OA 
HETATM   10  O   UNL     1      -6.414   9.555  68.908  1.00  0.00    -0.046 OA 
HETATM   11  C   UNL     1      -7.328   9.745  66.692  1.00  0.00    -0.094 C  
HETATM   12  C   UNL     1      -7.311  11.274  66.659  1.00  0.00    -0.131 C  
HETATM   13  O   UNL     1      -8.287   9.234  65.762  1.00  0.00    -0.116 OA 
HETATM   14  H   UNL     1      -8.131   9.559  64.883  1.00  0.00     0.000 HD 
HETATM   15  H   UNL     1      -5.629   9.196  68.511  1.00  0.00     0.000 HD 
BRANCH   6  16
HETATM   16  C   UNL     1     -10.288   9.131  68.462  1.00  0.00    -0.236 C  
HETATM   17  C   UNL     1     -12.473  11.359  70.692  1.00  0.00    -0.419 A  
HETATM   18  C   UNL     1     -11.263   9.554  69.570  1.00  0.00    -0.105 A  
HETATM   19  C   UNL     1     -11.766  10.871  69.594  1.00  0.00    -0.403 A  
HETATM   20  C   UNL     1     -12.681  10.546  71.798  1.00  0.00    -0.508 A  
HETATM   21  C   UNL     1     -12.240   9.225  71.772  1.00  0.00    -0.385 A  
HETATM   22  O   UNL     1     -12.430   8.464  72.891  1.00  0.00    -0.616 OA 
HETATM   23  C   UNL     1     -11.582   8.701  70.641  1.00  0.00    -0.225 A  
HETATM   24  H   UNL     1     -12.129   7.563  72.873  1.00  0.00     0.000 HD 
HETATM   25  C   UNL     1     -11.270   7.246  70.539  1.00  0.00    -0.279 C  
HETATM   26  O   UNL     1     -11.757   6.454  71.337  1.00  0.00    -0.311 OA 
HETATM   27  C   UNL     1     -10.489   6.744  69.374  1.00  0.00    -0.244 A  
HETATM   28  C   UNL     1     -10.199   7.619  68.322  1.00  0.00    -0.229 A  
HETATM   29  C   UNL     1      -9.694   7.075  67.129  1.00  0.00    -0.206 A  
HETATM   30  C   UNL     1      -9.213   5.764  67.051  1.00  0.00    -0.118 A  
HETATM   31  C   UNL     1      -9.432   4.920  68.137  1.00  0.00    -0.178 A  
HETATM   32  H   UNL     1     -10.051   3.608  70.221  1.00  0.00     0.000 HD 
HETATM   33  O   UNL     1     -10.314   4.518  70.292  1.00  0.00    -0.160 OA 
HETATM   34  C   UNL     1     -10.099   5.393  69.269  1.00  0.00    -0.231 A  
BRANCH  30  35
HETATM   35  C   UNL     1      -8.400   5.337  65.858  1.00  0.00    -0.120 C  
HETATM   36  O   UNL     1      -8.229   6.444  64.976  1.00  0.00    -0.140 OA 
HETATM   37  H   UNL     1      -7.716   6.174  64.223  1.00  0.00     0.000 HD 
ENDBRANCH  30  35
ENDBRANCH   6  16
ENDBRANCH   2   4
TORSDOF 3
ENDMDL
MODEL       42
REMARK 921   NORMALIZED FREE ENERGY PREDICTED BY IDOCK:   -5.61 KCAL/MOL
REMARK 922        TOTAL FREE ENERGY PREDICTED BY IDOCK:   -7.25 KCAL/MOL
REMARK 923 INTER-LIGAND FREE ENERGY PREDICTED BY IDOCK:   -6.85 KCAL/MOL
REMARK 924 INTRA-LIGAND FREE ENERGY PREDICTED BY IDOCK:   -0.40 KCAL/MOL
REMARK 927      BINDING AFFINITY PREDICTED BY RF-SCORE:    0.00 PKD
ROOT
HETATM    1  O   UNL     1     -10.058  10.551  62.837  1.00  0.00    -0.626 OA 
HETATM    2  C   UNL     1      -9.987  10.812  64.230  1.00  0.00    -0.341 C  
HETATM    3  H   UNL     1     -10.942  10.593  62.490  1.00  0.00     0.000 HD 
ENDROOT
BRANCH   2   4
HETATM    4  C   UNL     1      -8.558  10.746  64.791  1.00  0.00    -0.075 C  
HETATM    5  O   UNL     1      -8.593  10.482  66.207  1.00  0.00    -0.138 OA 
HETATM    6  C   UNL     1      -8.656   9.115  66.685  1.00  0.00    -0.127 C  
HETATM    7  H   UNL     1      -5.661   9.806  63.606  1.00  0.00     0.000 HD 
HETATM    8  C   UNL     1      -7.618   8.239  65.927  1.00  0.00    -0.082 C  
HETATM    9  O   UNL     1      -6.254  10.352  64.108  1.00  0.00    -0.128 OA 
HETATM   10  O   UNL     1      -6.269   8.601  66.318  1.00  0.00    -0.057 OA 
HETATM   11  C   UNL     1      -7.700   8.392  64.396  1.00  0.00    -0.133 C  
HETATM   12  C   UNL     1      -7.594   9.859  63.976  1.00  0.00    -0.138 C  
HETATM   13  O   UNL     1      -8.894   7.805  63.870  1.00  0.00    -0.136 OA 
HETATM   14  H   UNL     1      -8.944   7.899  62.927  1.00  0.00     0.000 HD 
HETATM   15  H   UNL     1      -5.635   8.067  65.854  1.00  0.00     0.000 HD 
BRANCH   6  16
HETATM   16  C   UNL     1     -10.149   8.569  66.895  1.00  0.00    -0.364 C  
HETATM   17  C   UNL     1     -11.712  11.731  68.399  1.00  0.00    -0.389 A  
HETATM   18  C   UNL     1     -10.860   9.497  67.890  1.00  0.00    -0.240 A  
HETATM   19  C   UNL     1     -11.266  10.783  67.480  1.00  0.00    -0.346 A  
HETATM   20  C   UNL     1     -11.748  11.421  69.751  1.00  0.00    -0.418 A  
HETATM   21  C   UNL     1     -11.403  10.138  70.171  1.00  0.00    -0.303 A  
HETATM   22  O   UNL     1     -11.416   9.878  71.513  1.00  0.00    -0.365 OA 
HETATM   23  C   UNL     1     -11.014   9.152  69.244  1.00  0.00    -0.081 A  
HETATM   24  H   UNL     1     -11.181   9.004  71.798  1.00  0.00     0.000 HD 
HETATM   25  C   UNL     1     -10.818   7.734  69.668  1.00  0.00    -0.184 C  
HETATM   26  O   UNL     1     -11.186   7.366  70.776  1.00  0.00    -0.260 OA 
HETATM   27  C   UNL     1     -10.314   6.739  68.681  1.00  0.00    -0.202 A  
HETATM   28  C   UNL     1     -10.182   7.115  67.340  1.00  0.00    -0.291 A  
HETATM   29  C   UNL     1      -9.956   6.106  66.389  1.00  0.00    -0.130 A  
HETATM   30  C   UNL     1      -9.581   4.809  66.751  1.00  0.00    -0.184 A  
HETATM   31  C   UNL     1      -9.635   4.464  68.099  1.00  0.00    -0.200 A  
HETATM   32  H   UNL     1      -9.911   4.110  70.599  1.00  0.00     0.000 HD 
HETATM   33  O   UNL     1     -10.099   5.008  70.351  1.00  0.00    -0.228 OA 
HETATM   34  C   UNL     1     -10.035   5.406  69.048  1.00  0.00    -0.190 A  
BRANCH  30  35
HETATM   35  C   UNL     1      -9.046   3.866  65.705  1.00  0.00    -0.145 C  
HETATM   36  O   UNL     1     -10.117   3.409  64.883  1.00  0.00    -0.346 OA 
HETATM   37  H   UNL     1      -9.779   2.814  64.223  1.00  0.00     0.000 HD 
ENDBRANCH  30  35
ENDBRANCH   6  16
ENDBRANCH   2   4
TORSDOF 3
ENDMDL
MODEL       43
REMARK 921   NORMALIZED FREE ENERGY PREDICTED BY IDOCK:   -5.60 KCAL/MOL
REMARK 922        TOTAL FREE ENERGY PREDICTED BY IDOCK:   -7.23 KCAL/MOL
REMARK 923 INTER-LIGAND FREE ENERGY PREDICTED BY IDOCK:   -6.97 KCAL/MOL
REMARK 924 INTRA-LIGAND FREE ENERGY PREDICTED BY IDOCK:   -0.26 KCAL/MOL
REMARK 927      BINDING AFFINITY PREDICTED BY RF-SCORE:    0.00 PKD
ROOT
HETATM    1  O   UNL     1     -11.608   7.186  69.863  1.00  0.00    -0.502 OA 
HETATM    2  C   UNL     1     -10.322   6.875  69.348  1.00  0.00    -0.204 C  
HETATM    3  H   UNL     1     -12.276   6.560  69.610  1.00  0.00     0.000 HD 
ENDROOT
BRANCH   2   4
HETATM    4  C   UNL     1      -9.240   7.887  69.758  1.00  0.00    -0.150 C  
HETATM    5  O   UNL     1      -8.415   8.217  68.624  1.00  0.00    -0.124 OA 
HETATM    6  C   UNL     1      -8.818   9.279  67.723  1.00  0.00    -0.120 C  
HETATM    7  H   UNL     1      -9.065  10.312  71.942  1.00  0.00     0.000 HD 
HETATM    8  C   UNL     1      -9.262  10.527  68.538  1.00  0.00    -0.168 C  
HETATM    9  O   UNL     1      -8.740   9.571  71.444  1.00  0.00    -0.211 OA 
HETATM   10  O   UNL     1      -8.119  11.141  69.187  1.00  0.00    -0.304 OA 
HETATM   11  C   UNL     1     -10.284  10.196  69.643  1.00  0.00    -0.242 C  
HETATM   12  C   UNL     1      -9.768   9.091  70.566  1.00  0.00    -0.216 C  
HETATM   13  O   UNL     1     -11.556   9.839  69.096  1.00  0.00    -0.463 OA 
HETATM   14  H   UNL     1     -12.185   9.635  69.778  1.00  0.00     0.000 HD 
HETATM   15  H   UNL     1      -8.390  11.903  69.685  1.00  0.00     0.000 HD 
BRANCH   6  16
HETATM   16  C   UNL     1      -9.714   8.778  66.491  1.00  0.00    -0.328 C  
HETATM   17  C   UNL     1      -8.053   5.369  65.918  1.00  0.00    -0.108 A  
HETATM   18  C   UNL     1      -8.966   7.634  65.792  1.00  0.00    -0.095 A  
HETATM   19  C   UNL     1      -8.897   6.367  66.404  1.00  0.00    -0.146 A  
HETATM   20  C   UNL     1      -7.246   5.622  64.818  1.00  0.00    -0.065 A  
HETATM   21  C   UNL     1      -7.339   6.850  64.165  1.00  0.00    -0.086 A  
HETATM   22  O   UNL     1      -6.504   7.077  63.107  1.00  0.00    -0.043 OA 
HETATM   23  C   UNL     1      -8.236   7.841  64.608  1.00  0.00    -0.080 A  
HETATM   24  H   UNL     1      -6.567   7.914  62.663  1.00  0.00     0.000 HD 
HETATM   25  C   UNL     1      -8.467   9.081  63.810  1.00  0.00    -0.159 C  
HETATM   26  O   UNL     1      -8.038   9.165  62.666  1.00  0.00    -0.132 OA 
HETATM   27  C   UNL     1      -9.350  10.149  64.356  1.00  0.00    -0.348 A  
HETATM   28  C   UNL     1     -10.068   9.905  65.531  1.00  0.00    -0.297 A  
HETATM   29  C   UNL     1     -11.081  10.811  65.888  1.00  0.00     0.119 A  
HETATM   30  C   UNL     1     -11.205  12.066  65.287  1.00  0.00    -0.374 A  
HETATM   31  C   UNL     1     -10.426  12.335  64.165  1.00  0.00    -0.402 A  
HETATM   32  H   UNL     1      -8.947  12.499  62.106  1.00  0.00     0.000 HD 
HETATM   33  O   UNL     1      -8.820  11.675  62.561  1.00  0.00    -0.285 OA 
HETATM   34  C   UNL     1      -9.538  11.372  63.680  1.00  0.00    -0.257 A  
BRANCH  30  35
HETATM   35  C   UNL     1     -12.090  13.111  65.915  1.00  0.00    -0.444 C  
HETATM   36  O   UNL     1     -13.147  13.442  65.017  1.00  0.00    -0.734 OA 
HETATM   37  H   UNL     1     -13.705  14.102  65.413  1.00  0.00     0.000 HD 
ENDBRANCH  30  35
ENDBRANCH   6  16
ENDBRANCH   2   4
TORSDOF 3
ENDMDL
MODEL       44
REMARK 921   NORMALIZED FREE ENERGY PREDICTED BY IDOCK:   -5.55 KCAL/MOL
REMARK 922        TOTAL FREE ENERGY PREDICTED BY IDOCK:   -7.17 KCAL/MOL
REMARK 923 INTER-LIGAND FREE ENERGY PREDICTED BY IDOCK:   -6.73 KCAL/MOL
REMARK 924 INTRA-LIGAND FREE ENERGY PREDICTED BY IDOCK:   -0.45 KCAL/MOL
REMARK 927      BINDING AFFINITY PREDICTED BY RF-SCORE:    0.00 PKD
ROOT
HETATM    1  O   UNL     1     -12.934  14.156  66.046  1.00  0.00    -0.487 OA 
HETATM    2  C   UNL     1     -12.395  13.427  67.138  1.00  0.00    -0.146 C  
HETATM    3  H   UNL     1     -13.699  13.746  65.660  1.00  0.00     0.000 HD 
ENDROOT
BRANCH   2   4
HETATM    4  C   UNL     1     -11.158  14.091  67.764  1.00  0.00    -0.267 C  
HETATM    5  O   UNL     1     -10.634  13.265  68.821  1.00  0.00    -0.244 OA 
HETATM    6  C   UNL     1      -9.691  12.208  68.511  1.00  0.00    -0.149 C  
HETATM    7  H   UNL     1      -8.777  16.034  66.652  1.00  0.00     0.000 HD 
HETATM    8  C   UNL     1      -8.591  12.743  67.552  1.00  0.00    -0.187 C  
HETATM    9  O   UNL     1      -9.417  15.722  67.282  1.00  0.00    -0.210 OA 
HETATM   10  O   UNL     1      -7.728  13.681  68.245  1.00  0.00    -0.120 OA 
HETATM   11  C   UNL     1      -9.162  13.479  66.324  1.00  0.00    -0.050 C  
HETATM   12  C   UNL     1     -10.120  14.596  66.741  1.00  0.00    -0.265 C  
HETATM   13  O   UNL     1      -9.806  12.577  65.421  1.00  0.00    -0.359 OA 
HETATM   14  H   UNL     1     -10.159  13.030  64.665  1.00  0.00     0.000 HD 
HETATM   15  H   UNL     1      -7.055  14.009  67.659  1.00  0.00     0.000 HD 
BRANCH   6  16
HETATM   16  C   UNL     1     -10.381  10.791  68.212  1.00  0.00    -0.195 C  
HETATM   17  C   UNL     1     -12.797  10.687  71.188  1.00  0.00    -0.518 A  
HETATM   18  C   UNL     1     -11.068  10.315  69.499  1.00  0.00    -0.310 A  
HETATM   19  C   UNL     1     -12.261  10.934  69.925  1.00  0.00    -0.408 A  
HETATM   20  C   UNL     1     -12.144   9.828  72.061  1.00  0.00    -0.197 A  
HETATM   21  C   UNL     1     -10.993   9.165  71.640  1.00  0.00    -0.374 A  
HETATM   22  O   UNL     1     -10.357   8.353  72.536  1.00  0.00    -0.315 OA 
HETATM   23  C   UNL     1     -10.480   9.356  70.342  1.00  0.00    -0.311 A  
HETATM   24  H   UNL     1      -9.573   7.902  72.249  1.00  0.00     0.000 HD 
HETATM   25  C   UNL     1      -9.358   8.516  69.828  1.00  0.00    -0.161 C  
HETATM   26  O   UNL     1      -9.003   7.519  70.444  1.00  0.00    -0.150 OA 
HETATM   27  C   UNL     1      -8.778   8.810  68.488  1.00  0.00    -0.135 A  
HETATM   28  C   UNL     1      -9.396   9.764  67.673  1.00  0.00    -0.157 A  
HETATM   29  C   UNL     1      -8.996   9.845  66.328  1.00  0.00    -0.169 A  
HETATM   30  C   UNL     1      -7.838   9.222  65.855  1.00  0.00    -0.099 A  
HETATM   31  C   UNL     1      -7.179   8.334  66.702  1.00  0.00    -0.081 A  
HETATM   32  H   UNL     1      -6.252   6.721  68.431  1.00  0.00     0.000 HD 
HETATM   33  O   UNL     1      -7.001   7.199  68.768  1.00  0.00    -0.076 OA 
HETATM   34  C   UNL     1      -7.667   8.100  67.989  1.00  0.00    -0.114 A  
BRANCH  30  35
HETATM   35  C   UNL     1      -7.288   9.595  64.504  1.00  0.00    -0.125 C  
HETATM   36  O   UNL     1      -7.808  10.863  64.111  1.00  0.00    -0.346 OA 
HETATM   37  H   UNL     1      -7.461  11.098  63.259  1.00  0.00     0.000 HD 
ENDBRANCH  30  35
ENDBRANCH   6  16
ENDBRANCH   2   4
TORSDOF 3
ENDMDL
MODEL       45
REMARK 921   NORMALIZED FREE ENERGY PREDICTED BY IDOCK:   -5.55 KCAL/MOL
REMARK 922        TOTAL FREE ENERGY PREDICTED BY IDOCK:   -7.17 KCAL/MOL
REMARK 923 INTER-LIGAND FREE ENERGY PREDICTED BY IDOCK:   -6.74 KCAL/MOL
REMARK 924 INTRA-LIGAND FREE ENERGY PREDICTED BY IDOCK:   -0.43 KCAL/MOL
REMARK 927      BINDING AFFINITY PREDICTED BY RF-SCORE:    0.00 PKD
ROOT
HETATM    1  O   UNL     1     -12.054  11.569  68.393  1.00  0.00    -0.556 OA 
HETATM    2  C   UNL     1     -11.271  10.822  67.475  1.00  0.00    -0.274 C  
HETATM    3  H   UNL     1     -12.985  11.541  68.205  1.00  0.00     0.000 HD 
ENDROOT
BRANCH   2   4
HETATM    4  C   UNL     1      -9.765  10.867  67.779  1.00  0.00    -0.168 C  
HETATM    5  O   UNL     1      -9.461  10.018  68.903  1.00  0.00    -0.156 OA 
HETATM    6  C   UNL     1      -9.197   8.609  68.692  1.00  0.00    -0.138 C  
HETATM    7  H   UNL     1      -7.063  11.262  65.984  1.00  0.00     0.000 HD 
HETATM    8  C   UNL     1      -8.210   8.426  67.504  1.00  0.00    -0.125 C  
HETATM    9  O   UNL     1      -7.621  11.377  66.745  1.00  0.00    -0.145 OA 
HETATM   10  O   UNL     1      -6.888   8.898  67.868  1.00  0.00    -0.068 OA 
HETATM   11  C   UNL     1      -8.633   9.200  66.241  1.00  0.00    -0.126 C  
HETATM   12  C   UNL     1      -8.860  10.681  66.545  1.00  0.00    -0.151 C  
HETATM   13  O   UNL     1      -9.796   8.628  65.636  1.00  0.00    -0.443 OA 
HETATM   14  H   UNL     1     -10.057   9.105  64.857  1.00  0.00     0.000 HD 
HETATM   15  H   UNL     1      -6.284   8.787  67.143  1.00  0.00     0.000 HD 
BRANCH   6  16
HETATM   16  C   UNL     1     -10.503   7.683  68.785  1.00  0.00    -0.208 C  
HETATM   17  C   UNL     1     -12.085   9.231  71.917  1.00  0.00    -0.440 A  
HETATM   18  C   UNL     1     -11.076   7.808  70.204  1.00  0.00    -0.216 A  
HETATM   19  C   UNL     1     -11.745   8.987  70.587  1.00  0.00    -0.237 A  
HETATM   20  C   UNL     1     -11.749   8.308  72.897  1.00  0.00    -0.139 A  
HETATM   21  C   UNL     1     -11.135   7.111  72.532  1.00  0.00    -0.280 A  
HETATM   22  O   UNL     1     -10.787   6.241  73.526  1.00  0.00    -0.370 OA 
HETATM   23  C   UNL     1     -10.847   6.825  71.183  1.00  0.00    -0.275 A  
HETATM   24  H   UNL     1     -10.369   5.426  73.278  1.00  0.00     0.000 HD 
HETATM   25  C   UNL     1     -10.357   5.477  70.771  1.00  0.00    -0.251 C  
HETATM   26  O   UNL     1     -10.391   4.542  71.561  1.00  0.00    -0.163 OA 
HETATM   27  C   UNL     1      -9.972   5.241  69.352  1.00  0.00    -0.288 A  
HETATM   28  C   UNL     1     -10.223   6.237  68.403  1.00  0.00    -0.200 A  
HETATM   29  C   UNL     1     -10.094   5.905  67.044  1.00  0.00    -0.221 A  
HETATM   30  C   UNL     1      -9.465   4.731  66.619  1.00  0.00    -0.161 A  
HETATM   31  C   UNL     1      -9.141   3.776  67.580  1.00  0.00    -0.185 A  
HETATM   32  H   UNL     1      -8.752   2.203  69.536  1.00  0.00     0.000 HD 
HETATM   33  O   UNL     1      -9.119   3.032  69.823  1.00  0.00    -0.103 OA 
HETATM   34  C   UNL     1      -9.429   4.011  68.926  1.00  0.00    -0.167 A  
BRANCH  30  35
HETATM   35  C   UNL     1      -9.071   4.575  65.174  1.00  0.00    -0.150 C  
HETATM   36  O   UNL     1      -8.783   5.856  64.618  1.00  0.00    -0.338 OA 
HETATM   37  H   UNL     1      -8.535   5.758  63.706  1.00  0.00     0.000 HD 
ENDBRANCH  30  35
ENDBRANCH   6  16
ENDBRANCH   2   4
TORSDOF 3
ENDMDL
MODEL       46
REMARK 921   NORMALIZED FREE ENERGY PREDICTED BY IDOCK:   -5.50 KCAL/MOL
REMARK 922        TOTAL FREE ENERGY PREDICTED BY IDOCK:   -7.11 KCAL/MOL
REMARK 923 INTER-LIGAND FREE ENERGY PREDICTED BY IDOCK:   -6.74 KCAL/MOL
REMARK 924 INTRA-LIGAND FREE ENERGY PREDICTED BY IDOCK:   -0.38 KCAL/MOL
REMARK 927      BINDING AFFINITY PREDICTED BY RF-SCORE:    0.00 PKD
ROOT
HETATM    1  O   UNL     1      -6.240   8.317  65.927  1.00  0.00    -0.047 OA 
HETATM    2  C   UNL     1      -7.533   8.225  66.504  1.00  0.00    -0.081 C  
HETATM    3  H   UNL     1      -5.538   8.172  66.549  1.00  0.00     0.000 HD 
ENDROOT
BRANCH   2   4
HETATM    4  C   UNL     1      -8.670   8.460  65.497  1.00  0.00    -0.162 C  
HETATM    5  O   UNL     1      -9.903   8.724  66.193  1.00  0.00    -0.267 OA 
HETATM    6  C   UNL     1     -10.225  10.077  66.603  1.00  0.00    -0.223 C  
HETATM    7  H   UNL     1      -8.856   9.724  62.489  1.00  0.00     0.000 HD 
HETATM    8  C   UNL     1      -9.963  11.063  65.430  1.00  0.00    -0.260 C  
HETATM    9  O   UNL     1      -9.069   9.115  63.186  1.00  0.00    -0.100 OA 
HETATM   10  O   UNL     1     -10.936  10.862  64.373  1.00  0.00    -0.285 OA 
HETATM   11  C   UNL     1      -8.569  10.895  64.797  1.00  0.00    -0.003 C  
HETATM   12  C   UNL     1      -8.324   9.449  64.365  1.00  0.00    -0.167 C  
HETATM   13  O   UNL     1      -7.533  11.338  65.678  1.00  0.00    -0.361 OA 
HETATM   14  H   UNL     1      -6.673  11.234  65.288  1.00  0.00     0.000 HD 
HETATM   15  H   UNL     1     -10.776  11.464  63.656  1.00  0.00     0.000 HD 
BRANCH   6  16
HETATM   16  C   UNL     1      -9.713  10.446  68.077  1.00  0.00    -0.166 C  
HETATM   17  C   UNL     1     -10.448   7.100  69.799  1.00  0.00    -0.238 A  
HETATM   18  C   UNL     1     -10.307   9.425  69.058  1.00  0.00    -0.224 A  
HETATM   19  C   UNL     1      -9.802   8.110  69.089  1.00  0.00    -0.182 A  
HETATM   20  C   UNL     1     -11.625   7.378  70.481  1.00  0.00    -0.256 A  
HETATM   21  C   UNL     1     -12.111   8.683  70.508  1.00  0.00     0.130 A  
HETATM   22  O   UNL     1     -13.290   8.914  71.159  1.00  0.00    -0.522 OA 
HETATM   23  C   UNL     1     -11.430   9.725  69.849  1.00  0.00    -0.190 A  
HETATM   24  H   UNL     1     -13.622   9.803  71.177  1.00  0.00     0.000 HD 
HETATM   25  C   UNL     1     -11.847  11.147  70.023  1.00  0.00    -0.361 C  
HETATM   26  O   UNL     1     -12.653  11.450  70.894  1.00  0.00    -0.367 OA 
HETATM   27  C   UNL     1     -11.165  12.212  69.237  1.00  0.00    -0.288 A  
HETATM   28  C   UNL     1     -10.045  11.879  68.469  1.00  0.00    -0.211 A  
HETATM   29  C   UNL     1      -9.266  12.925  67.944  1.00  0.00    -0.208 A  
HETATM   30  C   UNL     1      -9.714  14.249  67.920  1.00  0.00    -0.222 A  
HETATM   31  C   UNL     1     -10.878  14.560  68.620  1.00  0.00    -0.259 A  
HETATM   32  H   UNL     1     -12.964  14.831  70.043  1.00  0.00     0.000 HD 
HETATM   33  O   UNL     1     -12.689  13.923  69.998  1.00  0.00    -0.244 OA 
HETATM   34  C   UNL     1     -11.572  13.560  69.304  1.00  0.00    -0.316 A  
BRANCH  30  35
HETATM   35  C   UNL     1      -8.995  15.266  67.073  1.00  0.00    -0.233 C  
HETATM   36  O   UNL     1      -8.993  14.837  65.714  1.00  0.00    -0.422 OA 
HETATM   37  H   UNL     1      -8.539  15.478  65.180  1.00  0.00     0.000 HD 
ENDBRANCH  30  35
ENDBRANCH   6  16
ENDBRANCH   2   4
TORSDOF 3
ENDMDL
MODEL       47
REMARK 921   NORMALIZED FREE ENERGY PREDICTED BY IDOCK:   -5.43 KCAL/MOL
REMARK 922        TOTAL FREE ENERGY PREDICTED BY IDOCK:   -7.04 KCAL/MOL
REMARK 923 INTER-LIGAND FREE ENERGY PREDICTED BY IDOCK:   -6.63 KCAL/MOL
REMARK 924 INTRA-LIGAND FREE ENERGY PREDICTED BY IDOCK:   -0.41 KCAL/MOL
REMARK 927      BINDING AFFINITY PREDICTED BY RF-SCORE:    0.00 PKD
ROOT
HETATM    1  O   UNL     1      -9.593   9.834  65.991  1.00  0.00    -0.197 OA 
HETATM    2  C   UNL     1      -8.930  10.434  67.093  1.00  0.00    -0.139 C  
HETATM    3  H   UNL     1      -9.006   9.589  65.286  1.00  0.00     0.000 HD 
ENDROOT
BRANCH   2   4
HETATM    4  C   UNL     1      -9.880  10.828  68.235  1.00  0.00    -0.166 C  
HETATM    5  O   UNL     1      -9.394  12.012  68.898  1.00  0.00    -0.009 OA 
HETATM    6  C   UNL     1      -9.749  13.321  68.386  1.00  0.00    -0.198 C  
HETATM    7  H   UNL     1     -13.097  10.568  68.749  1.00  0.00     0.000 HD 
HETATM    8  C   UNL     1     -11.272  13.377  68.078  1.00  0.00    -0.268 C  
HETATM    9  O   UNL     1     -12.178  10.552  68.990  1.00  0.00    -0.272 OA 
HETATM   10  O   UNL     1     -12.039  13.349  69.309  1.00  0.00    -0.311 OA 
HETATM   11  C   UNL     1     -11.759  12.195  67.217  1.00  0.00    -0.299 C  
HETATM   12  C   UNL     1     -11.372  10.854  67.843  1.00  0.00    -0.308 C  
HETATM   13  O   UNL     1     -11.270  12.282  65.877  1.00  0.00    -0.311 OA 
HETATM   14  H   UNL     1     -11.570  11.553  65.346  1.00  0.00     0.000 HD 
HETATM   15  H   UNL     1     -12.969  13.383  69.121  1.00  0.00     0.000 HD 
BRANCH   6  16
HETATM   16  C   UNL     1      -8.703  13.905  67.320  1.00  0.00    -0.225 C  
HETATM   17  C   UNL     1      -5.497  13.528  69.388  1.00  0.00    -0.081 A  
HETATM   18  C   UNL     1      -7.415  14.273  68.068  1.00  0.00    -0.144 A  
HETATM   19  C   UNL     1      -6.555  13.254  68.523  1.00  0.00    -0.089 A  
HETATM   20  C   UNL     1      -5.284  14.826  69.832  1.00  0.00    -0.094 A  
HETATM   21  C   UNL     1      -6.090  15.856  69.352  1.00  0.00    -0.143 A  
HETATM   22  O   UNL     1      -5.875  17.116  69.837  1.00  0.00    -0.223 OA 
HETATM   23  C   UNL     1      -7.119  15.601  68.426  1.00  0.00    -0.115 A  
HETATM   24  H   UNL     1      -6.424  17.818  69.510  1.00  0.00     0.000 HD 
HETATM   25  C   UNL     1      -7.863  16.720  67.776  1.00  0.00    -0.176 C  
HETATM   26  O   UNL     1      -7.459  17.871  67.881  1.00  0.00    -0.208 OA 
HETATM   27  C   UNL     1      -9.009  16.411  66.875  1.00  0.00    -0.240 A  
HETATM   28  C   UNL     1      -9.267  15.080  66.533  1.00  0.00    -0.320 A  
HETATM   29  C   UNL     1     -10.176  14.828  65.492  1.00  0.00    -0.400 A  
HETATM   30  C   UNL     1     -11.027  15.817  64.989  1.00  0.00    -0.431 A  
HETATM   31  C   UNL     1     -10.818  17.131  65.398  1.00  0.00    -0.051 A  
HETATM   32  H   UNL     1     -10.143  19.424  66.256  1.00  0.00     0.000 HD 
HETATM   33  O   UNL     1      -9.613  18.737  66.644  1.00  0.00    -0.310 OA 
HETATM   34  C   UNL     1      -9.794  17.430  66.299  1.00  0.00    -0.279 A  
BRANCH  30  35
HETATM   35  C   UNL     1     -12.188  15.427  64.112  1.00  0.00    -0.057 C  
HETATM   36  O   UNL     1     -13.010  14.487  64.798  1.00  0.00    -0.562 OA 
HETATM   37  H   UNL     1     -13.742  14.242  64.245  1.00  0.00     0.000 HD 
ENDBRANCH  30  35
ENDBRANCH   6  16
ENDBRANCH   2   4
TORSDOF 3
ENDMDL
MODEL       48
REMARK 921   NORMALIZED FREE ENERGY PREDICTED BY IDOCK:   -5.35 KCAL/MOL
REMARK 922        TOTAL FREE ENERGY PREDICTED BY IDOCK:   -6.94 KCAL/MOL
REMARK 923 INTER-LIGAND FREE ENERGY PREDICTED BY IDOCK:   -6.48 KCAL/MOL
REMARK 924 INTRA-LIGAND FREE ENERGY PREDICTED BY IDOCK:   -0.45 KCAL/MOL
REMARK 927      BINDING AFFINITY PREDICTED BY RF-SCORE:    0.00 PKD
ROOT
HETATM    1  O   UNL     1      -5.512  11.529  65.752  1.00  0.00    -0.496 OA 
HETATM    2  C   UNL     1      -5.573  10.341  66.527  1.00  0.00    -0.053 C  
HETATM    3  H   UNL     1      -4.969  12.204  66.140  1.00  0.00     0.000 HD 
ENDROOT
BRANCH   2   4
HETATM    4  C   UNL     1      -6.451   9.247  65.898  1.00  0.00    -0.071 C  
HETATM    5  O   UNL     1      -7.103   8.481  66.930  1.00  0.00    -0.073 OA 
HETATM    6  C   UNL     1      -8.366   8.935  67.477  1.00  0.00    -0.109 C  
HETATM    7  H   UNL     1      -8.168   8.980  63.131  1.00  0.00     0.000 HD 
HETATM    8  C   UNL     1      -9.326   9.347  66.324  1.00  0.00    -0.198 C  
HETATM    9  O   UNL     1      -7.603   8.676  63.832  1.00  0.00    -0.114 OA 
HETATM   10  O   UNL     1      -9.756   8.177  65.582  1.00  0.00    -0.413 OA 
HETATM   11  C   UNL     1      -8.677  10.310  65.311  1.00  0.00    -0.172 C  
HETATM   12  C   UNL     1      -7.368   9.742  64.761  1.00  0.00    -0.130 C  
HETATM   13  O   UNL     1      -8.463  11.605  65.878  1.00  0.00    -0.371 OA 
HETATM   14  H   UNL     1      -8.063  12.199  65.254  1.00  0.00     0.000 HD 
HETATM   15  H   UNL     1     -10.342   8.428  64.877  1.00  0.00     0.000 HD 
BRANCH   6  16
HETATM   16  C   UNL     1      -8.213   9.887  68.758  1.00  0.00    -0.114 C  
HETATM   17  C   UNL     1      -5.582   7.860  70.674  1.00  0.00    -0.029 A  
HETATM   18  C   UNL     1      -7.549   9.076  69.878  1.00  0.00    -0.067 A  
HETATM   19  C   UNL     1      -6.175   8.770  69.800  1.00  0.00    -0.035 A  
HETATM   20  C   UNL     1      -6.353   7.221  71.635  1.00  0.00    -0.036 A  
HETATM   21  C   UNL     1      -7.701   7.549  71.764  1.00  0.00    -0.085 A  
HETATM   22  O   UNL     1      -8.437   6.876  72.698  1.00  0.00    -0.116 OA 
HETATM   23  C   UNL     1      -8.295   8.516  70.931  1.00  0.00    -0.166 A  
HETATM   24  H   UNL     1      -9.356   7.099  72.785  1.00  0.00     0.000 HD 
HETATM   25  C   UNL     1      -9.685   8.998  71.182  1.00  0.00    -0.299 C  
HETATM   26  O   UNL     1     -10.255   8.714  72.229  1.00  0.00    -0.320 OA 
HETATM   27  C   UNL     1     -10.314   9.950  70.225  1.00  0.00    -0.339 A  
HETATM   28  C   UNL     1      -9.539  10.494  69.196  1.00  0.00    -0.214 A  
HETATM   29  C   UNL     1     -10.068  11.572  68.467  1.00  0.00    -0.211 A  
HETATM   30  C   UNL     1     -11.417  11.930  68.537  1.00  0.00    -0.349 A  
HETATM   31  C   UNL     1     -12.206  11.323  69.511  1.00  0.00    -0.325 A  
HETATM   32  H   UNL     1     -13.360  10.119  71.426  1.00  0.00     0.000 HD 
HETATM   33  O   UNL     1     -12.459   9.832  71.327  1.00  0.00    -0.319 OA 
HETATM   34  C   UNL     1     -11.651  10.374  70.372  1.00  0.00    -0.337 A  
BRANCH  30  35
HETATM   35  C   UNL     1     -11.995  12.871  67.513  1.00  0.00    -0.296 C  
HETATM   36  O   UNL     1     -12.040  12.224  66.243  1.00  0.00    -0.626 OA 
HETATM   37  H   UNL     1     -12.405  12.817  65.597  1.00  0.00     0.000 HD 
ENDBRANCH  30  35
ENDBRANCH   6  16
ENDBRANCH   2   4
TORSDOF 3
ENDMDL
MODEL       49
REMARK 921   NORMALIZED FREE ENERGY PREDICTED BY IDOCK:   -5.34 KCAL/MOL
REMARK 922        TOTAL FREE ENERGY PREDICTED BY IDOCK:   -6.93 KCAL/MOL
REMARK 923 INTER-LIGAND FREE ENERGY PREDICTED BY IDOCK:   -6.54 KCAL/MOL
REMARK 924 INTRA-LIGAND FREE ENERGY PREDICTED BY IDOCK:   -0.39 KCAL/MOL
REMARK 927      BINDING AFFINITY PREDICTED BY RF-SCORE:    0.00 PKD
ROOT
HETATM    1  O   UNL     1     -13.740  11.906  72.407  1.00  0.00    -0.505 OA 
HETATM    2  C   UNL     1     -12.673  11.173  71.826  1.00  0.00    -0.291 C  
HETATM    3  H   UNL     1     -13.458  12.702  72.841  1.00  0.00     0.000 HD 
ENDROOT
BRANCH   2   4
HETATM    4  C   UNL     1     -13.130   9.884  71.124  1.00  0.00    -0.370 C  
HETATM    5  O   UNL     1     -12.654   9.865  69.764  1.00  0.00     0.262 OA 
HETATM    6  C   UNL     1     -11.333   9.348  69.469  1.00  0.00     0.057 C  
HETATM    7  H   UNL     1     -13.709   6.816  72.090  1.00  0.00     0.000 HD 
HETATM    8  C   UNL     1     -11.112   8.000  70.211  1.00  0.00    -0.224 C  
HETATM    9  O   UNL     1     -13.864   7.611  71.592  1.00  0.00    -0.375 OA 
HETATM   10  O   UNL     1     -11.945   6.962  69.632  1.00  0.00    -0.612 OA 
HETATM   11  C   UNL     1     -11.458   8.070  71.711  1.00  0.00    -0.277 C  
HETATM   12  C   UNL     1     -12.878   8.594  71.932  1.00  0.00    -0.369 C  
HETATM   13  O   UNL     1     -10.513   8.863  72.433  1.00  0.00    -0.264 OA 
HETATM   14  H   UNL     1     -10.725   8.907  73.358  1.00  0.00     0.000 HD 
HETATM   15  H   UNL     1     -11.811   6.138  70.086  1.00  0.00     0.000 HD 
BRANCH   6  16
HETATM   16  C   UNL     1     -10.180  10.463  69.494  1.00  0.00    -0.258 C  
HETATM   17  C   UNL     1     -11.995  13.213  67.533  1.00  0.00    -0.367 A  
HETATM   18  C   UNL     1     -10.489  11.492  68.398  1.00  0.00    -0.226 A  
HETATM   19  C   UNL     1     -11.540  12.413  68.580  1.00  0.00    -0.358 A  
HETATM   20  C   UNL     1     -11.419  13.100  66.275  1.00  0.00    -0.372 A  
HETATM   21  C   UNL     1     -10.342  12.235  66.088  1.00  0.00    -0.242 A  
HETATM   22  O   UNL     1      -9.822  12.123  64.830  1.00  0.00    -0.381 OA 
HETATM   23  C   UNL     1      -9.832  11.471  67.155  1.00  0.00    -0.210 A  
HETATM   24  H   UNL     1      -9.089  11.534  64.702  1.00  0.00     0.000 HD 
HETATM   25  C   UNL     1      -8.573  10.683  67.003  1.00  0.00    -0.128 C  
HETATM   26  O   UNL     1      -7.858  10.848  66.023  1.00  0.00    -0.159 OA 
HETATM   27  C   UNL     1      -8.116   9.812  68.121  1.00  0.00    -0.108 A  
HETATM   28  C   UNL     1      -8.788   9.867  69.346  1.00  0.00    -0.195 A  
HETATM   29  C   UNL     1      -8.195   9.240  70.456  1.00  0.00    -0.219 A  
HETATM   30  C   UNL     1      -7.131   8.343  70.325  1.00  0.00    -0.040 A  
HETATM   31  C   UNL     1      -6.517   8.231  69.080  1.00  0.00    -0.040 A  
HETATM   32  H   UNL     1      -5.558   8.306  66.730  1.00  0.00     0.000 HD 
HETATM   33  O   UNL     1      -6.324   8.862  66.811  1.00  0.00    -0.058 OA 
HETATM   34  C   UNL     1      -6.979   8.987  68.001  1.00  0.00    -0.077 A  
BRANCH  30  35
HETATM   35  C   UNL     1      -6.746   7.466  71.488  1.00  0.00    -0.050 C  
HETATM   36  O   UNL     1      -7.677   7.650  72.552  1.00  0.00    -0.086 OA 
HETATM   37  H   UNL     1      -7.434   7.096  73.285  1.00  0.00     0.000 HD 
ENDBRANCH  30  35
ENDBRANCH   6  16
ENDBRANCH   2   4
TORSDOF 3
ENDMDL
MODEL       50
REMARK 921   NORMALIZED FREE ENERGY PREDICTED BY IDOCK:   -5.26 KCAL/MOL
REMARK 922        TOTAL FREE ENERGY PREDICTED BY IDOCK:   -6.84 KCAL/MOL
REMARK 923 INTER-LIGAND FREE ENERGY PREDICTED BY IDOCK:   -6.26 KCAL/MOL
REMARK 924 INTRA-LIGAND FREE ENERGY PREDICTED BY IDOCK:   -0.57 KCAL/MOL
REMARK 927      BINDING AFFINITY PREDICTED BY RF-SCORE:    0.00 PKD
ROOT
HETATM    1  O   UNL     1      -6.423  11.496  69.570  1.00  0.00    -0.099 OA 
HETATM    2  C   UNL     1      -6.508  10.080  69.520  1.00  0.00    -0.051 C  
HETATM    3  H   UNL     1      -5.991  11.820  70.351  1.00  0.00     0.000 HD 
ENDROOT
BRANCH   2   4
HETATM    4  C   UNL     1      -7.206   9.555  68.255  1.00  0.00    -0.076 C  
HETATM    5  O   UNL     1      -7.943   8.354  68.558  1.00  0.00    -0.117 OA 
HETATM    6  C   UNL     1      -9.300   8.448  69.057  1.00  0.00    -0.147 C  
HETATM    7  H   UNL     1      -8.485  10.943  65.587  1.00  0.00     0.000 HD 
HETATM    8  C   UNL     1     -10.112   9.461  68.201  1.00  0.00    -0.181 C  
HETATM    9  O   UNL     1      -8.006  10.282  66.074  1.00  0.00    -0.126 OA 
HETATM   10  O   UNL     1     -10.346   8.929  66.872  1.00  0.00    -0.262 OA 
HETATM   11  C   UNL     1      -9.395  10.814  68.024  1.00  0.00    -0.150 C  
HETATM   12  C   UNL     1      -7.984  10.628  67.466  1.00  0.00    -0.110 C  
HETATM   13  O   UNL     1      -9.357  11.555  69.247  1.00  0.00    -0.392 OA 
HETATM   14  H   UNL     1      -8.916  12.389  69.138  1.00  0.00     0.000 HD 
HETATM   15  H   UNL     1     -10.842   9.548  66.349  1.00  0.00     0.000 HD 
BRANCH   6  16
HETATM   16  C   UNL     1      -9.402   8.502  70.656  1.00  0.00    -0.202 C  
HETATM   17  C   UNL     1      -7.056   5.583  71.482  1.00  0.00    -0.072 A  
HETATM   18  C   UNL     1      -8.905   7.160  71.211  1.00  0.00    -0.129 A  
HETATM   19  C   UNL     1      -7.528   6.863  71.195  1.00  0.00    -0.082 A  
HETATM   20  C   UNL     1      -7.953   4.566  71.777  1.00  0.00    -0.097 A  
HETATM   21  C   UNL     1      -9.315   4.851  71.851  1.00  0.00    -0.142 A  
HETATM   22  O   UNL     1     -10.172   3.818  72.109  1.00  0.00    -0.169 OA 
HETATM   23  C   UNL     1      -9.796   6.155  71.628  1.00  0.00    -0.191 A  
HETATM   24  H   UNL     1     -11.100   4.013  72.159  1.00  0.00     0.000 HD 
HETATM   25  C   UNL     1     -11.226   6.501  71.881  1.00  0.00    -0.272 C  
HETATM   26  O   UNL     1     -11.953   5.715  72.477  1.00  0.00    -0.258 OA 
HETATM   27  C   UNL     1     -11.720   7.864  71.543  1.00  0.00    -0.317 A  
HETATM   28  C   UNL     1     -10.804   8.841  71.141  1.00  0.00    -0.335 A  
HETATM   29  C   UNL     1     -11.243  10.175  71.076  1.00  0.00    -0.322 A  
HETATM   30  C   UNL     1     -12.597  10.517  71.118  1.00  0.00    -0.520 A  
HETATM   31  C   UNL     1     -13.515   9.521  71.438  1.00  0.00    -0.405 A  
HETATM   32  H   UNL     1     -14.929   7.525  72.123  1.00  0.00     0.000 HD 
HETATM   33  O   UNL     1     -14.014   7.286  72.026  1.00  0.00    -0.253 OA 
HETATM   34  C   UNL     1     -13.078   8.218  71.688  1.00  0.00    -0.334 A  
BRANCH  30  35
HETATM   35  C   UNL     1     -13.029  11.906  70.728  1.00  0.00     0.074 C  
HETATM   36  O   UNL     1     -11.878  12.714  70.491  1.00  0.00    -0.525 OA 
HETATM   37  H   UNL     1     -12.150  13.590  70.245  1.00  0.00     0.000 HD 
ENDBRANCH  30  35
ENDBRANCH   6  16
ENDBRANCH   2   4
TORSDOF 3
ENDMDL
MODEL       51
REMARK 921   NORMALIZED FREE ENERGY PREDICTED BY IDOCK:   -5.24 KCAL/MOL
REMARK 922        TOTAL FREE ENERGY PREDICTED BY IDOCK:   -6.81 KCAL/MOL
REMARK 923 INTER-LIGAND FREE ENERGY PREDICTED BY IDOCK:   -6.35 KCAL/MOL
REMARK 924 INTRA-LIGAND FREE ENERGY PREDICTED BY IDOCK:   -0.46 KCAL/MOL
REMARK 927      BINDING AFFINITY PREDICTED BY RF-SCORE:    0.00 PKD
ROOT
HETATM    1  O   UNL     1     -11.039  10.755  70.655  1.00  0.00    -0.424 OA 
HETATM    2  C   UNL     1     -10.180   9.715  70.214  1.00  0.00    -0.277 C  
HETATM    3  H   UNL     1     -10.576  11.491  71.035  1.00  0.00     0.000 HD 
ENDROOT
BRANCH   2   4
HETATM    4  C   UNL     1     -10.930   8.523  69.599  1.00  0.00    -0.086 C  
HETATM    5  O   UNL     1     -11.213   8.779  68.209  1.00  0.00     0.203 OA 
HETATM    6  C   UNL     1     -10.225   8.453  67.200  1.00  0.00    -0.292 C  
HETATM    7  H   UNL     1     -10.936   5.295  70.107  1.00  0.00     0.000 HD 
HETATM    8  C   UNL     1      -9.658   7.027  67.454  1.00  0.00    -0.135 C  
HETATM    9  O   UNL     1     -11.323   6.142  69.919  1.00  0.00    -0.405 OA 
HETATM   10  O   UNL     1     -10.669   6.024  67.180  1.00  0.00    -0.266 OA 
HETATM   11  C   UNL     1      -9.192   6.811  68.907  1.00  0.00    -0.131 C  
HETATM   12  C   UNL     1     -10.302   7.148  69.904  1.00  0.00    -0.213 C  
HETATM   13  O   UNL     1      -8.011   7.562  69.199  1.00  0.00    -0.116 OA 
HETATM   14  H   UNL     1      -7.723   7.429  70.094  1.00  0.00     0.000 HD 
HETATM   15  H   UNL     1     -10.323   5.153  67.335  1.00  0.00     0.000 HD 
BRANCH   6  16
HETATM   16  C   UNL     1      -9.221   9.656  66.863  1.00  0.00    -0.172 C  
HETATM   17  C   UNL     1     -11.778  12.507  66.674  1.00  0.00    -0.453 A  
HETATM   18  C   UNL     1     -10.046  10.822  66.301  1.00  0.00    -0.285 A  
HETATM   19  C   UNL     1     -10.853  11.588  67.166  1.00  0.00    -0.314 A  
HETATM   20  C   UNL     1     -11.929  12.670  65.304  1.00  0.00    -0.487 A  
HETATM   21  C   UNL     1     -11.103  11.962  64.433  1.00  0.00    -0.336 A  
HETATM   22  O   UNL     1     -11.304  12.121  63.091  1.00  0.00    -0.683 OA 
HETATM   23  C   UNL     1     -10.120  11.081  64.921  1.00  0.00    -0.359 A  
HETATM   24  H   UNL     1     -10.741  11.638  62.497  1.00  0.00     0.000 HD 
HETATM   25  C   UNL     1      -9.120  10.461  64.003  1.00  0.00    -0.242 C  
HETATM   26  O   UNL     1      -9.009  10.863  62.851  1.00  0.00    -0.234 OA 
HETATM   27  C   UNL     1      -8.156   9.460  64.539  1.00  0.00    -0.136 A  
HETATM   28  C   UNL     1      -8.103   9.236  65.919  1.00  0.00    -0.111 A  
HETATM   29  C   UNL     1      -7.026   8.490  66.428  1.00  0.00    -0.078 A  
HETATM   30  C   UNL     1      -6.182   7.741  65.604  1.00  0.00    -0.038 A  
HETATM   31  C   UNL     1      -6.295   7.906  64.226  1.00  0.00    -0.057 A  
HETATM   32  H   UNL     1      -6.678   8.480  61.782  1.00  0.00     0.000 HD 
HETATM   33  O   UNL     1      -7.293   8.934  62.346  1.00  0.00    -0.100 OA 
HETATM   34  C   UNL     1      -7.243   8.786  63.701  1.00  0.00    -0.094 A  
BRANCH  30  35
HETATM   35  C   UNL     1      -5.257   6.720  66.214  1.00  0.00    -0.018 C  
HETATM   36  O   UNL     1      -5.767   6.312  67.481  1.00  0.00    -0.012 OA 
HETATM   37  H   UNL     1      -5.183   5.668  67.865  1.00  0.00     0.000 HD 
ENDBRANCH  30  35
ENDBRANCH   6  16
ENDBRANCH   2   4
TORSDOF 3
ENDMDL
MODEL       52
REMARK 921   NORMALIZED FREE ENERGY PREDICTED BY IDOCK:   -5.20 KCAL/MOL
REMARK 922        TOTAL FREE ENERGY PREDICTED BY IDOCK:   -6.77 KCAL/MOL
REMARK 923 INTER-LIGAND FREE ENERGY PREDICTED BY IDOCK:   -6.13 KCAL/MOL
REMARK 924 INTRA-LIGAND FREE ENERGY PREDICTED BY IDOCK:   -0.64 KCAL/MOL
REMARK 927      BINDING AFFINITY PREDICTED BY RF-SCORE:    0.00 PKD
ROOT
HETATM    1  O   UNL     1      -8.228   8.552  73.135  1.00  0.00    -0.368 OA 
HETATM    2  C   UNL     1      -8.595   8.943  71.822  1.00  0.00    -0.042 C  
HETATM    3  H   UNL     1      -7.294   8.603  73.297  1.00  0.00     0.000 HD 
ENDROOT
BRANCH   2   4
HETATM    4  C   UNL     1     -10.108   8.861  71.561  1.00  0.00    -0.324 C  
HETATM    5  O   UNL     1     -10.360   8.697  70.151  1.00  0.00    -0.197 OA 
HETATM    6  C   UNL     1     -10.365   7.370  69.569  1.00  0.00    -0.217 C  
HETATM    7  H   UNL     1     -12.676   7.732  73.237  1.00  0.00     0.000 HD 
HETATM    8  C   UNL     1     -11.204   6.405  70.454  1.00  0.00    -0.372 C  
HETATM    9  O   UNL     1     -12.211   8.333  72.667  1.00  0.00    -0.364 OA 
HETATM   10  O   UNL     1     -12.613   6.742  70.376  1.00  0.00    -0.545 OA 
HETATM   11  C   UNL     1     -10.811   6.454  71.943  1.00  0.00    -0.240 C  
HETATM   12  C   UNL     1     -10.862   7.883  72.486  1.00  0.00    -0.341 C  
HETATM   13  O   UNL     1      -9.522   5.878  72.168  1.00  0.00    -0.150 OA 
HETATM   14  H   UNL     1      -9.280   5.908  73.086  1.00  0.00     0.000 HD 
HETATM   15  H   UNL     1     -13.125   6.153  70.917  1.00  0.00     0.000 HD 
BRANCH   6  16
HETATM   16  C   UNL     1      -8.935   6.898  69.018  1.00  0.00    -0.132 C  
HETATM   17  C   UNL     1      -7.957  10.094  67.138  1.00  0.00    -0.109 A  
HETATM   18  C   UNL     1      -8.535   7.833  67.869  1.00  0.00    -0.122 A  
HETATM   19  C   UNL     1      -8.118   9.149  68.151  1.00  0.00    -0.104 A  
HETATM   20  C   UNL     1      -8.224   9.748  65.821  1.00  0.00    -0.122 A  
HETATM   21  C   UNL     1      -8.585   8.438  65.515  1.00  0.00    -0.176 A  
HETATM   22  O   UNL     1      -8.875   8.141  64.212  1.00  0.00    -0.384 OA 
HETATM   23  C   UNL     1      -8.686   7.459  66.522  1.00  0.00    -0.149 A  
HETATM   24  H   UNL     1      -9.121   7.248  64.004  1.00  0.00     0.000 HD 
HETATM   25  C   UNL     1      -8.896   6.021  66.178  1.00  0.00    -0.148 C  
HETATM   26  O   UNL     1      -8.779   5.642  65.019  1.00  0.00    -0.141 OA 
HETATM   27  C   UNL     1      -9.094   5.029  67.271  1.00  0.00    -0.117 A  
HETATM   28  C   UNL     1      -8.925   5.435  68.599  1.00  0.00    -0.115 A  
HETATM   29  C   UNL     1      -8.862   4.443  69.592  1.00  0.00    -0.133 A  
HETATM   30  C   UNL     1      -9.236   3.118  69.348  1.00  0.00    -0.219 A  
HETATM   31  C   UNL     1      -9.484   2.739  68.032  1.00  0.00    -0.212 A  
HETATM   32  H   UNL     1      -9.787   2.330  65.543  1.00  0.00     0.000 HD 
HETATM   33  O   UNL     1      -9.598   3.244  65.725  1.00  0.00    -0.129 OA 
HETATM   34  C   UNL     1      -9.374   3.674  67.000  1.00  0.00    -0.198 A  
BRANCH  30  35
HETATM   35  C   UNL     1      -9.454   2.179  70.505  1.00  0.00    -0.102 C  
HETATM   36  O   UNL     1      -9.957   2.907  71.623  1.00  0.00    -0.158 OA 
HETATM   37  H   UNL     1     -10.094   2.315  72.352  1.00  0.00     0.000 HD 
ENDBRANCH  30  35
ENDBRANCH   6  16
ENDBRANCH   2   4
TORSDOF 3
ENDMDL
MODEL       53
REMARK 921   NORMALIZED FREE ENERGY PREDICTED BY IDOCK:   -5.11 KCAL/MOL
REMARK 922        TOTAL FREE ENERGY PREDICTED BY IDOCK:   -6.66 KCAL/MOL
REMARK 923 INTER-LIGAND FREE ENERGY PREDICTED BY IDOCK:   -6.20 KCAL/MOL
REMARK 924 INTRA-LIGAND FREE ENERGY PREDICTED BY IDOCK:   -0.46 KCAL/MOL
REMARK 927      BINDING AFFINITY PREDICTED BY RF-SCORE:    0.00 PKD
ROOT
HETATM    1  O   UNL     1      -5.748   9.846  69.195  1.00  0.00    -0.035 OA 
HETATM    2  C   UNL     1      -6.850  10.724  69.022  1.00  0.00    -0.075 C  
HETATM    3  H   UNL     1      -4.911  10.247  68.994  1.00  0.00     0.000 HD 
ENDROOT
BRANCH   2   4
HETATM    4  C   UNL     1      -8.204  10.074  69.348  1.00  0.00    -0.155 C  
HETATM    5  O   UNL     1      -9.270  11.024  69.148  1.00  0.00    -0.127 OA 
HETATM    6  C   UNL     1      -9.859  11.180  67.833  1.00  0.00    -0.174 C  
HETATM    7  H   UNL     1      -9.420   7.049  69.126  1.00  0.00     0.000 HD 
HETATM    8  C   UNL     1     -10.162   9.784  67.218  1.00  0.00    -0.232 C  
HETATM    9  O   UNL     1      -9.287   7.901  69.524  1.00  0.00    -0.156 OA 
HETATM   10  O   UNL     1     -11.252   9.143  67.929  1.00  0.00    -0.494 OA 
HETATM   11  C   UNL     1      -8.959   8.823  67.275  1.00  0.00    -0.132 C  
HETATM   12  C   UNL     1      -8.419   8.691  68.700  1.00  0.00    -0.130 C  
HETATM   13  O   UNL     1      -7.919   9.226  66.381  1.00  0.00    -0.106 OA 
HETATM   14  H   UNL     1      -7.177   8.633  66.416  1.00  0.00     0.000 HD 
HETATM   15  H   UNL     1     -11.437   8.290  67.554  1.00  0.00     0.000 HD 
BRANCH   6  16
HETATM   16  C   UNL     1      -9.152  12.304  66.935  1.00  0.00    -0.208 C  
HETATM   17  C   UNL     1      -8.922  15.084  69.567  1.00  0.00    -0.059 A  
HETATM   18  C   UNL     1      -9.351  13.661  67.626  1.00  0.00    -0.215 A  
HETATM   19  C   UNL     1      -8.618  13.967  68.789  1.00  0.00    -0.032 A  
HETATM   20  C   UNL     1      -9.977  15.911  69.207  1.00  0.00    -0.254 A  
HETATM   21  C   UNL     1     -10.680  15.656  68.031  1.00  0.00    -0.287 A  
HETATM   22  O   UNL     1     -11.735  16.469  67.727  1.00  0.00     0.124 OA 
HETATM   23  C   UNL     1     -10.339  14.569  67.204  1.00  0.00    -0.265 A  
HETATM   24  H   UNL     1     -12.214  16.295  66.926  1.00  0.00     0.000 HD 
HETATM   25  C   UNL     1     -10.968  14.398  65.861  1.00  0.00    -0.312 C  
HETATM   26  O   UNL     1     -11.635  15.303  65.374  1.00  0.00    -0.243 OA 
HETATM   27  C   UNL     1     -10.654  13.186  65.055  1.00  0.00    -0.347 A  
HETATM   28  C   UNL     1      -9.659  12.310  65.500  1.00  0.00    -0.112 A  
HETATM   29  C   UNL     1      -9.200  11.323  64.612  1.00  0.00    -0.090 A  
HETATM   30  C   UNL     1      -9.878  11.006  63.432  1.00  0.00    -0.404 A  
HETATM   31  C   UNL     1     -10.924  11.836  63.035  1.00  0.00    -0.111 A  
HETATM   32  H   UNL     1     -12.714  13.566  62.533  1.00  0.00     0.000 HD 
HETATM   33  O   UNL     1     -12.292  13.734  63.367  1.00  0.00    -0.750 OA 
HETATM   34  C   UNL     1     -11.281  12.937  63.816  1.00  0.00    -0.402 A  
BRANCH  30  35
HETATM   35  C   UNL     1      -9.532   9.744  62.686  1.00  0.00     0.005 C  
HETATM   36  O   UNL     1      -8.990   8.788  63.594  1.00  0.00    -0.417 OA 
HETATM   37  H   UNL     1      -8.772   7.992  63.124  1.00  0.00     0.000 HD 
ENDBRANCH  30  35
ENDBRANCH   6  16
ENDBRANCH   2   4
TORSDOF 3
ENDMDL
MODEL       54
REMARK 921   NORMALIZED FREE ENERGY PREDICTED BY IDOCK:   -5.08 KCAL/MOL
REMARK 922        TOTAL FREE ENERGY PREDICTED BY IDOCK:   -6.62 KCAL/MOL
REMARK 923 INTER-LIGAND FREE ENERGY PREDICTED BY IDOCK:   -6.29 KCAL/MOL
REMARK 924 INTRA-LIGAND FREE ENERGY PREDICTED BY IDOCK:   -0.33 KCAL/MOL
REMARK 927      BINDING AFFINITY PREDICTED BY RF-SCORE:    0.00 PKD
ROOT
HETATM    1  O   UNL     1      -7.930  19.719  66.079  1.00  0.00    -0.336 OA 
HETATM    2  C   UNL     1      -9.279  19.353  65.831  1.00  0.00    -0.018 C  
HETATM    3  H   UNL     1      -7.402  19.769  65.291  1.00  0.00     0.000 HD 
ENDROOT
BRANCH   2   4
HETATM    4  C   UNL     1     -10.133  19.273  67.106  1.00  0.00    -0.377 C  
HETATM    5  O   UNL     1     -10.873  18.037  67.130  1.00  0.00    -0.312 OA 
HETATM    6  C   UNL     1     -10.262  16.841  67.675  1.00  0.00    -0.289 C  
HETATM    7  H   UNL     1      -9.816  20.382  70.164  1.00  0.00     0.000 HD 
HETATM    8  C   UNL     1      -9.575  17.167  69.032  1.00  0.00    -0.189 C  
HETATM    9  O   UNL     1     -10.283  20.171  69.364  1.00  0.00    -0.250 OA 
HETATM   10  O   UNL     1     -10.571  17.452  70.048  1.00  0.00    -0.173 OA 
HETATM   11  C   UNL     1      -8.643  18.392  68.960  1.00  0.00    -0.035 C  
HETATM   12  C   UNL     1      -9.374  19.616  68.404  1.00  0.00    -0.351 C  
HETATM   13  O   UNL     1      -7.470  18.117  68.191  1.00  0.00    -0.242 OA 
HETATM   14  H   UNL     1      -6.895  18.872  68.146  1.00  0.00     0.000 HD 
HETATM   15  H   UNL     1     -10.152  17.651  70.877  1.00  0.00     0.000 HD 
BRANCH   6  16
HETATM   16  C   UNL     1      -9.486  15.956  66.587  1.00  0.00    -0.263 C  
HETATM   17  C   UNL     1     -12.277  15.675  63.973  1.00  0.00     0.158 A  
HETATM   18  C   UNL     1     -10.527  15.335  65.647  1.00  0.00    -0.377 A  
HETATM   19  C   UNL     1     -11.178  16.142  64.693  1.00  0.00    -0.307 A  
HETATM   20  C   UNL     1     -12.761  14.395  64.203  1.00  0.00     0.133 A  
HETATM   21  C   UNL     1     -12.100  13.562  65.104  1.00  0.00    -0.404 A  
HETATM   22  O   UNL     1     -12.624  12.321  65.332  1.00  0.00    -0.572 OA 
HETATM   23  C   UNL     1     -10.949  14.000  65.787  1.00  0.00    -0.294 A  
HETATM   24  H   UNL     1     -12.174  11.754  65.945  1.00  0.00     0.000 HD 
HETATM   25  C   UNL     1     -10.138  13.056  66.611  1.00  0.00    -0.251 C  
HETATM   26  O   UNL     1     -10.340  11.850  66.544  1.00  0.00    -0.210 OA 
HETATM   27  C   UNL     1      -8.983  13.576  67.395  1.00  0.00    -0.219 A  
HETATM   28  C   UNL     1      -8.586  14.906  67.224  1.00  0.00    -0.232 A  
HETATM   29  C   UNL     1      -7.354  15.305  67.768  1.00  0.00    -0.181 A  
HETATM   30  C   UNL     1      -6.659  14.522  68.694  1.00  0.00    -0.087 A  
HETATM   31  C   UNL     1      -7.109  13.224  68.924  1.00  0.00    -0.079 A  
HETATM   32  H   UNL     1      -8.109  10.894  69.067  1.00  0.00     0.000 HD 
HETATM   33  O   UNL     1      -8.615  11.455  68.490  1.00  0.00    -0.151 OA 
HETATM   34  C   UNL     1      -8.234  12.743  68.251  1.00  0.00    -0.159 A  
BRANCH  30  35
HETATM   35  C   UNL     1      -5.523  15.125  69.479  1.00  0.00    -0.094 C  
HETATM   36  O   UNL     1      -5.445  16.522  69.207  1.00  0.00    -0.130 OA 
HETATM   37  H   UNL     1      -4.729  16.902  69.702  1.00  0.00     0.000 HD 
ENDBRANCH  30  35
ENDBRANCH   6  16
ENDBRANCH   2   4
TORSDOF 3
ENDMDL
MODEL       55
REMARK 921   NORMALIZED FREE ENERGY PREDICTED BY IDOCK:   -5.04 KCAL/MOL
REMARK 922        TOTAL FREE ENERGY PREDICTED BY IDOCK:   -6.58 KCAL/MOL
REMARK 923 INTER-LIGAND FREE ENERGY PREDICTED BY IDOCK:   -6.35 KCAL/MOL
REMARK 924 INTRA-LIGAND FREE ENERGY PREDICTED BY IDOCK:   -0.23 KCAL/MOL
REMARK 927      BINDING AFFINITY PREDICTED BY RF-SCORE:    0.00 PKD
ROOT
HETATM    1  O   UNL     1      -8.572  10.850  68.962  1.00  0.00    -0.226 OA 
HETATM    2  C   UNL     1      -9.014   9.793  69.800  1.00  0.00    -0.221 C  
HETATM    3  H   UNL     1      -7.639  11.016  69.025  1.00  0.00     0.000 HD 
ENDROOT
BRANCH   2   4
HETATM    4  C   UNL     1     -10.524   9.525  69.698  1.00  0.00    -0.223 C  
HETATM    5  O   UNL     1     -10.761   8.287  68.998  1.00  0.00    -0.184 OA 
HETATM    6  C   UNL     1     -10.766   7.035  69.729  1.00  0.00    -0.241 C  
HETATM    7  H   UNL     1     -13.115  10.200  71.572  1.00  0.00     0.000 HD 
HETATM    8  C   UNL     1     -11.619   7.178  71.021  1.00  0.00    -0.309 C  
HETATM    9  O   UNL     1     -12.642  10.096  70.754  1.00  0.00    -0.316 OA 
HETATM   10  O   UNL     1     -13.025   7.304  70.689  1.00  0.00    -0.601 OA 
HETATM   11  C   UNL     1     -11.242   8.414  71.862  1.00  0.00    -0.311 C  
HETATM   12  C   UNL     1     -11.292   9.693  71.025  1.00  0.00    -0.374 C  
HETATM   13  O   UNL     1      -9.958   8.265  72.472  1.00  0.00    -0.266 OA 
HETATM   14  H   UNL     1      -9.725   9.026  72.990  1.00  0.00     0.000 HD 
HETATM   15  H   UNL     1     -13.546   7.392  71.479  1.00  0.00     0.000 HD 
BRANCH   6  16
HETATM   16  C   UNL     1      -9.333   6.321  69.800  1.00  0.00    -0.152 C  
HETATM   17  C   UNL     1      -8.293   6.743  66.134  1.00  0.00    -0.130 A  
HETATM   18  C   UNL     1      -8.905   5.966  68.370  1.00  0.00    -0.111 A  
HETATM   19  C   UNL     1      -8.480   6.985  67.494  1.00  0.00    -0.122 A  
HETATM   20  C   UNL     1      -8.543   5.480  65.615  1.00  0.00    -0.148 A  
HETATM   21  C   UNL     1      -8.912   4.446  66.473  1.00  0.00    -0.117 A  
HETATM   22  O   UNL     1      -9.184   3.224  65.923  1.00  0.00    -0.151 OA 
HETATM   23  C   UNL     1      -9.039   4.663  67.858  1.00  0.00    -0.140 A  
HETATM   24  H   UNL     1      -9.435   2.520  66.508  1.00  0.00     0.000 HD 
HETATM   25  C   UNL     1      -9.257   3.524  68.798  1.00  0.00    -0.163 C  
HETATM   26  O   UNL     1      -9.126   2.370  68.408  1.00  0.00    -0.126 OA 
HETATM   27  C   UNL     1      -9.482   3.801  70.244  1.00  0.00    -0.257 A  
HETATM   28  C   UNL     1      -9.330   5.108  70.719  1.00  0.00    -0.210 A  
HETATM   29  C   UNL     1      -9.292   5.307  72.110  1.00  0.00    -0.159 A  
HETATM   30  C   UNL     1      -9.676   4.315  73.016  1.00  0.00    -0.164 A  
HETATM   31  C   UNL     1      -9.906   3.032  72.525  1.00  0.00    -0.219 A  
HETATM   32  H   UNL     1     -10.174   0.795  71.354  1.00  0.00     0.000 HD 
HETATM   33  O   UNL     1      -9.979   1.490  70.736  1.00  0.00    -0.052 OA 
HETATM   34  C   UNL     1      -9.771   2.769  71.161  1.00  0.00    -0.113 A  
BRANCH  30  35
HETATM   35  C   UNL     1      -9.921   4.674  74.458  1.00  0.00    -0.206 C  
HETATM   36  O   UNL     1     -10.959   5.648  74.536  1.00  0.00    -0.334 OA 
HETATM   37  H   UNL     1     -11.114   5.875  75.446  1.00  0.00     0.000 HD 
ENDBRANCH  30  35
ENDBRANCH   6  16
ENDBRANCH   2   4
TORSDOF 3
ENDMDL
MODEL       56
REMARK 921   NORMALIZED FREE ENERGY PREDICTED BY IDOCK:   -4.92 KCAL/MOL
REMARK 922        TOTAL FREE ENERGY PREDICTED BY IDOCK:   -6.43 KCAL/MOL
REMARK 923 INTER-LIGAND FREE ENERGY PREDICTED BY IDOCK:   -6.04 KCAL/MOL
REMARK 924 INTRA-LIGAND FREE ENERGY PREDICTED BY IDOCK:   -0.39 KCAL/MOL
REMARK 927      BINDING AFFINITY PREDICTED BY RF-SCORE:    0.00 PKD
ROOT
HETATM    1  O   UNL     1     -13.247  10.454  69.856  1.00  0.00    -0.525 OA 
HETATM    2  C   UNL     1     -11.896  10.155  69.543  1.00  0.00     0.003 C  
HETATM    3  H   UNL     1     -13.827   9.706  69.779  1.00  0.00     0.000 HD 
ENDROOT
BRANCH   2   4
HETATM    4  C   UNL     1     -10.958  11.366  69.667  1.00  0.00    -0.110 C  
HETATM    5  O   UNL     1      -9.654  11.038  69.149  1.00  0.00    -0.166 OA 
HETATM    6  C   UNL     1      -9.380  11.194  67.734  1.00  0.00    -0.164 C  
HETATM    7  H   UNL     1     -11.358  14.608  69.567  1.00  0.00     0.000 HD 
HETATM    8  C   UNL     1      -9.904  12.572  67.240  1.00  0.00    -0.204 C  
HETATM    9  O   UNL     1     -10.988  13.791  69.880  1.00  0.00     0.007 OA 
HETATM   10  O   UNL     1      -9.101  13.646  67.791  1.00  0.00    -0.181 OA 
HETATM   11  C   UNL     1     -11.365  12.846  67.648  1.00  0.00    -0.303 C  
HETATM   12  C   UNL     1     -11.559  12.692  69.158  1.00  0.00    -0.320 C  
HETATM   13  O   UNL     1     -12.278  12.007  66.937  1.00  0.00    -0.529 OA 
HETATM   14  H   UNL     1     -13.178  12.176  67.188  1.00  0.00     0.000 HD 
HETATM   15  H   UNL     1      -9.421  14.489  67.490  1.00  0.00     0.000 HD 
BRANCH   6  16
HETATM   16  C   UNL     1      -9.677   9.877  66.868  1.00  0.00    -0.236 C  
HETATM   17  C   UNL     1      -7.803   7.327  69.033  1.00  0.00    -0.118 A  
HETATM   18  C   UNL     1      -8.668   8.797  67.281  1.00  0.00    -0.133 A  
HETATM   19  C   UNL     1      -8.808   8.149  68.524  1.00  0.00    -0.134 A  
HETATM   20  C   UNL     1      -6.627   7.149  68.317  1.00  0.00    -0.049 A  
HETATM   21  C   UNL     1      -6.491   7.737  67.062  1.00  0.00    -0.055 A  
HETATM   22  O   UNL     1      -5.307   7.569  66.401  1.00  0.00    -0.023 OA 
HETATM   23  C   UNL     1      -7.527   8.515  66.509  1.00  0.00    -0.088 A  
HETATM   24  H   UNL     1      -5.214   7.971  65.545  1.00  0.00     0.000 HD 
HETATM   25  C   UNL     1      -7.458   8.996  65.098  1.00  0.00    -0.097 C  
HETATM   26  O   UNL     1      -6.603   8.556  64.338  1.00  0.00    -0.066 OA 
HETATM   27  C   UNL     1      -8.525   9.895  64.578  1.00  0.00    -0.181 A  
HETATM   28  C   UNL     1      -9.650  10.145  65.370  1.00  0.00    -0.325 A  
HETATM   29  C   UNL     1     -10.754  10.778  64.772  1.00  0.00    -0.168 A  
HETATM   30  C   UNL     1     -10.668  11.408  63.527  1.00  0.00    -0.453 A  
HETATM   31  C   UNL     1      -9.510  11.222  62.777  1.00  0.00    -0.355 A  
HETATM   32  H   UNL     1      -7.328  10.635  61.617  1.00  0.00     0.000 HD 
HETATM   33  O   UNL     1      -7.367  10.267  62.492  1.00  0.00    -0.132 OA 
HETATM   34  C   UNL     1      -8.467  10.441  63.279  1.00  0.00    -0.177 A  
BRANCH  30  35
HETATM   35  C   UNL     1     -11.770  12.333  63.081  1.00  0.00    -0.220 C  
HETATM   36  O   UNL     1     -12.418  12.888  64.223  1.00  0.00    -0.541 OA 
HETATM   37  H   UNL     1     -13.113  13.471  63.942  1.00  0.00     0.000 HD 
ENDBRANCH  30  35
ENDBRANCH   6  16
ENDBRANCH   2   4
TORSDOF 3
ENDMDL
MODEL       57
REMARK 921   NORMALIZED FREE ENERGY PREDICTED BY IDOCK:   -4.87 KCAL/MOL
REMARK 922        TOTAL FREE ENERGY PREDICTED BY IDOCK:   -6.38 KCAL/MOL
REMARK 923 INTER-LIGAND FREE ENERGY PREDICTED BY IDOCK:   -5.93 KCAL/MOL
REMARK 924 INTRA-LIGAND FREE ENERGY PREDICTED BY IDOCK:   -0.44 KCAL/MOL
REMARK 927      BINDING AFFINITY PREDICTED BY RF-SCORE:    0.00 PKD
ROOT
HETATM    1  O   UNL     1      -8.904   8.529  64.675  1.00  0.00    -0.405 OA 
HETATM    2  C   UNL     1      -9.174   9.395  65.767  1.00  0.00    -0.219 C  
HETATM    3  H   UNL     1      -9.641   8.423  64.086  1.00  0.00     0.000 HD 
ENDROOT
BRANCH   2   4
HETATM    4  C   UNL     1      -7.979   9.567  66.719  1.00  0.00    -0.109 C  
HETATM    5  O   UNL     1      -8.446   9.771  68.067  1.00  0.00    -0.117 OA 
HETATM    6  C   UNL     1      -8.731   8.629  68.912  1.00  0.00    -0.131 C  
HETATM    7  H   UNL     1      -4.925   8.407  66.815  1.00  0.00     0.000 HD 
HETATM    8  C   UNL     1      -7.572   7.596  68.818  1.00  0.00    -0.102 C  
HETATM    9  O   UNL     1      -5.606   9.063  66.917  1.00  0.00    -0.040 OA 
HETATM   10  O   UNL     1      -6.378   8.116  69.457  1.00  0.00    -0.033 OA 
HETATM   11  C   UNL     1      -7.190   7.245  67.367  1.00  0.00    -0.090 C  
HETATM   12  C   UNL     1      -6.875   8.502  66.554  1.00  0.00    -0.071 C  
HETATM   13  O   UNL     1      -8.210   6.476  66.724  1.00  0.00    -0.108 OA 
HETATM   14  H   UNL     1      -7.975   6.260  65.830  1.00  0.00     0.000 HD 
HETATM   15  H   UNL     1      -5.669   7.485  69.399  1.00  0.00     0.000 HD 
BRANCH   6  16
HETATM   16  C   UNL     1     -10.250   8.123  68.829  1.00  0.00    -0.221 C  
HETATM   17  C   UNL     1     -11.991  11.539  68.739  1.00  0.00    -0.335 A  
HETATM   18  C   UNL     1     -11.163   9.291  69.228  1.00  0.00     0.066 A  
HETATM   19  C   UNL     1     -11.353  10.366  68.337  1.00  0.00    -0.292 A  
HETATM   20  C   UNL     1     -12.439  11.670  70.045  1.00  0.00    -0.166 A  
HETATM   21  C   UNL     1     -12.310  10.598  70.927  1.00  0.00    -0.401 A  
HETATM   22  O   UNL     1     -12.731  10.774  72.215  1.00  0.00    -0.188 OA 
HETATM   23  C   UNL     1     -11.727   9.385  70.513  1.00  0.00    -0.254 A  
HETATM   24  H   UNL     1     -12.642  10.044  72.815  1.00  0.00     0.000 HD 
HETATM   25  C   UNL     1     -11.750   8.181  71.395  1.00  0.00    -0.285 C  
HETATM   26  O   UNL     1     -12.448   8.168  72.401  1.00  0.00    -0.322 OA 
HETATM   27  C   UNL     1     -11.040   6.944  70.963  1.00  0.00    -0.305 A  
HETATM   28  C   UNL     1     -10.500   6.883  69.675  1.00  0.00    -0.240 A  
HETATM   29  C   UNL     1     -10.067   5.634  69.197  1.00  0.00    -0.274 A  
HETATM   30  C   UNL     1      -9.894   4.532  70.039  1.00  0.00    -0.296 A  
HETATM   31  C   UNL     1     -10.360   4.628  71.348  1.00  0.00    -0.160 A  
HETATM   32  H   UNL     1     -11.376   5.071  73.633  1.00  0.00     0.000 HD 
HETATM   33  O   UNL     1     -11.429   5.838  73.074  1.00  0.00    -0.248 OA 
HETATM   34  C   UNL     1     -10.963   5.806  71.793  1.00  0.00    -0.256 A  
BRANCH  30  35
HETATM   35  C   UNL     1      -9.134   3.328  69.547  1.00  0.00    -0.133 C  
HETATM   36  O   UNL     1      -9.535   3.024  68.213  1.00  0.00    -0.197 OA 
HETATM   37  H   UNL     1      -9.056   2.265  67.903  1.00  0.00     0.000 HD 
ENDBRANCH  30  35
ENDBRANCH   6  16
ENDBRANCH   2   4
TORSDOF 3
ENDMDL
MODEL       58
REMARK 921   NORMALIZED FREE ENERGY PREDICTED BY IDOCK:   -4.81 KCAL/MOL
REMARK 922        TOTAL FREE ENERGY PREDICTED BY IDOCK:   -6.31 KCAL/MOL
REMARK 923 INTER-LIGAND FREE ENERGY PREDICTED BY IDOCK:   -6.46 KCAL/MOL
REMARK 924 INTRA-LIGAND FREE ENERGY PREDICTED BY IDOCK:    0.16 KCAL/MOL
REMARK 927      BINDING AFFINITY PREDICTED BY RF-SCORE:    0.00 PKD
ROOT
HETATM    1  O   UNL     1     -10.401   5.647  69.738  1.00  0.00    -0.229 OA 
HETATM    2  C   UNL     1      -9.087   5.263  69.364  1.00  0.00    -0.104 C  
HETATM    3  H   UNL     1     -11.076   5.090  69.368  1.00  0.00     0.000 HD 
ENDROOT
BRANCH   2   4
HETATM    4  C   UNL     1      -7.995   6.164  69.963  1.00  0.00    -0.111 C  
HETATM    5  O   UNL     1      -7.761   7.297  69.103  1.00  0.00    -0.103 OA 
HETATM    6  C   UNL     1      -8.574   8.488  69.243  1.00  0.00    -0.129 C  
HETATM    7  H   UNL     1      -7.036   6.914  72.996  1.00  0.00     0.000 HD 
HETATM    8  C   UNL     1      -8.695   8.876  70.744  1.00  0.00    -0.206 C  
HETATM    9  O   UNL     1      -6.916   6.710  72.075  1.00  0.00    -0.069 OA 
HETATM   10  O   UNL     1      -7.422   9.356  71.247  1.00  0.00    -0.322 OA 
HETATM   11  C   UNL     1      -9.118   7.698  71.642  1.00  0.00    -0.134 C  
HETATM   12  C   UNL     1      -8.191   6.495  71.457  1.00  0.00    -0.116 C  
HETATM   13  O   UNL     1     -10.479   7.322  71.412  1.00  0.00    -0.204 OA 
HETATM   14  H   UNL     1     -10.740   6.596  71.965  1.00  0.00     0.000 HD 
HETATM   15  H   UNL     1      -7.495   9.593  72.164  1.00  0.00     0.000 HD 
BRANCH   6  16
HETATM   16  C   UNL     1      -9.883   8.492  68.316  1.00  0.00    -0.190 C  
HETATM   17  C   UNL     1      -8.276   7.309  65.042  1.00  0.00    -0.100 A  
HETATM   18  C   UNL     1      -9.429   8.483  66.850  1.00  0.00    -0.237 A  
HETATM   19  C   UNL     1      -8.897   7.305  66.290  1.00  0.00    -0.179 A  
HETATM   20  C   UNL     1      -8.157   8.496  64.333  1.00  0.00    -0.163 A  
HETATM   21  C   UNL     1      -8.724   9.662  64.844  1.00  0.00    -0.181 A  
HETATM   22  O   UNL     1      -8.558  10.818  64.136  1.00  0.00    -0.311 OA 
HETATM   23  C   UNL     1      -9.412   9.655  66.073  1.00  0.00    -0.284 A  
HETATM   24  H   UNL     1      -8.944  11.613  64.485  1.00  0.00     0.000 HD 
HETATM   25  C   UNL     1     -10.171  10.854  66.535  1.00  0.00    -0.232 C  
HETATM   26  O   UNL     1     -10.376  11.786  65.768  1.00  0.00    -0.236 OA 
HETATM   27  C   UNL     1     -10.806  10.843  67.882  1.00  0.00    -0.295 A  
HETATM   28  C   UNL     1     -10.812   9.657  68.623  1.00  0.00    -0.203 A  
HETATM   29  C   UNL     1     -11.630   9.594  69.765  1.00  0.00    -0.022 A  
HETATM   30  C   UNL     1     -12.203  10.733  70.336  1.00  0.00    -0.437 A  
HETATM   31  C   UNL     1     -12.121  11.931  69.632  1.00  0.00    -0.304 A  
HETATM   32  H   UNL     1     -11.885  13.933  68.086  1.00  0.00     0.000 HD 
HETATM   33  O   UNL     1     -11.440  13.169  67.737  1.00  0.00    -0.276 OA 
HETATM   34  C   UNL     1     -11.466  11.977  68.400  1.00  0.00    -0.301 A  
BRANCH  30  35
HETATM   35  C   UNL     1     -12.796  10.657  71.719  1.00  0.00    -0.444 C  
HETATM   36  O   UNL     1     -12.511   9.383  72.291  1.00  0.00    -0.341 OA 
HETATM   37  H   UNL     1     -12.885   9.335  73.163  1.00  0.00     0.000 HD 
ENDBRANCH  30  35
ENDBRANCH   6  16
ENDBRANCH   2   4
TORSDOF 3
ENDMDL
MODEL       59
REMARK 921   NORMALIZED FREE ENERGY PREDICTED BY IDOCK:   -4.79 KCAL/MOL
REMARK 922        TOTAL FREE ENERGY PREDICTED BY IDOCK:   -6.28 KCAL/MOL
REMARK 923 INTER-LIGAND FREE ENERGY PREDICTED BY IDOCK:   -6.16 KCAL/MOL
REMARK 924 INTRA-LIGAND FREE ENERGY PREDICTED BY IDOCK:   -0.12 KCAL/MOL
REMARK 927      BINDING AFFINITY PREDICTED BY RF-SCORE:    0.00 PKD
ROOT
HETATM    1  O   UNL     1     -13.589   9.869  70.979  1.00  0.00    -0.454 OA 
HETATM    2  C   UNL     1     -13.141  10.606  69.852  1.00  0.00     0.389 C  
HETATM    3  H   UNL     1     -14.352   9.331  70.798  1.00  0.00     0.000 HD 
ENDROOT
BRANCH   2   4
HETATM    4  C   UNL     1     -11.907  11.475  70.144  1.00  0.00    -0.356 C  
HETATM    5  O   UNL     1     -10.743  10.642  70.311  1.00  0.00    -0.204 OA 
HETATM    6  C   UNL     1      -9.969  10.242  69.152  1.00  0.00    -0.222 C  
HETATM    7  H   UNL     1     -10.950  14.479  69.284  1.00  0.00     0.000 HD 
HETATM    8  C   UNL     1      -9.713  11.472  68.235  1.00  0.00    -0.198 C  
HETATM    9  O   UNL     1     -11.058  13.740  69.871  1.00  0.00    -0.074 OA 
HETATM   10  O   UNL     1      -8.792  12.394  68.871  1.00  0.00    -0.374 OA 
HETATM   11  C   UNL     1     -10.995  12.264  67.913  1.00  0.00    -0.224 C  
HETATM   12  C   UNL     1     -11.732  12.674  69.189  1.00  0.00    -0.321 C  
HETATM   13  O   UNL     1     -11.864  11.533  67.045  1.00  0.00    -0.568 OA 
HETATM   14  H   UNL     1     -12.654  12.021  66.846  1.00  0.00     0.000 HD 
HETATM   15  H   UNL     1      -8.636  13.146  68.311  1.00  0.00     0.000 HD 
BRANCH   6  16
HETATM   16  C   UNL     1     -10.444   8.855  68.503  1.00  0.00    -0.218 C  
HETATM   17  C   UNL     1     -11.018   6.871  71.733  1.00  0.00    -0.259 A  
HETATM   18  C   UNL     1     -10.310   7.759  69.568  1.00  0.00    -0.219 A  
HETATM   19  C   UNL     1     -11.228   7.705  70.635  1.00  0.00    -0.280 A  
HETATM   20  C   UNL     1      -9.876   6.086  71.797  1.00  0.00    -0.189 A  
HETATM   21  C   UNL     1      -8.983   6.084  70.728  1.00  0.00    -0.149 A  
HETATM   22  O   UNL     1      -7.852   5.325  70.840  1.00  0.00    -0.092 OA 
HETATM   23  C   UNL     1      -9.219   6.872  69.584  1.00  0.00    -0.146 A  
HETATM   24  H   UNL     1      -7.243   5.325  70.111  1.00  0.00     0.000 HD 
HETATM   25  C   UNL     1      -8.363   6.738  68.369  1.00  0.00    -0.123 C  
HETATM   26  O   UNL     1      -7.575   5.805  68.270  1.00  0.00    -0.083 OA 
HETATM   27  C   UNL     1      -8.582   7.654  67.215  1.00  0.00    -0.121 A  
HETATM   28  C   UNL     1      -9.683   8.516  67.229  1.00  0.00    -0.239 A  
HETATM   29  C   UNL     1     -10.019   9.180  66.037  1.00  0.00    -0.293 A  
HETATM   30  C   UNL     1      -9.152   9.234  64.943  1.00  0.00    -0.227 A  
HETATM   31  C   UNL     1      -8.012   8.435  64.970  1.00  0.00    -0.139 A  
HETATM   32  H   UNL     1      -6.078   6.816  65.272  1.00  0.00     0.000 HD 
HETATM   33  O   UNL     1      -6.638   6.836  66.040  1.00  0.00    -0.048 OA 
HETATM   34  C   UNL     1      -7.752   7.623  66.076  1.00  0.00    -0.090 A  
BRANCH  30  35
HETATM   35  C   UNL     1      -9.416  10.211  63.827  1.00  0.00    -0.275 C  
HETATM   36  O   UNL     1      -8.396  11.207  63.814  1.00  0.00    -0.359 OA 
HETATM   37  H   UNL     1      -8.563  11.823  63.111  1.00  0.00     0.000 HD 
ENDBRANCH  30  35
ENDBRANCH   6  16
ENDBRANCH   2   4
TORSDOF 3
ENDMDL
MODEL       60
REMARK 921   NORMALIZED FREE ENERGY PREDICTED BY IDOCK:   -4.76 KCAL/MOL
REMARK 922        TOTAL FREE ENERGY PREDICTED BY IDOCK:   -6.25 KCAL/MOL
REMARK 923 INTER-LIGAND FREE ENERGY PREDICTED BY IDOCK:   -6.03 KCAL/MOL
REMARK 924 INTRA-LIGAND FREE ENERGY PREDICTED BY IDOCK:   -0.23 KCAL/MOL
REMARK 927      BINDING AFFINITY PREDICTED BY RF-SCORE:    0.00 PKD
ROOT
HETATM    1  O   UNL     1      -8.821  10.632  66.071  1.00  0.00    -0.162 OA 
HETATM    2  C   UNL     1      -8.955   9.931  67.297  1.00  0.00    -0.135 C  
HETATM    3  H   UNL     1      -7.920  10.725  65.787  1.00  0.00     0.000 HD 
ENDROOT
BRANCH   2   4
HETATM    4  C   UNL     1     -10.414   9.780  67.757  1.00  0.00    -0.246 C  
HETATM    5  O   UNL     1     -10.763   8.385  67.848  1.00  0.00    -0.182 OA 
HETATM    6  C   UNL     1     -10.488   7.650  69.066  1.00  0.00    -0.205 C  
HETATM    7  H   UNL     1     -12.411  11.503  69.687  1.00  0.00     0.000 HD 
HETATM    8  C   UNL     1     -10.950   8.476  70.300  1.00  0.00    -0.235 C  
HETATM    9  O   UNL     1     -12.181  10.975  68.931  1.00  0.00    -0.519 OA 
HETATM   10  O   UNL     1     -12.398   8.548  70.348  1.00  0.00    -0.399 OA 
HETATM   11  C   UNL     1     -10.428   9.926  70.289  1.00  0.00    -0.291 C  
HETATM   12  C   UNL     1     -10.788  10.637  68.984  1.00  0.00    -0.235 C  
HETATM   13  O   UNL     1      -9.017   9.980  70.517  1.00  0.00    -0.317 OA 
HETATM   14  H   UNL     1      -8.695  10.873  70.510  1.00  0.00     0.000 HD 
HETATM   15  H   UNL     1     -12.681   9.052  71.101  1.00  0.00     0.000 HD 
BRANCH   6  16
HETATM   16  C   UNL     1      -9.051   6.938  69.084  1.00  0.00    -0.136 C  
HETATM   17  C   UNL     1      -9.022   5.611  65.486  1.00  0.00    -0.113 A  
HETATM   18  C   UNL     1      -8.993   5.955  67.907  1.00  0.00    -0.111 A  
HETATM   19  C   UNL     1      -8.861   6.444  66.592  1.00  0.00    -0.132 A  
HETATM   20  C   UNL     1      -9.336   4.271  65.670  1.00  0.00    -0.161 A  
HETATM   21  C   UNL     1      -9.417   3.755  66.962  1.00  0.00    -0.200 A  
HETATM   22  O   UNL     1      -9.762   2.441  67.106  1.00  0.00    -0.399 OA 
HETATM   23  C   UNL     1      -9.190   4.574  68.085  1.00  0.00    -0.170 A  
HETATM   24  H   UNL     1      -9.818   2.090  67.986  1.00  0.00     0.000 HD 
HETATM   25  C   UNL     1      -9.100   3.990  69.456  1.00  0.00    -0.126 C  
HETATM   26  O   UNL     1      -9.018   2.777  69.604  1.00  0.00    -0.083 OA 
HETATM   27  C   UNL     1      -8.955   4.896  70.629  1.00  0.00    -0.163 A  
HETATM   28  C   UNL     1      -8.750   6.262  70.413  1.00  0.00    -0.146 A  
HETATM   29  C   UNL     1      -8.362   7.054  71.507  1.00  0.00    -0.112 A  
HETATM   30  C   UNL     1      -8.448   6.599  72.826  1.00  0.00    -0.122 A  
HETATM   31  C   UNL     1      -8.734   5.253  73.037  1.00  0.00    -0.117 A  
HETATM   32  H   UNL     1      -9.186   2.754  73.101  1.00  0.00     0.000 HD 
HETATM   33  O   UNL     1      -9.193   3.087  72.210  1.00  0.00    -0.093 OA 
HETATM   34  C   UNL     1      -8.945   4.402  71.950  1.00  0.00    -0.124 A  
BRANCH  30  35
HETATM   35  C   UNL     1      -8.327   7.578  73.964  1.00  0.00    -0.196 C  
HETATM   36  O   UNL     1      -7.726   8.783  73.494  1.00  0.00    -0.397 OA 
HETATM   37  H   UNL     1      -7.650   9.401  74.212  1.00  0.00     0.000 HD 
ENDBRANCH  30  35
ENDBRANCH   6  16
ENDBRANCH   2   4
TORSDOF 3
ENDMDL
MODEL       61
REMARK 921   NORMALIZED FREE ENERGY PREDICTED BY IDOCK:   -4.75 KCAL/MOL
REMARK 922        TOTAL FREE ENERGY PREDICTED BY IDOCK:   -6.24 KCAL/MOL
REMARK 923 INTER-LIGAND FREE ENERGY PREDICTED BY IDOCK:   -6.06 KCAL/MOL
REMARK 924 INTRA-LIGAND FREE ENERGY PREDICTED BY IDOCK:   -0.18 KCAL/MOL
REMARK 927      BINDING AFFINITY PREDICTED BY RF-SCORE:    0.00 PKD
ROOT
HETATM    1  O   UNL     1      -6.741   1.987  69.494  1.00  0.00    -0.032 OA 
HETATM    2  C   UNL     1      -7.571   3.121  69.299  1.00  0.00    -0.047 C  
HETATM    3  H   UNL     1      -6.002   2.155  70.067  1.00  0.00     0.000 HD 
ENDROOT
BRANCH   2   4
HETATM    4  C   UNL     1      -8.767   2.850  68.372  1.00  0.00    -0.103 C  
HETATM    5  O   UNL     1      -9.885   3.676  68.750  1.00  0.00    -0.065 OA 
HETATM    6  C   UNL     1     -10.002   5.019  68.217  1.00  0.00    -0.129 C  
HETATM    7  H   UNL     1      -9.101   1.977  65.240  1.00  0.00     0.000 HD 
HETATM    8  C   UNL     1      -9.744   5.006  66.683  1.00  0.00    -0.177 C  
HETATM    9  O   UNL     1      -9.314   1.976  66.166  1.00  0.00    -0.019 OA 
HETATM   10  O   UNL     1     -10.834   4.344  65.992  1.00  0.00    -0.506 OA 
HETATM   11  C   UNL     1      -8.449   4.268  66.294  1.00  0.00    -0.112 C  
HETATM   12  C   UNL     1      -8.421   2.851  66.869  1.00  0.00    -0.099 C  
HETATM   13  O   UNL     1      -7.286   4.995  66.696  1.00  0.00    -0.077 OA 
HETATM   14  H   UNL     1      -6.487   4.541  66.456  1.00  0.00     0.000 HD 
HETATM   15  H   UNL     1     -10.677   4.335  65.055  1.00  0.00     0.000 HD 
BRANCH   6  16
HETATM   16  C   UNL     1      -9.306   6.141  69.127  1.00  0.00    -0.132 C  
HETATM   17  C   UNL     1     -10.294   4.781  72.574  1.00  0.00    -0.259 A  
HETATM   18  C   UNL     1      -9.928   6.070  70.529  1.00  0.00    -0.233 A  
HETATM   19  C   UNL     1      -9.595   5.005  71.388  1.00  0.00    -0.220 A  
HETATM   20  C   UNL     1     -11.353   5.610  72.919  1.00  0.00    -0.325 A  
HETATM   21  C   UNL     1     -11.663   6.701  72.110  1.00  0.00    -0.304 A  
HETATM   22  O   UNL     1     -12.734   7.474  72.461  1.00  0.00    -0.507 OA 
HETATM   23  C   UNL     1     -10.921   6.975  70.945  1.00  0.00    -0.282 A  
HETATM   24  H   UNL     1     -12.945   8.218  71.910  1.00  0.00     0.000 HD 
HETATM   25  C   UNL     1     -11.134   8.237  70.177  1.00  0.00    -0.189 C  
HETATM   26  O   UNL     1     -11.806   9.142  70.655  1.00  0.00    -0.264 OA 
HETATM   27  C   UNL     1     -10.400   8.448  68.898  1.00  0.00    -0.231 A  
HETATM   28  C   UNL     1      -9.412   7.533  68.521  1.00  0.00    -0.146 A  
HETATM   29  C   UNL     1      -8.560   7.878  67.458  1.00  0.00    -0.122 A  
HETATM   30  C   UNL     1      -8.835   8.946  66.599  1.00  0.00    -0.150 A  
HETATM   31  C   UNL     1      -9.875   9.808  66.936  1.00  0.00    -0.256 A  
HETATM   32  H   UNL     1     -11.761  11.241  67.853  1.00  0.00     0.000 HD 
HETATM   33  O   UNL     1     -11.611  10.475  68.395  1.00  0.00    -0.321 OA 
HETATM   34  C   UNL     1     -10.623   9.585  68.094  1.00  0.00    -0.217 A  
BRANCH  30  35
HETATM   35  C   UNL     1      -8.077   9.077  65.304  1.00  0.00    -0.126 C  
HETATM   36  O   UNL     1      -8.836   8.496  64.246  1.00  0.00    -0.408 OA 
HETATM   37  H   UNL     1      -8.358   8.578  63.429  1.00  0.00     0.000 HD 
ENDBRANCH  30  35
ENDBRANCH   6  16
ENDBRANCH   2   4
TORSDOF 3
ENDMDL
MODEL       62
REMARK 921   NORMALIZED FREE ENERGY PREDICTED BY IDOCK:   -4.70 KCAL/MOL
REMARK 922        TOTAL FREE ENERGY PREDICTED BY IDOCK:   -6.17 KCAL/MOL
REMARK 923 INTER-LIGAND FREE ENERGY PREDICTED BY IDOCK:   -5.79 KCAL/MOL
REMARK 924 INTRA-LIGAND FREE ENERGY PREDICTED BY IDOCK:   -0.38 KCAL/MOL
REMARK 927      BINDING AFFINITY PREDICTED BY RF-SCORE:    0.00 PKD
ROOT
HETATM    1  O   UNL     1      -6.737  11.231  65.839  1.00  0.00    -0.360 OA 
HETATM    2  C   UNL     1      -7.556  10.188  65.334  1.00  0.00    -0.144 C  
HETATM    3  H   UNL     1      -5.808  11.077  65.711  1.00  0.00     0.000 HD 
ENDROOT
BRANCH   2   4
HETATM    4  C   UNL     1      -9.058  10.437  65.542  1.00  0.00    -0.177 C  
HETATM    5  O   UNL     1      -9.745   9.186  65.741  1.00  0.00    -0.274 OA 
HETATM    6  C   UNL     1      -9.835   8.617  67.070  1.00  0.00    -0.220 C  
HETATM    7  H   UNL     1     -10.833  12.846  66.856  1.00  0.00     0.000 HD 
HETATM    8  C   UNL     1     -10.256   9.713  68.090  1.00  0.00    -0.190 C  
HETATM    9  O   UNL     1     -10.631  12.165  66.225  1.00  0.00    -0.238 OA 
HETATM   10  O   UNL     1     -11.635  10.107  67.870  1.00  0.00    -0.658 OA 
HETATM   11  C   UNL     1      -9.401  10.991  67.993  1.00  0.00    -0.163 C  
HETATM   12  C   UNL     1      -9.385  11.543  66.566  1.00  0.00    -0.197 C  
HETATM   13  O   UNL     1      -8.067  10.770  68.460  1.00  0.00    -0.118 OA 
HETATM   14  H   UNL     1      -7.540  11.558  68.400  1.00  0.00     0.000 HD 
HETATM   15  H   UNL     1     -11.892  10.777  68.493  1.00  0.00     0.000 HD 
BRANCH   6  16
HETATM   16  C   UNL     1      -8.633   7.619  67.431  1.00  0.00    -0.125 C  
HETATM   17  C   UNL     1      -8.171   6.002  63.985  1.00  0.00    -0.043 A  
HETATM   18  C   UNL     1      -8.560   6.545  66.337  1.00  0.00    -0.136 A  
HETATM   19  C   UNL     1      -8.054   6.876  65.064  1.00  0.00    -0.117 A  
HETATM   20  C   UNL     1      -8.812   4.782  64.150  1.00  0.00    -0.122 A  
HETATM   21  C   UNL     1      -9.271   4.412  65.413  1.00  0.00    -0.153 A  
HETATM   22  O   UNL     1      -9.928   3.220  65.532  1.00  0.00    -0.390 OA 
HETATM   23  C   UNL     1      -9.099   5.260  66.524  1.00  0.00    -0.129 A  
HETATM   24  H   UNL     1     -10.241   2.968  66.392  1.00  0.00     0.000 HD 
HETATM   25  C   UNL     1      -9.426   4.794  67.904  1.00  0.00    -0.144 C  
HETATM   26  O   UNL     1      -9.654   3.610  68.116  1.00  0.00    -0.169 OA 
HETATM   27  C   UNL     1      -9.322   5.749  69.042  1.00  0.00    -0.144 A  
HETATM   28  C   UNL     1      -8.772   7.015  68.821  1.00  0.00    -0.127 A  
HETATM   29  C   UNL     1      -8.446   7.801  69.940  1.00  0.00    -0.132 A  
HETATM   30  C   UNL     1      -8.901   7.493  71.226  1.00  0.00    -0.137 A  
HETATM   31  C   UNL     1      -9.523   6.263  71.424  1.00  0.00    -0.167 A  
HETATM   32  H   UNL     1     -10.535   3.934  71.489  1.00  0.00     0.000 HD 
HETATM   33  O   UNL     1     -10.283   4.180  70.606  1.00  0.00    -0.096 OA 
HETATM   34  C   UNL     1      -9.695   5.384  70.352  1.00  0.00    -0.192 A  
BRANCH  30  35
HETATM   35  C   UNL     1      -8.796   8.521  72.321  1.00  0.00    -0.208 C  
HETATM   36  O   UNL     1      -7.436   8.647  72.729  1.00  0.00    -0.327 OA 
HETATM   37  H   UNL     1      -7.370   9.295  73.420  1.00  0.00     0.000 HD 
ENDBRANCH  30  35
ENDBRANCH   6  16
ENDBRANCH   2   4
TORSDOF 3
ENDMDL
MODEL       63
REMARK 921   NORMALIZED FREE ENERGY PREDICTED BY IDOCK:   -4.57 KCAL/MOL
REMARK 922        TOTAL FREE ENERGY PREDICTED BY IDOCK:   -6.03 KCAL/MOL
REMARK 923 INTER-LIGAND FREE ENERGY PREDICTED BY IDOCK:   -5.61 KCAL/MOL
REMARK 924 INTRA-LIGAND FREE ENERGY PREDICTED BY IDOCK:   -0.42 KCAL/MOL
REMARK 927      BINDING AFFINITY PREDICTED BY RF-SCORE:    0.00 PKD
ROOT
HETATM    1  O   UNL     1     -13.314   8.022  70.552  1.00  0.00    -0.056 OA 
HETATM    2  C   UNL     1     -12.298   7.467  71.373  1.00  0.00    -0.345 C  
HETATM    3  H   UNL     1     -14.158   7.599  70.659  1.00  0.00     0.000 HD 
ENDROOT
BRANCH   2   4
HETATM    4  C   UNL     1     -10.933   8.151  71.200  1.00  0.00    -0.237 C  
HETATM    5  O   UNL     1      -9.873   7.230  71.523  1.00  0.00    -0.174 OA 
HETATM    6  C   UNL     1      -9.358   6.337  70.503  1.00  0.00    -0.162 C  
HETATM    7  H   UNL     1      -9.756  10.478  69.230  1.00  0.00     0.000 HD 
HETATM    8  C   UNL     1      -9.102   7.125  69.187  1.00  0.00    -0.137 C  
HETATM    9  O   UNL     1      -9.859  10.009  70.049  1.00  0.00    -0.241 OA 
HETATM   10  O   UNL     1      -7.979   8.029  69.349  1.00  0.00    -0.111 OA 
HETATM   11  C   UNL     1     -10.307   7.978  68.748  1.00  0.00    -0.206 C  
HETATM   12  C   UNL     1     -10.766   8.913  69.869  1.00  0.00    -0.227 C  
HETATM   13  O   UNL     1     -11.393   7.165  68.298  1.00  0.00    -0.472 OA 
HETATM   14  H   UNL     1     -12.136   7.690  68.027  1.00  0.00     0.000 HD 
HETATM   15  H   UNL     1      -7.822   8.511  68.545  1.00  0.00     0.000 HD 
BRANCH   6  16
HETATM   16  C   UNL     1     -10.106   4.920  70.445  1.00  0.00    -0.316 C  
HETATM   17  C   UNL     1     -10.609   4.377  74.207  1.00  0.00    -0.314 A  
HETATM   18  C   UNL     1     -10.020   4.278  71.836  1.00  0.00    -0.255 A  
HETATM   19  C   UNL     1     -10.811   4.780  72.888  1.00  0.00    -0.306 A  
HETATM   20  C   UNL     1      -9.598   3.474  74.507  1.00  0.00    -0.140 A  
HETATM   21  C   UNL     1      -8.840   2.925  73.475  1.00  0.00    -0.076 A  
HETATM   22  O   UNL     1      -7.831   2.066  73.810  1.00  0.00    -0.041 OA 
HETATM   23  C   UNL     1      -9.080   3.274  72.132  1.00  0.00    -0.150 A  
HETATM   24  H   UNL     1      -7.314   1.692  73.106  1.00  0.00     0.000 HD 
HETATM   25  C   UNL     1      -8.395   2.558  71.017  1.00  0.00    -0.053 C  
HETATM   26  O   UNL     1      -7.773   1.526  71.238  1.00  0.00    -0.036 OA 
HETATM   27  C   UNL     1      -8.601   3.018  69.616  1.00  0.00    -0.114 A  
HETATM   28  C   UNL     1      -9.551   4.012  69.357  1.00  0.00    -0.257 A  
HETATM   29  C   UNL     1      -9.914   4.250  68.021  1.00  0.00    -0.040 A  
HETATM   30  C   UNL     1      -9.176   3.746  66.946  1.00  0.00    -0.198 A  
HETATM   31  C   UNL     1      -8.174   2.818  67.217  1.00  0.00    -0.082 A  
HETATM   32  H   UNL     1      -6.484   1.096  68.012  1.00  0.00     0.000 HD 
HETATM   33  O   UNL     1      -6.945   1.493  68.741  1.00  0.00    -0.035 OA 
HETATM   34  C   UNL     1      -7.917   2.428  68.533  1.00  0.00    -0.053 A  
BRANCH  30  35
HETATM   35  C   UNL     1      -9.412   4.285  65.560  1.00  0.00    -0.176 C  
HETATM   36  O   UNL     1     -10.803   4.541  65.379  1.00  0.00    -0.603 OA 
HETATM   37  H   UNL     1     -10.953   4.880  64.504  1.00  0.00     0.000 HD 
ENDBRANCH  30  35
ENDBRANCH   6  16
ENDBRANCH   2   4
TORSDOF 3
ENDMDL
MODEL       64
REMARK 921   NORMALIZED FREE ENERGY PREDICTED BY IDOCK:   -4.54 KCAL/MOL
REMARK 922        TOTAL FREE ENERGY PREDICTED BY IDOCK:   -5.99 KCAL/MOL
REMARK 923 INTER-LIGAND FREE ENERGY PREDICTED BY IDOCK:   -5.40 KCAL/MOL
REMARK 924 INTRA-LIGAND FREE ENERGY PREDICTED BY IDOCK:   -0.59 KCAL/MOL
REMARK 927      BINDING AFFINITY PREDICTED BY RF-SCORE:    0.00 PKD
ROOT
HETATM    1  O   UNL     1     -10.100   7.516  70.766  1.00  0.00    -0.193 OA 
HETATM    2  C   UNL     1      -9.105   7.098  69.845  1.00  0.00    -0.141 C  
HETATM    3  H   UNL     1     -10.861   6.948  70.782  1.00  0.00     0.000 HD 
ENDROOT
BRANCH   2   4
HETATM    4  C   UNL     1      -7.873   8.016  69.819  1.00  0.00    -0.106 C  
HETATM    5  O   UNL     1      -7.455   8.247  68.459  1.00  0.00    -0.091 OA 
HETATM    6  C   UNL     1      -8.055   9.322  67.694  1.00  0.00    -0.104 C  
HETATM    7  H   UNL     1      -6.783  10.460  71.696  1.00  0.00     0.000 HD 
HETATM    8  C   UNL     1      -8.100  10.621  68.547  1.00  0.00    -0.125 C  
HETATM    9  O   UNL     1      -6.704   9.682  71.155  1.00  0.00    -0.265 OA 
HETATM   10  O   UNL     1      -6.760  11.143  68.745  1.00  0.00    -0.057 OA 
HETATM   11  C   UNL     1      -8.711  10.407  69.945  1.00  0.00     0.170 C  
HETATM   12  C   UNL     1      -8.001   9.279  70.696  1.00  0.00    -0.162 C  
HETATM   13  O   UNL     1     -10.116  10.154  69.873  1.00  0.00    -0.251 OA 
HETATM   14  H   UNL     1     -10.493  10.022  70.735  1.00  0.00     0.000 HD 
HETATM   15  H   UNL     1      -6.787  11.937  69.267  1.00  0.00     0.000 HD 
BRANCH   6  16
HETATM   16  C   UNL     1      -9.350   8.879  66.858  1.00  0.00    -0.213 C  
HETATM   17  C   UNL     1      -7.969   5.647  65.324  1.00  0.00    -0.114 A  
HETATM   18  C   UNL     1      -8.909   7.852  65.806  1.00  0.00    -0.155 A  
HETATM   19  C   UNL     1      -8.577   6.542  66.203  1.00  0.00    -0.146 A  
HETATM   20  C   UNL     1      -7.663   6.049  64.031  1.00  0.00    -0.105 A  
HETATM   21  C   UNL     1      -8.031   7.322  63.602  1.00  0.00    -0.073 A  
HETATM   22  O   UNL     1      -7.683   7.696  62.334  1.00  0.00    -0.104 OA 
HETATM   23  C   UNL     1      -8.706   8.210  64.461  1.00  0.00     0.178 A  
HETATM   24  H   UNL     1      -7.934   8.563  62.042  1.00  0.00     0.000 HD 
HETATM   25  C   UNL     1      -9.259   9.500  63.953  1.00  0.00    -0.039 C  
HETATM   26  O   UNL     1      -9.314   9.714  62.748  1.00  0.00    -0.247 OA 
HETATM   27  C   UNL     1      -9.882  10.457  64.909  1.00  0.00    -0.400 A  
HETATM   28  C   UNL     1     -10.077  10.063  66.237  1.00  0.00    -0.310 A  
HETATM   29  C   UNL     1     -10.889  10.868  67.054  1.00  0.00    -0.323 A  
HETATM   30  C   UNL     1     -11.268  12.162  66.686  1.00  0.00    -0.375 A  
HETATM   31  C   UNL     1     -10.997  12.579  65.386  1.00  0.00    -0.329 A  
HETATM   32  H   UNL     1     -10.446  13.021  62.946  1.00  0.00     0.000 HD 
HETATM   33  O   UNL     1     -10.132  12.168  63.225  1.00  0.00    -0.414 OA 
HETATM   34  C   UNL     1     -10.348  11.722  64.495  1.00  0.00    -0.294 A  
BRANCH  30  35
HETATM   35  C   UNL     1     -11.860  13.088  67.716  1.00  0.00    -0.347 C  
HETATM   36  O   UNL     1     -11.523  12.626  69.022  1.00  0.00    -0.265 OA 
HETATM   37  H   UNL     1     -11.896  13.210  69.672  1.00  0.00     0.000 HD 
ENDBRANCH  30  35
ENDBRANCH   6  16
ENDBRANCH   2   4
TORSDOF 3
ENDMDL
MODEL       65
REMARK 921   NORMALIZED FREE ENERGY PREDICTED BY IDOCK:   -4.50 KCAL/MOL
REMARK 922        TOTAL FREE ENERGY PREDICTED BY IDOCK:   -5.94 KCAL/MOL
REMARK 923 INTER-LIGAND FREE ENERGY PREDICTED BY IDOCK:   -5.53 KCAL/MOL
REMARK 924 INTRA-LIGAND FREE ENERGY PREDICTED BY IDOCK:   -0.42 KCAL/MOL
REMARK 927      BINDING AFFINITY PREDICTED BY RF-SCORE:    0.00 PKD
ROOT
HETATM    1  O   UNL     1     -10.355  15.729  71.148  1.00  0.00     0.253 OA 
HETATM    2  C   UNL     1      -9.965  14.988  70.002  1.00  0.00     0.057 C  
HETATM    3  H   UNL     1     -10.763  15.196  71.820  1.00  0.00     0.000 HD 
ENDROOT
BRANCH   2   4
HETATM    4  C   UNL     1      -9.304  15.851  68.915  1.00  0.00    -0.233 C  
HETATM    5  O   UNL     1      -8.352  15.066  68.170  1.00  0.00    -0.135 OA 
HETATM    6  C   UNL     1      -8.796  14.284  67.032  1.00  0.00    -0.226 C  
HETATM    7  H   UNL     1     -10.264  18.379  67.080  1.00  0.00     0.000 HD 
HETATM    8  C   UNL     1      -9.720  15.144  66.125  1.00  0.00    -0.310 C  
HETATM    9  O   UNL     1      -9.654  17.872  67.604  1.00  0.00    -0.262 OA 
HETATM   10  O   UNL     1      -8.954  16.181  65.460  1.00  0.00    -0.304 OA 
HETATM   11  C   UNL     1     -10.849  15.847  66.904  1.00  0.00    -0.240 C  
HETATM   12  C   UNL     1     -10.293  16.674  68.065  1.00  0.00    -0.303 C  
HETATM   13  O   UNL     1     -11.825  14.915  67.374  1.00  0.00    -0.365 OA 
HETATM   14  H   UNL     1     -12.521  15.348  67.854  1.00  0.00     0.000 HD 
HETATM   15  H   UNL     1      -9.519  16.707  64.906  1.00  0.00     0.000 HD 
BRANCH   6  16
HETATM   16  C   UNL     1      -9.224  12.784  67.404  1.00  0.00    -0.193 C  
HETATM   17  C   UNL     1      -6.277  11.891  69.689  1.00  0.00    -0.129 A  
HETATM   18  C   UNL     1      -7.988  12.057  67.950  1.00  0.00    -0.147 A  
HETATM   19  C   UNL     1      -7.511  12.361  69.241  1.00  0.00     0.273 A  
HETATM   20  C   UNL     1      -5.485  11.120  68.851  1.00  0.00    -0.040 A  
HETATM   21  C   UNL     1      -5.961  10.763  67.591  1.00  0.00    -0.044 A  
HETATM   22  O   UNL     1      -5.140  10.032  66.780  1.00  0.00    -0.039 OA 
HETATM   23  C   UNL     1      -7.234  11.176  67.153  1.00  0.00    -0.120 A  
HETATM   24  H   UNL     1      -5.465   9.789  65.921  1.00  0.00     0.000 HD 
HETATM   25  C   UNL     1      -7.819  10.650  65.885  1.00  0.00    -0.150 C  
HETATM   26  O   UNL     1      -7.295   9.703  65.312  1.00  0.00    -0.103 OA 
HETATM   27  C   UNL     1      -9.125  11.182  65.406  1.00  0.00    -0.193 A  
HETATM   28  C   UNL     1      -9.852  12.048  66.229  1.00  0.00    -0.250 A  
HETATM   29  C   UNL     1     -11.183  12.334  65.879  1.00  0.00    -0.381 A  
HETATM   30  C   UNL     1     -11.707  12.022  64.621  1.00  0.00    -0.358 A  
HETATM   31  C   UNL     1     -10.942  11.227  63.771  1.00  0.00    -0.381 A  
HETATM   32  H   UNL     1      -9.365   9.705  62.488  1.00  0.00     0.000 HD 
HETATM   33  O   UNL     1      -8.988   9.977  63.318  1.00  0.00    -0.216 OA 
HETATM   34  C   UNL     1      -9.683  10.778  64.175  1.00  0.00    -0.309 A  
BRANCH  30  35
HETATM   35  C   UNL     1     -13.017  12.626  64.188  1.00  0.00    -0.068 C  
HETATM   36  O   UNL     1     -13.233  13.849  64.888  1.00  0.00    -0.610 OA 
HETATM   37  H   UNL     1     -14.059  14.230  64.614  1.00  0.00     0.000 HD 
ENDBRANCH  30  35
ENDBRANCH   6  16
ENDBRANCH   2   4
TORSDOF 3
ENDMDL
MODEL       66
REMARK 921   NORMALIZED FREE ENERGY PREDICTED BY IDOCK:   -4.48 KCAL/MOL
REMARK 922        TOTAL FREE ENERGY PREDICTED BY IDOCK:   -5.92 KCAL/MOL
REMARK 923 INTER-LIGAND FREE ENERGY PREDICTED BY IDOCK:   -5.49 KCAL/MOL
REMARK 924 INTRA-LIGAND FREE ENERGY PREDICTED BY IDOCK:   -0.42 KCAL/MOL
REMARK 927      BINDING AFFINITY PREDICTED BY RF-SCORE:    0.00 PKD
ROOT
HETATM    1  O   UNL     1     -14.073   9.544  70.655  1.00  0.00    -0.447 OA 
HETATM    2  C   UNL     1     -12.724   9.107  70.613  1.00  0.00     0.224 C  
HETATM    3  H   UNL     1     -14.701   8.831  70.652  1.00  0.00     0.000 HD 
ENDROOT
BRANCH   2   4
HETATM    4  C   UNL     1     -11.708  10.260  70.619  1.00  0.00    -0.348 C  
HETATM    5  O   UNL     1     -10.458   9.817  71.181  1.00  0.00    -0.274 OA 
HETATM    6  C   UNL     1      -9.469   9.184  70.331  1.00  0.00    -0.227 C  
HETATM    7  H   UNL     1     -11.154  12.851  68.706  1.00  0.00     0.000 HD 
HETATM    8  C   UNL     1      -9.293  10.004  69.021  1.00  0.00    -0.181 C  
HETATM    9  O   UNL     1     -11.221  12.382  69.530  1.00  0.00    -0.201 OA 
HETATM   10  O   UNL     1      -8.641  11.269  69.300  1.00  0.00    -0.377 OA 
HETATM   11  C   UNL     1     -10.629  10.329  68.326  1.00  0.00    -0.221 C  
HETATM   12  C   UNL     1     -11.601  11.021  69.282  1.00  0.00    -0.314 C  
HETATM   13  O   UNL     1     -11.228   9.159  67.762  1.00  0.00    -0.474 OA 
HETATM   14  H   UNL     1     -12.051   9.359  67.333  1.00  0.00     0.000 HD 
HETATM   15  H   UNL     1      -8.533  11.771  68.501  1.00  0.00     0.000 HD 
BRANCH   6  16
HETATM   16  C   UNL     1      -9.606   7.588  70.253  1.00  0.00    -0.165 C  
HETATM   17  C   UNL     1     -10.213   6.880  73.973  1.00  0.00    -0.384 A  
HETATM   18  C   UNL     1      -9.411   7.024  71.668  1.00  0.00    -0.160 A  
HETATM   19  C   UNL     1     -10.430   7.179  72.629  1.00  0.00    -0.269 A  
HETATM   20  C   UNL     1      -8.966   6.435  74.390  1.00  0.00    -0.172 A  
HETATM   21  C   UNL     1      -7.961   6.224  73.447  1.00  0.00    -0.101 A  
HETATM   22  O   UNL     1      -6.736   5.820  73.897  1.00  0.00    -0.077 OA 
HETATM   23  C   UNL     1      -8.190   6.459  72.078  1.00  0.00    -0.109 A  
HETATM   24  H   UNL     1      -6.052   5.676  73.255  1.00  0.00     0.000 HD 
HETATM   25  C   UNL     1      -7.181   6.066  71.051  1.00  0.00    -0.074 C  
HETATM   26  O   UNL     1      -6.234   5.353  71.360  1.00  0.00    -0.031 OA 
HETATM   27  C   UNL     1      -7.416   6.416  69.623  1.00  0.00    -0.085 A  
HETATM   28  C   UNL     1      -8.645   6.968  69.250  1.00  0.00    -0.136 A  
HETATM   29  C   UNL     1      -8.945   7.052  67.879  1.00  0.00    -0.122 A  
HETATM   30  C   UNL     1      -7.973   6.876  66.891  1.00  0.00    -0.109 A  
HETATM   31  C   UNL     1      -6.721   6.405  67.279  1.00  0.00    -0.060 A  
HETATM   32  H   UNL     1      -4.582   5.464  68.275  1.00  0.00     0.000 HD 
HETATM   33  O   UNL     1      -5.227   5.651  68.948  1.00  0.00     0.000 OA 
HETATM   34  C   UNL     1      -6.459   6.139  68.625  1.00  0.00    -0.046 A  
BRANCH  30  35
HETATM   35  C   UNL     1      -8.267   7.286  65.472  1.00  0.00    -0.139 C  
HETATM   36  O   UNL     1      -9.353   8.209  65.458  1.00  0.00    -0.418 OA 
HETATM   37  H   UNL     1      -9.539   8.468  64.563  1.00  0.00     0.000 HD 
ENDBRANCH  30  35
ENDBRANCH   6  16
ENDBRANCH   2   4
TORSDOF 3
ENDMDL
MODEL       67
REMARK 921   NORMALIZED FREE ENERGY PREDICTED BY IDOCK:   -4.40 KCAL/MOL
REMARK 922        TOTAL FREE ENERGY PREDICTED BY IDOCK:   -5.82 KCAL/MOL
REMARK 923 INTER-LIGAND FREE ENERGY PREDICTED BY IDOCK:   -5.45 KCAL/MOL
REMARK 924 INTRA-LIGAND FREE ENERGY PREDICTED BY IDOCK:   -0.37 KCAL/MOL
REMARK 927      BINDING AFFINITY PREDICTED BY RF-SCORE:    0.00 PKD
ROOT
HETATM    1  O   UNL     1     -10.069   7.258  74.430  1.00  0.00    -0.414 OA 
HETATM    2  C   UNL     1      -9.572   7.246  73.101  1.00  0.00    -0.193 C  
HETATM    3  H   UNL     1      -9.636   7.892  74.989  1.00  0.00     0.000 HD 
ENDROOT
BRANCH   2   4
HETATM    4  C   UNL     1     -10.274   6.221  72.196  1.00  0.00    -0.184 C  
HETATM    5  O   UNL     1     -10.829   6.879  71.040  1.00  0.00    -0.231 OA 
HETATM    6  C   UNL     1     -10.006   7.089  69.866  1.00  0.00    -0.177 C  
HETATM    7  H   UNL     1      -9.806   3.062  71.500  1.00  0.00     0.000 HD 
HETATM    8  C   UNL     1      -9.237   5.784  69.515  1.00  0.00    -0.130 C  
HETATM    9  O   UNL     1     -10.318   3.842  71.681  1.00  0.00    -0.077 OA 
HETATM   10  O   UNL     1     -10.155   4.772  69.025  1.00  0.00    -0.175 OA 
HETATM   11  C   UNL     1      -8.497   5.174  70.721  1.00  0.00    -0.117 C  
HETATM   12  C   UNL     1      -9.442   4.956  71.903  1.00  0.00    -0.149 C  
HETATM   13  O   UNL     1      -7.380   5.976  71.114  1.00  0.00    -0.079 OA 
HETATM   14  H   UNL     1      -6.923   5.600  71.857  1.00  0.00     0.000 HD 
HETATM   15  H   UNL     1      -9.686   3.974  68.811  1.00  0.00     0.000 HD 
BRANCH   6  16
HETATM   16  C   UNL     1      -9.228   8.491  69.862  1.00  0.00    -0.154 C  
HETATM   17  C   UNL     1     -12.067  10.731  71.137  1.00  0.00    -0.415 A  
HETATM   18  C   UNL     1     -10.271   9.616  69.909  1.00  0.00    -0.279 A  
HETATM   19  C   UNL     1     -10.967   9.875  71.106  1.00  0.00    -0.298 A  
HETATM   20  C   UNL     1     -12.507  11.334  69.967  1.00  0.00    -0.251 A  
HETATM   21  C   UNL     1     -11.801  11.133  68.783  1.00  0.00    -0.320 A  
HETATM   22  O   UNL     1     -12.283  11.714  67.644  1.00  0.00    -0.544 OA 
HETATM   23  C   UNL     1     -10.649  10.324  68.754  1.00  0.00    -0.231 A  
HETATM   24  H   UNL     1     -11.802  11.576  66.837  1.00  0.00     0.000 HD 
HETATM   25  C   UNL     1      -9.792  10.251  67.534  1.00  0.00    -0.173 C  
HETATM   26  O   UNL     1      -9.959  11.043  66.616  1.00  0.00    -0.198 OA 
HETATM   27  C   UNL     1      -8.636   9.312  67.507  1.00  0.00    -0.116 A  
HETATM   28  C   UNL     1      -8.283   8.632  68.677  1.00  0.00    -0.121 A  
HETATM   29  C   UNL     1      -7.051   7.957  68.705  1.00  0.00    -0.072 A  
HETATM   30  C   UNL     1      -6.312   7.704  67.546  1.00  0.00    -0.054 A  
HETATM   31  C   UNL     1      -6.717   8.318  66.364  1.00  0.00    -0.062 A  
HETATM   32  H   UNL     1      -7.644   9.635  64.399  1.00  0.00     0.000 HD 
HETATM   33  O   UNL     1      -8.179   9.747  65.177  1.00  0.00    -0.127 OA 
HETATM   34  C   UNL     1      -7.842   9.146  66.354  1.00  0.00    -0.100 A  
BRANCH  30  35
HETATM   35  C   UNL     1      -5.178   6.714  67.584  1.00  0.00    -0.008 C  
HETATM   36  O   UNL     1      -5.510   5.642  68.463  1.00  0.00    -0.007 OA 
HETATM   37  H   UNL     1      -4.794   5.018  68.487  1.00  0.00     0.000 HD 
ENDBRANCH  30  35
ENDBRANCH   6  16
ENDBRANCH   2   4
TORSDOF 3
ENDMDL
MODEL       68
REMARK 921   NORMALIZED FREE ENERGY PREDICTED BY IDOCK:   -4.33 KCAL/MOL
REMARK 922        TOTAL FREE ENERGY PREDICTED BY IDOCK:   -5.75 KCAL/MOL
REMARK 923 INTER-LIGAND FREE ENERGY PREDICTED BY IDOCK:   -5.59 KCAL/MOL
REMARK 924 INTRA-LIGAND FREE ENERGY PREDICTED BY IDOCK:   -0.16 KCAL/MOL
REMARK 927      BINDING AFFINITY PREDICTED BY RF-SCORE:    0.00 PKD
ROOT
HETATM    1  O   UNL     1      -6.825  13.437  67.005  1.00  0.00    -0.425 OA 
HETATM    2  C   UNL     1      -7.462  12.202  67.293  1.00  0.00    -0.152 C  
HETATM    3  H   UNL     1      -5.887  13.421  67.152  1.00  0.00     0.000 HD 
ENDROOT
BRANCH   2   4
HETATM    4  C   UNL     1      -8.980  12.228  67.054  1.00  0.00    -0.204 C  
HETATM    5  O   UNL     1      -9.366  11.136  66.196  1.00  0.00    -0.192 OA 
HETATM    6  C   UNL     1      -9.656   9.837  66.768  1.00  0.00    -0.177 C  
HETATM    7  H   UNL     1     -11.572  13.166  68.810  1.00  0.00     0.000 HD 
HETATM    8  C   UNL     1     -10.583   9.996  68.006  1.00  0.00    -0.235 C  
HETATM    9  O   UNL     1     -11.052  13.064  68.021  1.00  0.00    -0.239 OA 
HETATM   10  O   UNL     1     -11.910  10.413  67.593  1.00  0.00    -0.549 OA 
HETATM   11  C   UNL     1     -10.074  11.046  69.013  1.00  0.00    -0.180 C  
HETATM   12  C   UNL     1      -9.824  12.393  68.335  1.00  0.00    -0.198 C  
HETATM   13  O   UNL     1      -8.896  10.599  69.690  1.00  0.00    -0.394 OA 
HETATM   14  H   UNL     1      -8.582  11.246  70.311  1.00  0.00     0.000 HD 
HETATM   15  H   UNL     1     -12.477  10.511  68.349  1.00  0.00     0.000 HD 
BRANCH   6  16
HETATM   16  C   UNL     1      -8.381   8.867  66.854  1.00  0.00    -0.112 C  
HETATM   17  C   UNL     1      -6.713   9.812  63.532  1.00  0.00    -0.117 A  
HETATM   18  C   UNL     1      -7.790   8.732  65.444  1.00  0.00    -0.100 A  
HETATM   19  C   UNL     1      -7.076   9.807  64.879  1.00  0.00    -0.125 A  
HETATM   20  C   UNL     1      -7.071   8.747  62.716  1.00  0.00    -0.093 A  
HETATM   21  C   UNL     1      -7.729   7.650  63.268  1.00  0.00    -0.131 A  
HETATM   22  O   UNL     1      -8.096   6.636  62.428  1.00  0.00    -0.103 OA 
HETATM   23  C   UNL     1      -8.041   7.606  64.640  1.00  0.00    -0.112 A  
HETATM   24  H   UNL     1      -8.545   5.888  62.804  1.00  0.00     0.000 HD 
HETATM   25  C   UNL     1      -8.582   6.363  65.265  1.00  0.00    -0.044 C  
HETATM   26  O   UNL     1      -8.572   5.307  64.645  1.00  0.00    -0.148 OA 
HETATM   27  C   UNL     1      -8.991   6.383  66.698  1.00  0.00    -0.145 A  
HETATM   28  C   UNL     1      -8.716   7.516  67.469  1.00  0.00    -0.125 A  
HETATM   29  C   UNL     1      -8.871   7.423  68.863  1.00  0.00    -0.131 A  
HETATM   30  C   UNL     1      -9.545   6.359  69.469  1.00  0.00    -0.154 A  
HETATM   31  C   UNL     1      -9.891   5.266  68.677  1.00  0.00    -0.216 A  
HETATM   32  H   UNL     1     -10.312   3.398  67.009  1.00  0.00     0.000 HD 
HETATM   33  O   UNL     1      -9.915   4.154  66.592  1.00  0.00    -0.221 OA 
HETATM   34  C   UNL     1      -9.581   5.261  67.316  1.00  0.00    -0.137 A  
BRANCH  30  35
HETATM   35  C   UNL     1      -9.959   6.462  70.913  1.00  0.00    -0.185 C  
HETATM   36  O   UNL     1     -11.218   5.819  71.095  1.00  0.00    -0.241 OA 
HETATM   37  H   UNL     1     -11.480   5.884  72.006  1.00  0.00     0.000 HD 
ENDBRANCH  30  35
ENDBRANCH   6  16
ENDBRANCH   2   4
TORSDOF 3
ENDMDL
MODEL       69
REMARK 921   NORMALIZED FREE ENERGY PREDICTED BY IDOCK:   -4.31 KCAL/MOL
REMARK 922        TOTAL FREE ENERGY PREDICTED BY IDOCK:   -5.72 KCAL/MOL
REMARK 923 INTER-LIGAND FREE ENERGY PREDICTED BY IDOCK:   -5.52 KCAL/MOL
REMARK 924 INTRA-LIGAND FREE ENERGY PREDICTED BY IDOCK:   -0.20 KCAL/MOL
REMARK 927      BINDING AFFINITY PREDICTED BY RF-SCORE:    0.00 PKD
ROOT
HETATM    1  O   UNL     1      -8.231   8.431  73.479  1.00  0.00    -0.318 OA 
HETATM    2  C   UNL     1      -8.455   8.514  72.080  1.00  0.00    -0.154 C  
HETATM    3  H   UNL     1      -7.313   8.493  73.718  1.00  0.00     0.000 HD 
ENDROOT
BRANCH   2   4
HETATM    4  C   UNL     1      -9.939   8.414  71.694  1.00  0.00    -0.234 C  
HETATM    5  O   UNL     1     -10.121   8.809  70.320  1.00  0.00    -0.181 OA 
HETATM    6  C   UNL     1      -9.961   7.832  69.262  1.00  0.00    -0.182 C  
HETATM    7  H   UNL     1     -12.427   6.492  72.586  1.00  0.00     0.000 HD 
HETATM    8  C   UNL     1     -10.721   6.525  69.626  1.00  0.00    -0.269 C  
HETATM    9  O   UNL     1     -12.011   7.309  72.338  1.00  0.00    -0.251 OA 
HETATM   10  O   UNL     1     -12.154   6.743  69.580  1.00  0.00    -0.635 OA 
HETATM   11  C   UNL     1     -10.389   6.006  71.039  1.00  0.00    -0.216 C  
HETATM   12  C   UNL     1     -10.615   7.087  72.097  1.00  0.00    -0.213 C  
HETATM   13  O   UNL     1      -9.054   5.501  71.115  1.00  0.00    -0.139 OA 
HETATM   14  H   UNL     1      -8.849   5.181  71.986  1.00  0.00     0.000 HD 
HETATM   15  H   UNL     1     -12.619   5.944  69.803  1.00  0.00     0.000 HD 
BRANCH   6  16
HETATM   16  C   UNL     1      -8.470   7.745  68.680  1.00  0.00    -0.129 C  
HETATM   17  C   UNL     1      -7.700  11.497  68.501  1.00  0.00    -0.134 A  
HETATM   18  C   UNL     1      -8.102   9.119  68.102  1.00  0.00    -0.104 A  
HETATM   19  C   UNL     1      -7.822  10.191  68.972  1.00  0.00    -0.107 A  
HETATM   20  C   UNL     1      -7.872  11.763  67.150  1.00  0.00    -0.166 A  
HETATM   21  C   UNL     1      -8.096  10.710  66.265  1.00  0.00    -0.151 A  
HETATM   22  O   UNL     1      -8.295  11.013  64.947  1.00  0.00    -0.373 OA 
HETATM   23  C   UNL     1      -8.155   9.380  66.721  1.00  0.00    -0.109 A  
HETATM   24  H   UNL     1      -8.448  10.295  64.345  1.00  0.00     0.000 HD 
HETATM   25  C   UNL     1      -8.215   8.239  65.760  1.00  0.00    -0.123 C  
HETATM   26  O   UNL     1      -8.010   8.428  64.567  1.00  0.00    -0.131 OA 
HETATM   27  C   UNL     1      -8.373   6.852  66.279  1.00  0.00    -0.126 A  
HETATM   28  C   UNL     1      -8.306   6.629  67.658  1.00  0.00    -0.122 A  
HETATM   29  C   UNL     1      -8.199   5.302  68.110  1.00  0.00    -0.098 A  
HETATM   30  C   UNL     1      -8.438   4.208  67.274  1.00  0.00    -0.100 A  
HETATM   31  C   UNL     1      -8.588   4.445  65.910  1.00  0.00    -0.114 A  
HETATM   32  H   UNL     1      -8.734   5.179  63.483  1.00  0.00     0.000 HD 
HETATM   33  O   UNL     1      -8.638   5.923  64.066  1.00  0.00     0.005 OA 
HETATM   34  C   UNL     1      -8.515   5.748  65.413  1.00  0.00    -0.151 A  
BRANCH  30  35
HETATM   35  C   UNL     1      -8.624   2.838  67.872  1.00  0.00    -0.093 C  
HETATM   36  O   UNL     1      -9.659   2.150  67.174  1.00  0.00    -0.397 OA 
HETATM   37  H   UNL     1      -9.776   1.286  67.551  1.00  0.00     0.000 HD 
ENDBRANCH  30  35
ENDBRANCH   6  16
ENDBRANCH   2   4
TORSDOF 3
ENDMDL
MODEL       70
REMARK 921   NORMALIZED FREE ENERGY PREDICTED BY IDOCK:   -4.20 KCAL/MOL
REMARK 922        TOTAL FREE ENERGY PREDICTED BY IDOCK:   -5.59 KCAL/MOL
REMARK 923 INTER-LIGAND FREE ENERGY PREDICTED BY IDOCK:   -6.14 KCAL/MOL
REMARK 924 INTRA-LIGAND FREE ENERGY PREDICTED BY IDOCK:    0.55 KCAL/MOL
REMARK 927      BINDING AFFINITY PREDICTED BY RF-SCORE:    0.00 PKD
ROOT
HETATM    1  O   UNL     1      -7.634  12.297  68.320  1.00  0.00    -0.116 OA 
HETATM    2  C   UNL     1      -7.723  13.352  67.376  1.00  0.00    -0.137 C  
HETATM    3  H   UNL     1      -6.794  12.256  68.761  1.00  0.00     0.000 HD 
ENDROOT
BRANCH   2   4
HETATM    4  C   UNL     1      -9.083  13.419  66.662  1.00  0.00    -0.169 C  
HETATM    5  O   UNL     1      -9.313  12.206  65.920  1.00  0.00    -0.217 OA 
HETATM    6  C   UNL     1      -9.912  11.061  66.577  1.00  0.00    -0.212 C  
HETATM    7  H   UNL     1     -11.958  14.829  67.314  1.00  0.00     0.000 HD 
HETATM    8  C   UNL     1     -11.147  11.511  67.407  1.00  0.00    -0.282 C  
HETATM    9  O   UNL     1     -11.239  14.545  66.761  1.00  0.00    -0.317 OA 
HETATM   10  O   UNL     1     -12.228  11.916  66.529  1.00  0.00    -0.483 OA 
HETATM   11  C   UNL     1     -10.850  12.705  68.335  1.00  0.00    -0.245 C  
HETATM   12  C   UNL     1     -10.251  13.879  67.559  1.00  0.00    -0.245 C  
HETATM   13  O   UNL     1      -9.993  12.331  69.418  1.00  0.00    -0.211 OA 
HETATM   14  H   UNL     1      -9.810  13.067  69.990  1.00  0.00     0.000 HD 
HETATM   15  H   UNL     1     -12.982  12.191  67.036  1.00  0.00     0.000 HD 
BRANCH   6  16
HETATM   16  C   UNL     1      -8.845  10.055  67.226  1.00  0.00    -0.141 C  
HETATM   17  C   UNL     1      -6.629   9.497  64.146  1.00  0.00    -0.101 A  
HETATM   18  C   UNL     1      -8.111   9.337  66.084  1.00  0.00    -0.110 A  
HETATM   19  C   UNL     1      -7.156  10.036  65.319  1.00  0.00    -0.137 A  
HETATM   20  C   UNL     1      -7.058   8.254  63.703  1.00  0.00    -0.086 A  
HETATM   21  C   UNL     1      -7.960   7.523  64.473  1.00  0.00    -0.122 A  
HETATM   22  O   UNL     1      -8.387   6.319  63.989  1.00  0.00    -0.299 OA 
HETATM   23  C   UNL     1      -8.448   8.029  65.693  1.00  0.00    -0.162 A  
HETATM   24  H   UNL     1      -9.002   5.822  64.514  1.00  0.00     0.000 HD 
HETATM   25  C   UNL     1      -9.271   7.180  66.604  1.00  0.00    -0.160 C  
HETATM   26  O   UNL     1      -9.364   5.975  66.404  1.00  0.00    -0.151 OA 
HETATM   27  C   UNL     1      -9.849   7.778  67.839  1.00  0.00    -0.194 A  
HETATM   28  C   UNL     1      -9.483   9.078  68.202  1.00  0.00    -0.155 A  
HETATM   29  C   UNL     1      -9.829   9.528  69.488  1.00  0.00    -0.205 A  
HETATM   30  C   UNL     1     -10.748   8.851  70.294  1.00  0.00    -0.248 A  
HETATM   31  C   UNL     1     -11.173   7.590  69.885  1.00  0.00    -0.124 A  
HETATM   32  H   UNL     1     -11.694   5.296  68.927  1.00  0.00     0.000 HD 
HETATM   33  O   UNL     1     -11.122   5.791  68.352  1.00  0.00    -0.198 OA 
HETATM   34  C   UNL     1     -10.698   7.042  68.692  1.00  0.00    -0.189 A  
BRANCH  30  35
HETATM   35  C   UNL     1     -11.319   9.532  71.510  1.00  0.00    -0.385 C  
HETATM   36  O   UNL     1     -12.202  10.574  71.102  1.00  0.00    -0.346 OA 
HETATM   37  H   UNL     1     -12.563  11.003  71.869  1.00  0.00     0.000 HD 
ENDBRANCH  30  35
ENDBRANCH   6  16
ENDBRANCH   2   4
TORSDOF 3
ENDMDL
MODEL       71
REMARK 921   NORMALIZED FREE ENERGY PREDICTED BY IDOCK:   -4.17 KCAL/MOL
REMARK 922        TOTAL FREE ENERGY PREDICTED BY IDOCK:   -5.56 KCAL/MOL
REMARK 923 INTER-LIGAND FREE ENERGY PREDICTED BY IDOCK:   -5.38 KCAL/MOL
REMARK 924 INTRA-LIGAND FREE ENERGY PREDICTED BY IDOCK:   -0.18 KCAL/MOL
REMARK 927      BINDING AFFINITY PREDICTED BY RF-SCORE:    0.00 PKD
ROOT
HETATM    1  O   UNL     1     -10.920   5.640  66.098  1.00  0.00    -0.689 OA 
HETATM    2  C   UNL     1     -11.004   6.814  66.891  1.00  0.00    -0.300 C  
HETATM    3  H   UNL     1     -11.758   5.213  65.967  1.00  0.00     0.000 HD 
ENDROOT
BRANCH   2   4
HETATM    4  C   UNL     1      -9.647   7.505  67.103  1.00  0.00    -0.161 C  
HETATM    5  O   UNL     1      -9.367   7.625  68.511  1.00  0.00    -0.147 OA 
HETATM    6  C   UNL     1      -8.722   6.534  69.214  1.00  0.00    -0.130 C  
HETATM    7  H   UNL     1      -6.833   7.610  65.446  1.00  0.00     0.000 HD 
HETATM    8  C   UNL     1      -7.507   6.017  68.392  1.00  0.00    -0.086 C  
HETATM    9  O   UNL     1      -7.540   7.962  65.974  1.00  0.00    -0.082 OA 
HETATM   10  O   UNL     1      -6.443   7.003  68.387  1.00  0.00    -0.037 OA 
HETATM   11  C   UNL     1      -7.854   5.721  66.920  1.00  0.00    -0.101 C  
HETATM   12  C   UNL     1      -8.500   6.932  66.245  1.00  0.00    -0.131 C  
HETATM   13  O   UNL     1      -8.695   4.571  66.797  1.00  0.00    -0.111 OA 
HETATM   14  H   UNL     1      -8.909   4.389  65.890  1.00  0.00     0.000 HD 
HETATM   15  H   UNL     1      -5.701   6.688  67.885  1.00  0.00     0.000 HD 
BRANCH   6  16
HETATM   16  C   UNL     1      -9.747   5.482  69.858  1.00  0.00    -0.233 C  
HETATM   17  C   UNL     1     -12.288   7.964  71.304  1.00  0.00    -0.300 A  
HETATM   18  C   UNL     1     -10.619   6.229  70.877  1.00  0.00    -0.293 A  
HETATM   19  C   UNL     1     -11.625   7.106  70.427  1.00  0.00    -0.300 A  
HETATM   20  C   UNL     1     -11.948   7.975  72.649  1.00  0.00    -0.334 A  
HETATM   21  C   UNL     1     -10.994   7.077  73.124  1.00  0.00    -0.281 A  
HETATM   22  O   UNL     1     -10.659   7.140  74.447  1.00  0.00    -0.505 OA 
HETATM   23  C   UNL     1     -10.366   6.161  72.259  1.00  0.00    -0.221 A  
HETATM   24  H   UNL     1     -10.008   6.529  74.771  1.00  0.00     0.000 HD 
HETATM   25  C   UNL     1      -9.480   5.084  72.791  1.00  0.00    -0.139 C  
HETATM   26  O   UNL     1      -9.447   4.853  73.994  1.00  0.00    -0.120 OA 
HETATM   27  C   UNL     1      -8.758   4.194  71.841  1.00  0.00    -0.129 A  
HETATM   28  C   UNL     1      -9.042   4.282  70.474  1.00  0.00    -0.169 A  
HETATM   29  C   UNL     1      -8.550   3.273  69.628  1.00  0.00    -0.112 A  
HETATM   30  C   UNL     1      -7.574   2.363  70.043  1.00  0.00    -0.043 A  
HETATM   31  C   UNL     1      -7.234   2.335  71.393  1.00  0.00    -0.032 A  
HETATM   32  H   UNL     1      -6.890   2.463  73.906  1.00  0.00     0.000 HD 
HETATM   33  O   UNL     1      -7.502   3.125  73.604  1.00  0.00    -0.053 OA 
HETATM   34  C   UNL     1      -7.849   3.213  72.288  1.00  0.00    -0.058 A  
BRANCH  30  35
HETATM   35  C   UNL     1      -6.858   1.519  69.021  1.00  0.00    -0.029 C  
HETATM   36  O   UNL     1      -7.570   1.560  67.786  1.00  0.00    -0.053 OA 
HETATM   37  H   UNL     1      -7.118   1.028  67.142  1.00  0.00     0.000 HD 
ENDBRANCH  30  35
ENDBRANCH   6  16
ENDBRANCH   2   4
TORSDOF 3
ENDMDL
MODEL       72
REMARK 921   NORMALIZED FREE ENERGY PREDICTED BY IDOCK:   -4.17 KCAL/MOL
REMARK 922        TOTAL FREE ENERGY PREDICTED BY IDOCK:   -5.55 KCAL/MOL
REMARK 923 INTER-LIGAND FREE ENERGY PREDICTED BY IDOCK:   -5.46 KCAL/MOL
REMARK 924 INTRA-LIGAND FREE ENERGY PREDICTED BY IDOCK:   -0.09 KCAL/MOL
REMARK 927      BINDING AFFINITY PREDICTED BY RF-SCORE:    0.00 PKD
ROOT
HETATM    1  O   UNL     1     -13.392  12.338  72.125  1.00  0.00    -0.526 OA 
HETATM    2  C   UNL     1     -12.514  11.485  71.407  1.00  0.00    -0.232 C  
HETATM    3  H   UNL     1     -12.987  13.152  72.400  1.00  0.00     0.000 HD 
ENDROOT
BRANCH   2   4
HETATM    4  C   UNL     1     -13.170  10.168  70.962  1.00  0.00    -0.335 C  
HETATM    5  O   UNL     1     -12.601   9.728  69.713  1.00  0.00     0.379 OA 
HETATM    6  C   UNL     1     -11.396   8.923  69.714  1.00  0.00     0.085 C  
HETATM    7  H   UNL     1     -14.447   7.592  72.515  1.00  0.00     0.000 HD 
HETATM    8  C   UNL     1     -11.520   7.782  70.763  1.00  0.00    -0.272 C  
HETATM    9  O   UNL     1     -14.394   8.253  71.835  1.00  0.00    -0.427 OA 
HETATM   10  O   UNL     1     -12.500   6.803  70.333  1.00  0.00    -0.574 OA 
HETATM   11  C   UNL     1     -11.962   8.282  72.152  1.00  0.00    -0.369 C  
HETATM   12  C   UNL     1     -13.256   9.094  72.066  1.00  0.00    -0.441 C  
HETATM   13  O   UNL     1     -10.934   9.044  72.791  1.00  0.00     0.294 OA 
HETATM   14  H   UNL     1     -11.206   9.352  73.647  1.00  0.00     0.000 HD 
HETATM   15  H   UNL     1     -12.577   6.106  70.974  1.00  0.00     0.000 HD 
BRANCH   6  16
HETATM   16  C   UNL     1     -10.043   9.781  69.633  1.00  0.00    -0.250 C  
HETATM   17  C   UNL     1     -11.288  12.610  67.364  1.00  0.00    -0.367 A  
HETATM   18  C   UNL     1     -10.150  10.726  68.429  1.00  0.00    -0.183 A  
HETATM   19  C   UNL     1     -10.994  11.853  68.497  1.00  0.00    -0.277 A  
HETATM   20  C   UNL     1     -10.758  12.248  66.133  1.00  0.00    -0.296 A  
HETATM   21  C   UNL     1      -9.879  11.171  66.054  1.00  0.00    -0.228 A  
HETATM   22  O   UNL     1      -9.403  10.821  64.822  1.00  0.00    -0.202 OA 
HETATM   23  C   UNL     1      -9.522  10.439  67.204  1.00  0.00    -0.183 A  
HETATM   24  H   UNL     1      -8.804  10.087  64.768  1.00  0.00     0.000 HD 
HETATM   25  C   UNL     1      -8.448   9.404  67.154  1.00  0.00    -0.128 C  
HETATM   26  O   UNL     1      -7.723   9.316  66.170  1.00  0.00    -0.095 OA 
HETATM   27  C   UNL     1      -8.164   8.585  68.365  1.00  0.00    -0.123 A  
HETATM   28  C   UNL     1      -8.800   8.905  69.568  1.00  0.00    -0.144 A  
HETATM   29  C   UNL     1      -8.334   8.296  70.746  1.00  0.00    -0.127 A  
HETATM   30  C   UNL     1      -7.472   7.196  70.727  1.00  0.00    -0.080 A  
HETATM   31  C   UNL     1      -6.906   6.829  69.509  1.00  0.00    -0.054 A  
HETATM   32  H   UNL     1      -5.973   6.456  67.176  1.00  0.00     0.000 HD 
HETATM   33  O   UNL     1      -6.611   7.160  67.187  1.00  0.00    -0.054 OA 
HETATM   34  C   UNL     1      -7.216   7.541  68.348  1.00  0.00    -0.093 A  
BRANCH  30  35
HETATM   35  C   UNL     1      -7.260   6.391  71.982  1.00  0.00    -0.090 C  
HETATM   36  O   UNL     1      -7.281   5.001  71.665  1.00  0.00    -0.065 OA 
HETATM   37  H   UNL     1      -7.147   4.493  72.457  1.00  0.00     0.000 HD 
ENDBRANCH  30  35
ENDBRANCH   6  16
ENDBRANCH   2   4
TORSDOF 3
ENDMDL
MODEL       73
REMARK 921   NORMALIZED FREE ENERGY PREDICTED BY IDOCK:   -4.16 KCAL/MOL
REMARK 922        TOTAL FREE ENERGY PREDICTED BY IDOCK:   -5.54 KCAL/MOL
REMARK 923 INTER-LIGAND FREE ENERGY PREDICTED BY IDOCK:   -5.92 KCAL/MOL
REMARK 924 INTRA-LIGAND FREE ENERGY PREDICTED BY IDOCK:    0.38 KCAL/MOL
REMARK 927      BINDING AFFINITY PREDICTED BY RF-SCORE:    0.00 PKD
ROOT
HETATM    1  O   UNL     1     -11.475   6.091  72.252  1.00  0.00    -0.290 OA 
HETATM    2  C   UNL     1     -10.515   5.492  73.109  1.00  0.00    -0.222 C  
HETATM    3  H   UNL     1     -12.310   5.637  72.247  1.00  0.00     0.000 HD 
ENDROOT
BRANCH   2   4
HETATM    4  C   UNL     1      -9.165   6.226  73.118  1.00  0.00    -0.128 C  
HETATM    5  O   UNL     1      -8.527   6.108  71.831  1.00  0.00    -0.127 OA 
HETATM    6  C   UNL     1      -8.838   7.059  70.782  1.00  0.00    -0.149 C  
HETATM    7  H   UNL     1      -7.986   8.861  74.650  1.00  0.00     0.000 HD 
HETATM    8  C   UNL     1      -8.802   8.506  71.351  1.00  0.00    -0.198 C  
HETATM    9  O   UNL     1      -7.953   7.983  74.290  1.00  0.00    -0.204 OA 
HETATM   10  O   UNL     1      -7.440   8.890  71.671  1.00  0.00    -0.237 OA 
HETATM   11  C   UNL     1      -9.631   8.672  72.639  1.00  0.00    -0.126 C  
HETATM   12  C   UNL     1      -9.219   7.652  73.702  1.00  0.00    -0.283 C  
HETATM   13  O   UNL     1     -11.034   8.585  72.378  1.00  0.00    -0.357 OA 
HETATM   14  H   UNL     1     -11.545   8.687  73.172  1.00  0.00     0.000 HD 
HETATM   15  H   UNL     1      -7.417   9.774  72.019  1.00  0.00     0.000 HD 
BRANCH   6  16
HETATM   16  C   UNL     1     -10.054   6.610  69.839  1.00  0.00    -0.198 C  
HETATM   17  C   UNL     1      -9.191   2.887  69.519  1.00  0.00    -0.211 A  
HETATM   18  C   UNL     1      -9.691   5.260  69.205  1.00  0.00    -0.231 A  
HETATM   19  C   UNL     1      -9.719   4.090  69.989  1.00  0.00    -0.264 A  
HETATM   20  C   UNL     1      -8.610   2.832  68.260  1.00  0.00    -0.115 A  
HETATM   21  C   UNL     1      -8.622   3.964  67.448  1.00  0.00    -0.102 A  
HETATM   22  O   UNL     1      -8.010   3.884  66.229  1.00  0.00    -0.092 OA 
HETATM   23  C   UNL     1      -9.211   5.166  67.886  1.00  0.00    -0.128 A  
HETATM   24  H   UNL     1      -8.017   4.656  65.676  1.00  0.00     0.000 HD 
HETATM   25  C   UNL     1      -9.384   6.321  66.957  1.00  0.00    -0.126 C  
HETATM   26  O   UNL     1      -9.205   6.175  65.754  1.00  0.00    -0.110 OA 
HETATM   27  C   UNL     1      -9.923   7.607  67.481  1.00  0.00    -0.233 A  
HETATM   28  C   UNL     1     -10.401   7.661  68.794  1.00  0.00    -0.218 A  
HETATM   29  C   UNL     1     -11.134   8.794  69.186  1.00  0.00     0.139 A  
HETATM   30  C   UNL     1     -11.161   9.966  68.424  1.00  0.00    -0.193 A  
HETATM   31  C   UNL     1     -10.608   9.929  67.147  1.00  0.00    -0.295 A  
HETATM   32  H   UNL     1      -9.606   9.533  64.847  1.00  0.00     0.000 HD 
HETATM   33  O   UNL     1      -9.532   8.761  65.396  1.00  0.00    -0.127 OA 
HETATM   34  C   UNL     1     -10.032   8.752  66.665  1.00  0.00    -0.285 A  
BRANCH  30  35
HETATM   35  C   UNL     1     -11.687  11.239  69.031  1.00  0.00    -0.342 C  
HETATM   36  O   UNL     1     -11.097  11.435  70.314  1.00  0.00    -0.469 OA 
HETATM   37  H   UNL     1     -11.430  12.239  70.697  1.00  0.00     0.000 HD 
ENDBRANCH  30  35
ENDBRANCH   6  16
ENDBRANCH   2   4
TORSDOF 3
ENDMDL
MODEL       74
REMARK 921   NORMALIZED FREE ENERGY PREDICTED BY IDOCK:   -4.13 KCAL/MOL
REMARK 922        TOTAL FREE ENERGY PREDICTED BY IDOCK:   -5.51 KCAL/MOL
REMARK 923 INTER-LIGAND FREE ENERGY PREDICTED BY IDOCK:   -5.25 KCAL/MOL
REMARK 924 INTRA-LIGAND FREE ENERGY PREDICTED BY IDOCK:   -0.26 KCAL/MOL
REMARK 927      BINDING AFFINITY PREDICTED BY RF-SCORE:    0.00 PKD
ROOT
HETATM    1  O   UNL     1      -6.736   9.077  73.115  1.00  0.00    -0.324 OA 
HETATM    2  C   UNL     1      -7.599   8.016  72.736  1.00  0.00    -0.124 C  
HETATM    3  H   UNL     1      -5.841   8.798  73.272  1.00  0.00     0.000 HD 
ENDROOT
BRANCH   2   4
HETATM    4  C   UNL     1      -9.046   8.469  72.483  1.00  0.00    -0.214 C  
HETATM    5  O   UNL     1      -9.099   9.339  71.335  1.00  0.00    -0.299 OA 
HETATM    6  C   UNL     1      -9.228   8.773  70.007  1.00  0.00    -0.168 C  
HETATM    7  H   UNL     1     -11.991   7.128  72.937  1.00  0.00     0.000 HD 
HETATM    8  C   UNL     1     -10.339   7.685  69.999  1.00  0.00    -0.223 C  
HETATM    9  O   UNL     1     -11.353   7.832  72.929  1.00  0.00    -0.387 OA 
HETATM   10  O   UNL     1     -11.646   8.294  70.163  1.00  0.00    -0.469 OA 
HETATM   11  C   UNL     1     -10.180   6.649  71.128  1.00  0.00    -0.194 C  
HETATM   12  C   UNL     1     -10.082   7.326  72.496  1.00  0.00    -0.187 C  
HETATM   13  O   UNL     1      -9.052   5.799  70.909  1.00  0.00    -0.143 OA 
HETATM   14  H   UNL     1      -8.953   5.160  71.605  1.00  0.00     0.000 HD 
HETATM   15  H   UNL     1     -12.325   7.629  70.159  1.00  0.00     0.000 HD 
BRANCH   6  16
HETATM   16  C   UNL     1      -7.826   8.478  69.288  1.00  0.00    -0.099 C  
HETATM   17  C   UNL     1      -5.971  11.675  70.307  1.00  0.00    -0.159 A  
HETATM   18  C   UNL     1      -7.061   9.803  69.173  1.00  0.00    -0.067 A  
HETATM   19  C   UNL     1      -6.481  10.378  70.321  1.00  0.00    -0.141 A  
HETATM   20  C   UNL     1      -6.044  12.434  69.147  1.00  0.00    -0.087 A  
HETATM   21  C   UNL     1      -6.564  11.866  67.986  1.00  0.00    -0.063 A  
HETATM   22  O   UNL     1      -6.653  12.653  66.873  1.00  0.00    -0.444 OA 
HETATM   23  C   UNL     1      -7.021  10.534  67.972  1.00  0.00    -0.074 A  
HETATM   24  H   UNL     1      -7.008  12.266  66.082  1.00  0.00     0.000 HD 
HETATM   25  C   UNL     1      -7.411   9.869  66.694  1.00  0.00    -0.099 C  
HETATM   26  O   UNL     1      -7.148  10.396  65.620  1.00  0.00    -0.138 OA 
HETATM   27  C   UNL     1      -7.980   8.493  66.730  1.00  0.00    -0.094 A  
HETATM   28  C   UNL     1      -7.993   7.792  67.940  1.00  0.00    -0.125 A  
HETATM   29  C   UNL     1      -8.291   6.419  67.907  1.00  0.00    -0.118 A  
HETATM   30  C   UNL     1      -8.839   5.801  66.779  1.00  0.00    -0.117 A  
HETATM   31  C   UNL     1      -8.899   6.532  65.596  1.00  0.00    -0.057 A  
HETATM   32  H   UNL     1      -8.799   8.077  63.582  1.00  0.00     0.000 HD 
HETATM   33  O   UNL     1      -8.491   8.511  64.370  1.00  0.00    -0.154 OA 
HETATM   34  C   UNL     1      -8.437   7.849  65.561  1.00  0.00    -0.139 A  
BRANCH  30  35
HETATM   35  C   UNL     1      -9.429   4.420  66.897  1.00  0.00    -0.178 C  
HETATM   36  O   UNL     1      -9.578   4.081  68.274  1.00  0.00    -0.163 OA 
HETATM   37  H   UNL     1      -9.950   3.210  68.348  1.00  0.00     0.000 HD 
ENDBRANCH  30  35
ENDBRANCH   6  16
ENDBRANCH   2   4
TORSDOF 3
ENDMDL
MODEL       75
REMARK 921   NORMALIZED FREE ENERGY PREDICTED BY IDOCK:   -4.11 KCAL/MOL
REMARK 922        TOTAL FREE ENERGY PREDICTED BY IDOCK:   -5.48 KCAL/MOL
REMARK 923 INTER-LIGAND FREE ENERGY PREDICTED BY IDOCK:   -5.63 KCAL/MOL
REMARK 924 INTRA-LIGAND FREE ENERGY PREDICTED BY IDOCK:    0.15 KCAL/MOL
REMARK 927      BINDING AFFINITY PREDICTED BY RF-SCORE:    0.00 PKD
ROOT
HETATM    1  O   UNL     1      -9.452  16.177  65.833  1.00  0.00    -0.320 OA 
HETATM    2  C   UNL     1      -9.321  14.904  65.218  1.00  0.00     0.529 C  
HETATM    3  H   UNL     1      -8.653  16.478  66.249  1.00  0.00     0.000 HD 
ENDROOT
BRANCH   2   4
HETATM    4  C   UNL     1     -10.613  14.417  64.544  1.00  0.00    -0.159 C  
HETATM    5  O   UNL     1     -10.550  12.994  64.321  1.00  0.00    -0.381 OA 
HETATM    6  C   UNL     1     -10.961  12.082  65.370  1.00  0.00    -0.300 C  
HETATM    7  H   UNL     1     -13.747  15.341  64.631  1.00  0.00     0.000 HD 
HETATM    8  C   UNL     1     -12.317  12.545  65.976  1.00  0.00    -0.006 C  
HETATM    9  O   UNL     1     -12.948  15.027  64.223  1.00  0.00    -0.454 OA 
HETATM   10  O   UNL     1     -13.390  12.359  65.017  1.00  0.00    -0.493 OA 
HETATM   11  C   UNL     1     -12.324  14.033  66.376  1.00  0.00    -0.431 C  
HETATM   12  C   UNL     1     -11.909  14.927  65.207  1.00  0.00    -0.217 C  
HETATM   13  O   UNL     1     -11.491  14.277  67.513  1.00  0.00    -0.309 OA 
HETATM   14  H   UNL     1     -11.496  15.194  67.760  1.00  0.00     0.000 HD 
HETATM   15  H   UNL     1     -14.218  12.642  65.387  1.00  0.00     0.000 HD 
BRANCH   6  16
HETATM   16  C   UNL     1      -9.770  11.635  66.345  1.00  0.00    -0.236 C  
HETATM   17  C   UNL     1      -7.387  10.179  63.716  1.00  0.00    -0.113 A  
HETATM   18  C   UNL     1      -8.890  10.627  65.592  1.00  0.00    -0.201 A  
HETATM   19  C   UNL     1      -8.035  11.075  64.566  1.00  0.00     0.457 A  
HETATM   20  C   UNL     1      -7.594   8.815  63.863  1.00  0.00    -0.124 A  
HETATM   21  C   UNL     1      -8.393   8.349  64.905  1.00  0.00    -0.149 A  
HETATM   22  O   UNL     1      -8.602   7.002  64.999  1.00  0.00    -0.336 OA 
HETATM   23  C   UNL     1      -8.998   9.242  65.810  1.00  0.00    -0.234 A  
HETATM   24  H   UNL     1      -9.147   6.685  65.709  1.00  0.00     0.000 HD 
HETATM   25  C   UNL     1      -9.704   8.743  67.027  1.00  0.00    -0.198 C  
HETATM   26  O   UNL     1      -9.594   7.571  67.365  1.00  0.00    -0.139 OA 
HETATM   27  C   UNL     1     -10.413   9.710  67.910  1.00  0.00    -0.296 A  
HETATM   28  C   UNL     1     -10.275  11.081  67.669  1.00  0.00    -0.211 A  
HETATM   29  C   UNL     1     -10.733  11.976  68.651  1.00  0.00    -0.266 A  
HETATM   30  C   UNL     1     -11.559  11.570  69.704  1.00  0.00    -0.403 A  
HETATM   31  C   UNL     1     -11.760  10.204  69.889  1.00  0.00    -0.248 A  
HETATM   32  H   UNL     1     -11.870   7.670  70.023  1.00  0.00     0.000 HD 
HETATM   33  O   UNL     1     -11.366   7.957  69.270  1.00  0.00     0.158 OA 
HETATM   34  C   UNL     1     -11.161   9.284  69.027  1.00  0.00     0.165 A  
BRANCH  30  35
HETATM   35  C   UNL     1     -12.274  12.603  70.533  1.00  0.00    -0.299 C  
HETATM   36  O   UNL     1     -12.967  11.961  71.601  1.00  0.00    -0.412 OA 
HETATM   37  H   UNL     1     -13.418  12.613  72.125  1.00  0.00     0.000 HD 
ENDBRANCH  30  35
ENDBRANCH   6  16
ENDBRANCH   2   4
TORSDOF 3
ENDMDL
MODEL       76
REMARK 921   NORMALIZED FREE ENERGY PREDICTED BY IDOCK:   -4.10 KCAL/MOL
REMARK 922        TOTAL FREE ENERGY PREDICTED BY IDOCK:   -5.47 KCAL/MOL
REMARK 923 INTER-LIGAND FREE ENERGY PREDICTED BY IDOCK:   -5.20 KCAL/MOL
REMARK 924 INTRA-LIGAND FREE ENERGY PREDICTED BY IDOCK:   -0.27 KCAL/MOL
REMARK 927      BINDING AFFINITY PREDICTED BY RF-SCORE:    0.00 PKD
ROOT
HETATM    1  O   UNL     1     -10.715  16.105  67.493  1.00  0.00    -0.311 OA 
HETATM    2  C   UNL     1     -11.240  14.992  66.787  1.00  0.00    -0.322 C  
HETATM    3  H   UNL     1     -10.302  16.748  66.930  1.00  0.00     0.000 HD 
ENDROOT
BRANCH   2   4
HETATM    4  C   UNL     1     -11.910  13.952  67.699  1.00  0.00    -0.386 C  
HETATM    5  O   UNL     1     -11.552  12.620  67.278  1.00  0.00    -0.323 OA 
HETATM    6  C   UNL     1     -10.333  12.011  67.772  1.00  0.00    -0.197 C  
HETATM    7  H   UNL     1     -12.785  13.872  70.847  1.00  0.00     0.000 HD 
HETATM    8  C   UNL     1     -10.223  12.215  69.310  1.00  0.00     0.320 C  
HETATM    9  O   UNL     1     -12.880  13.699  69.917  1.00  0.00    -0.040 OA 
HETATM   10  O   UNL     1     -11.223  11.420  69.999  1.00  0.00    -0.450 OA 
HETATM   11  C   UNL     1     -10.434  13.678  69.743  1.00  0.00     0.651 C  
HETATM   12  C   UNL     1     -11.755  14.233  69.208  1.00  0.00    -0.321 C  
HETATM   13  O   UNL     1      -9.342  14.509  69.343  1.00  0.00    -0.402 OA 
HETATM   14  H   UNL     1      -9.471  15.412  69.610  1.00  0.00     0.000 HD 
HETATM   15  H   UNL     1     -11.156  11.545  70.938  1.00  0.00     0.000 HD 
BRANCH   6  16
HETATM   16  C   UNL     1      -9.053  12.277  66.844  1.00  0.00    -0.208 C  
HETATM   17  C   UNL     1     -10.815  12.360  63.439  1.00  0.00    -0.417 A  
HETATM   18  C   UNL     1      -9.426  11.912  65.401  1.00  0.00    -0.123 A  
HETATM   19  C   UNL     1     -10.278  12.757  64.663  1.00  0.00    -0.321 A  
HETATM   20  C   UNL     1     -10.524  11.101  62.933  1.00  0.00    -0.015 A  
HETATM   21  C   UNL     1      -9.641  10.271  63.620  1.00  0.00    -0.277 A  
HETATM   22  O   UNL     1      -9.405   9.026  63.110  1.00  0.00    -0.412 OA 
HETATM   23  C   UNL     1      -9.041  10.688  64.824  1.00  0.00    -0.236 A  
HETATM   24  H   UNL     1      -8.804   8.460  63.579  1.00  0.00     0.000 HD 
HETATM   25  C   UNL     1      -7.963   9.880  65.466  1.00  0.00    -0.128 C  
HETATM   26  O   UNL     1      -7.443   8.953  64.857  1.00  0.00    -0.094 OA 
HETATM   27  C   UNL     1      -7.420  10.303  66.787  1.00  0.00    -0.107 A  
HETATM   28  C   UNL     1      -7.818  11.530  67.326  1.00  0.00    -0.153 A  
HETATM   29  C   UNL     1      -7.109  12.028  68.433  1.00  0.00    -0.084 A  
HETATM   30  C   UNL     1      -6.231  11.234  69.175  1.00  0.00    -0.058 A  
HETATM   31  C   UNL     1      -5.902   9.977  68.675  1.00  0.00    -0.041 A  
HETATM   32  H   UNL     1      -5.433   7.788  67.475  1.00  0.00     0.000 HD 
HETATM   33  O   UNL     1      -6.081   8.306  67.012  1.00  0.00    -0.052 OA 
HETATM   34  C   UNL     1      -6.459   9.533  67.473  1.00  0.00    -0.062 A  
BRANCH  30  35
HETATM   35  C   UNL     1      -5.749  11.710  70.521  1.00  0.00    -0.148 C  
HETATM   36  O   UNL     1      -6.388  12.941  70.847  1.00  0.00    -0.484 OA 
HETATM   37  H   UNL     1      -6.084  13.242  71.696  1.00  0.00     0.000 HD 
ENDBRANCH  30  35
ENDBRANCH   6  16
ENDBRANCH   2   4
TORSDOF 3
ENDMDL
MODEL       77
REMARK 921   NORMALIZED FREE ENERGY PREDICTED BY IDOCK:   -4.10 KCAL/MOL
REMARK 922        TOTAL FREE ENERGY PREDICTED BY IDOCK:   -5.47 KCAL/MOL
REMARK 923 INTER-LIGAND FREE ENERGY PREDICTED BY IDOCK:   -5.62 KCAL/MOL
REMARK 924 INTRA-LIGAND FREE ENERGY PREDICTED BY IDOCK:    0.15 KCAL/MOL
REMARK 927      BINDING AFFINITY PREDICTED BY RF-SCORE:    0.00 PKD
ROOT
HETATM    1  O   UNL     1      -7.287   1.629  66.925  1.00  0.00    -0.053 OA 
HETATM    2  C   UNL     1      -7.654   2.962  67.242  1.00  0.00    -0.069 C  
HETATM    3  H   UNL     1      -6.443   1.375  67.280  1.00  0.00     0.000 HD 
ENDROOT
BRANCH   2   4
HETATM    4  C   UNL     1      -9.020   3.372  66.669  1.00  0.00    -0.152 C  
HETATM    5  O   UNL     1      -9.950   3.627  67.740  1.00  0.00    -0.020 OA 
HETATM    6  C   UNL     1     -10.007   4.943  68.346  1.00  0.00    -0.115 C  
HETATM    7  H   UNL     1     -10.011   4.969  63.996  1.00  0.00     0.000 HD 
HETATM    8  C   UNL     1     -10.034   6.036  67.241  1.00  0.00    -0.150 C  
HETATM    9  O   UNL     1     -10.052   4.300  64.669  1.00  0.00    -0.177 OA 
HETATM   10  O   UNL     1     -11.299   6.009  66.532  1.00  0.00    -0.737 OA 
HETATM   11  C   UNL     1      -8.923   5.860  66.188  1.00  0.00    -0.151 C  
HETATM   12  C   UNL     1      -8.953   4.458  65.576  1.00  0.00    -0.135 C  
HETATM   13  O   UNL     1      -7.631   6.142  66.731  1.00  0.00    -0.095 OA 
HETATM   14  H   UNL     1      -6.946   6.033  66.082  1.00  0.00     0.000 HD 
HETATM   15  H   UNL     1     -11.315   6.677  65.856  1.00  0.00     0.000 HD 
BRANCH   6  16
HETATM   16  C   UNL     1      -9.035   5.117  69.610  1.00  0.00    -0.137 C  
HETATM   17  C   UNL     1      -8.960   1.469  70.788  1.00  0.00    -0.126 A  
HETATM   18  C   UNL     1      -9.201   3.886  70.512  1.00  0.00    -0.203 A  
HETATM   19  C   UNL     1      -8.651   2.650  70.116  1.00  0.00    -0.111 A  
HETATM   20  C   UNL     1      -9.839   1.494  71.862  1.00  0.00    -0.202 A  
HETATM   21  C   UNL     1     -10.351   2.712  72.303  1.00  0.00    -0.065 A  
HETATM   22  O   UNL     1     -11.241   2.696  73.340  1.00  0.00    -0.195 OA 
HETATM   23  C   UNL     1      -9.993   3.920  71.673  1.00  0.00    -0.223 A  
HETATM   24  H   UNL     1     -11.589   3.526  73.640  1.00  0.00     0.000 HD 
HETATM   25  C   UNL     1     -10.395   5.236  72.250  1.00  0.00    -0.212 C  
HETATM   26  O   UNL     1     -10.862   5.296  73.381  1.00  0.00    -0.255 OA 
HETATM   27  C   UNL     1     -10.081   6.488  71.506  1.00  0.00    -0.211 A  
HETATM   28  C   UNL     1      -9.282   6.417  70.361  1.00  0.00    -0.159 A  
HETATM   29  C   UNL     1      -8.786   7.618  69.824  1.00  0.00    -0.140 A  
HETATM   30  C   UNL     1      -9.280   8.867  70.209  1.00  0.00    -0.207 A  
HETATM   31  C   UNL     1     -10.143   8.923  71.301  1.00  0.00    -0.365 A  
HETATM   32  H   UNL     1     -11.617   8.715  73.358  1.00  0.00     0.000 HD 
HETATM   33  O   UNL     1     -11.330   7.863  73.048  1.00  0.00    -0.408 OA 
HETATM   34  C   UNL     1     -10.507   7.751  71.967  1.00  0.00    -0.224 A  
BRANCH  30  35
HETATM   35  C   UNL     1      -8.951  10.086  69.388  1.00  0.00    -0.194 C  
HETATM   36  O   UNL     1      -9.437   9.911  68.059  1.00  0.00    -0.134 OA 
HETATM   37  H   UNL     1      -9.230  10.680  67.541  1.00  0.00     0.000 HD 
ENDBRANCH  30  35
ENDBRANCH   6  16
ENDBRANCH   2   4
TORSDOF 3
ENDMDL
MODEL       78
REMARK 921   NORMALIZED FREE ENERGY PREDICTED BY IDOCK:   -3.94 KCAL/MOL
REMARK 922        TOTAL FREE ENERGY PREDICTED BY IDOCK:   -5.29 KCAL/MOL
REMARK 923 INTER-LIGAND FREE ENERGY PREDICTED BY IDOCK:   -5.23 KCAL/MOL
REMARK 924 INTRA-LIGAND FREE ENERGY PREDICTED BY IDOCK:   -0.05 KCAL/MOL
REMARK 927      BINDING AFFINITY PREDICTED BY RF-SCORE:    0.00 PKD
ROOT
HETATM    1  O   UNL     1     -12.392  11.058  69.003  1.00  0.00    -0.633 OA 
HETATM    2  C   UNL     1     -11.780  11.140  67.725  1.00  0.00    -0.139 C  
HETATM    3  H   UNL     1     -13.194  10.549  69.005  1.00  0.00     0.000 HD 
ENDROOT
BRANCH   2   4
HETATM    4  C   UNL     1     -10.481  11.962  67.723  1.00  0.00    -0.202 C  
HETATM    5  O   UNL     1      -9.477  11.306  68.523  1.00  0.00    -0.182 OA 
HETATM    6  C   UNL     1      -8.630  10.293  67.926  1.00  0.00    -0.118 C  
HETATM    7  H   UNL     1      -9.007  13.932  65.573  1.00  0.00     0.000 HD 
HETATM    8  C   UNL     1      -8.088  10.792  66.557  1.00  0.00    -0.146 C  
HETATM    9  O   UNL     1      -9.291  13.650  66.434  1.00  0.00    -0.256 OA 
HETATM   10  O   UNL     1      -7.132  11.866  66.751  1.00  0.00    -0.312 OA 
HETATM   11  C   UNL     1      -9.193  11.335  65.630  1.00  0.00    -0.213 C  
HETATM   12  C   UNL     1     -10.019  12.419  66.324  1.00  0.00    -0.246 C  
HETATM   13  O   UNL     1     -10.042  10.289  65.152  1.00  0.00    -0.310 OA 
HETATM   14  H   UNL     1     -10.723  10.623  64.581  1.00  0.00     0.000 HD 
HETATM   15  H   UNL     1      -6.802  12.171  65.915  1.00  0.00     0.000 HD 
BRANCH   6  16
HETATM   16  C   UNL     1      -9.212   8.804  68.052  1.00  0.00    -0.147 C  
HETATM   17  C   UNL     1     -10.388   8.951  71.699  1.00  0.00    -0.416 A  
HETATM   18  C   UNL     1      -9.339   8.467  69.544  1.00  0.00    -0.158 A  
HETATM   19  C   UNL     1     -10.366   9.055  70.309  1.00  0.00    -0.243 A  
HETATM   20  C   UNL     1      -9.374   8.270  72.358  1.00  0.00    -0.338 A  
HETATM   21  C   UNL     1      -8.379   7.636  71.617  1.00  0.00    -0.108 A  
HETATM   22  O   UNL     1      -7.377   7.004  72.300  1.00  0.00    -0.083 OA 
HETATM   23  C   UNL     1      -8.384   7.678  70.210  1.00  0.00    -0.132 A  
HETATM   24  H   UNL     1      -6.699   6.572  71.795  1.00  0.00     0.000 HD 
HETATM   25  C   UNL     1      -7.428   6.855  69.413  1.00  0.00    -0.094 C  
HETATM   26  O   UNL     1      -6.765   5.981  69.958  1.00  0.00    -0.048 OA 
HETATM   27  C   UNL     1      -7.398   6.997  67.930  1.00  0.00    -0.097 A  
HETATM   28  C   UNL     1      -8.370   7.782  67.302  1.00  0.00    -0.118 A  
HETATM   29  C   UNL     1      -8.485   7.701  65.904  1.00  0.00    -0.150 A  
HETATM   30  C   UNL     1      -7.505   7.100  65.108  1.00  0.00    -0.094 A  
HETATM   31  C   UNL     1      -6.491   6.388  65.744  1.00  0.00    -0.043 A  
HETATM   32  H   UNL     1      -4.833   5.101  67.174  1.00  0.00     0.000 HD 
HETATM   33  O   UNL     1      -5.464   5.568  67.709  1.00  0.00    -0.010 OA 
HETATM   34  C   UNL     1      -6.461   6.303  67.137  1.00  0.00    -0.053 A  
BRANCH  30  35
HETATM   35  C   UNL     1      -7.516   7.317  63.618  1.00  0.00    -0.097 C  
HETATM   36  O   UNL     1      -7.267   6.080  62.954  1.00  0.00    -0.047 OA 
HETATM   37  H   UNL     1      -7.274   6.217  62.014  1.00  0.00     0.000 HD 
ENDBRANCH  30  35
ENDBRANCH   6  16
ENDBRANCH   2   4
TORSDOF 3
ENDMDL
MODEL       79
REMARK 921   NORMALIZED FREE ENERGY PREDICTED BY IDOCK:   -3.93 KCAL/MOL
REMARK 922        TOTAL FREE ENERGY PREDICTED BY IDOCK:   -5.27 KCAL/MOL
REMARK 923 INTER-LIGAND FREE ENERGY PREDICTED BY IDOCK:   -5.19 KCAL/MOL
REMARK 924 INTRA-LIGAND FREE ENERGY PREDICTED BY IDOCK:   -0.08 KCAL/MOL
REMARK 927      BINDING AFFINITY PREDICTED BY RF-SCORE:    0.00 PKD
ROOT
HETATM    1  O   UNL     1     -11.290  10.212  68.973  1.00  0.00    -0.376 OA 
HETATM    2  C   UNL     1     -10.895   8.886  69.290  1.00  0.00    -0.096 C  
HETATM    3  H   UNL     1     -10.648  10.683  68.455  1.00  0.00     0.000 HD 
ENDROOT
BRANCH   2   4
HETATM    4  C   UNL     1     -11.934   8.124  70.128  1.00  0.00     0.433 C  
HETATM    5  O   UNL     1     -11.766   6.704  69.954  1.00  0.00    -0.361 OA 
HETATM    6  C   UNL     1     -10.824   5.982  70.787  1.00  0.00    -0.292 C  
HETATM    7  H   UNL     1     -13.454   8.675  72.968  1.00  0.00     0.000 HD 
HETATM    8  C   UNL     1     -11.003   6.398  72.275  1.00  0.00    -0.254 C  
HETATM    9  O   UNL     1     -13.383   8.379  72.068  1.00  0.00    -0.335 OA 
HETATM   10  O   UNL     1     -12.263   5.896  72.792  1.00  0.00    -0.542 OA 
HETATM   11  C   UNL     1     -11.008   7.925  72.481  1.00  0.00    -0.350 C  
HETATM   12  C   UNL     1     -12.050   8.604  71.590  1.00  0.00    -0.326 C  
HETATM   13  O   UNL     1      -9.714   8.491  72.260  1.00  0.00    -0.280 OA 
HETATM   14  H   UNL     1      -9.716   9.432  72.386  1.00  0.00     0.000 HD 
HETATM   15  H   UNL     1     -12.373   6.150  73.701  1.00  0.00     0.000 HD 
BRANCH   6  16
HETATM   16  C   UNL     1      -9.349   5.886  70.165  1.00  0.00    -0.180 C  
HETATM   17  C   UNL     1     -10.302   5.653  66.457  1.00  0.00    -0.287 A  
HETATM   18  C   UNL     1      -9.470   5.340  68.735  1.00  0.00    -0.171 A  
HETATM   19  C   UNL     1      -9.972   6.167  67.711  1.00  0.00    -0.143 A  
HETATM   20  C   UNL     1     -10.153   4.296  66.205  1.00  0.00    -0.196 A  
HETATM   21  C   UNL     1      -9.608   3.471  67.187  1.00  0.00    -0.118 A  
HETATM   22  O   UNL     1      -9.509   2.135  66.917  1.00  0.00    -0.375 OA 
HETATM   23  C   UNL     1      -9.209   3.991  68.433  1.00  0.00    -0.204 A  
HETATM   24  H   UNL     1      -9.138   1.572  67.586  1.00  0.00     0.000 HD 
HETATM   25  C   UNL     1      -8.464   3.150  69.415  1.00  0.00    -0.062 C  
HETATM   26  O   UNL     1      -8.011   2.063  69.075  1.00  0.00    -0.046 OA 
HETATM   27  C   UNL     1      -8.143   3.704  70.759  1.00  0.00    -0.064 A  
HETATM   28  C   UNL     1      -8.407   5.052  71.021  1.00  0.00    -0.118 A  
HETATM   29  C   UNL     1      -7.869   5.618  72.189  1.00  0.00    -0.103 A  
HETATM   30  C   UNL     1      -7.333   4.838  73.218  1.00  0.00    -0.082 A  
HETATM   31  C   UNL     1      -7.149   3.478  72.981  1.00  0.00    -0.045 A  
HETATM   32  H   UNL     1      -6.857   1.070  72.228  1.00  0.00     0.000 HD 
HETATM   33  O   UNL     1      -7.282   1.595  71.559  1.00  0.00    -0.030 OA 
HETATM   34  C   UNL     1      -7.511   2.925  71.751  1.00  0.00    -0.044 A  
BRANCH  30  35
HETATM   35  C   UNL     1      -7.067   5.458  74.564  1.00  0.00    -0.082 C  
HETATM   36  O   UNL     1      -5.873   6.235  74.503  1.00  0.00    -0.060 OA 
HETATM   37  H   UNL     1      -5.705   6.626  75.352  1.00  0.00     0.000 HD 
ENDBRANCH  30  35
ENDBRANCH   6  16
ENDBRANCH   2   4
TORSDOF 3
ENDMDL
MODEL       80
REMARK 921   NORMALIZED FREE ENERGY PREDICTED BY IDOCK:   -3.82 KCAL/MOL
REMARK 922        TOTAL FREE ENERGY PREDICTED BY IDOCK:   -5.15 KCAL/MOL
REMARK 923 INTER-LIGAND FREE ENERGY PREDICTED BY IDOCK:   -4.80 KCAL/MOL
REMARK 924 INTRA-LIGAND FREE ENERGY PREDICTED BY IDOCK:   -0.35 KCAL/MOL
REMARK 927      BINDING AFFINITY PREDICTED BY RF-SCORE:    0.00 PKD
ROOT
HETATM    1  O   UNL     1      -7.146  10.362  71.018  1.00  0.00    -0.329 OA 
HETATM    2  C   UNL     1      -6.509   9.991  69.806  1.00  0.00    -0.064 C  
HETATM    3  H   UNL     1      -7.606   9.644  71.438  1.00  0.00     0.000 HD 
ENDROOT
BRANCH   2   4
HETATM    4  C   UNL     1      -5.765  11.152  69.128  1.00  0.00    -0.041 C  
HETATM    5  O   UNL     1      -5.689  10.930  67.706  1.00  0.00    -0.043 OA 
HETATM    6  C   UNL     1      -6.778  11.360  66.850  1.00  0.00    -0.145 C  
HETATM    7  H   UNL     1      -5.461  14.352  69.721  1.00  0.00     0.000 HD 
HETATM    8  C   UNL     1      -7.203  12.809  67.220  1.00  0.00    -0.082 C  
HETATM    9  O   UNL     1      -5.164  13.488  69.458  1.00  0.00    -0.082 OA 
HETATM   10  O   UNL     1      -6.169  13.753  66.838  1.00  0.00    -0.180 OA 
HETATM   11  C   UNL     1      -7.454  13.001  68.728  1.00  0.00    -0.049 C  
HETATM   12  C   UNL     1      -6.248  12.554  69.555  1.00  0.00    -0.120 C  
HETATM   13  O   UNL     1      -8.636  12.320  69.157  1.00  0.00    -0.259 OA 
HETATM   14  H   UNL     1      -8.791  12.438  70.086  1.00  0.00     0.000 HD 
HETATM   15  H   UNL     1      -6.429  14.638  67.064  1.00  0.00     0.000 HD 
BRANCH   6  16
HETATM   16  C   UNL     1      -7.901  10.239  66.619  1.00  0.00    -0.116 C  
HETATM   17  C   UNL     1      -5.609   7.299  65.721  1.00  0.00    -0.032 A  
HETATM   18  C   UNL     1      -7.271   9.090  65.821  1.00  0.00    -0.089 A  
HETATM   19  C   UNL     1      -6.366   8.214  66.453  1.00  0.00    -0.050 A  
HETATM   20  C   UNL     1      -5.728   7.251  64.340  1.00  0.00    -0.033 A  
HETATM   21  C   UNL     1      -6.656   8.071  63.701  1.00  0.00    -0.071 A  
HETATM   22  O   UNL     1      -6.721   8.023  62.337  1.00  0.00    -0.085 OA 
HETATM   23  C   UNL     1      -7.473   8.952  64.436  1.00  0.00    -0.106 A  
HETATM   24  H   UNL     1      -7.353   8.582  61.902  1.00  0.00     0.000 HD 
HETATM   25  C   UNL     1      -8.587   9.697  63.778  1.00  0.00    -0.208 C  
HETATM   26  O   UNL     1      -8.936   9.404  62.641  1.00  0.00    -0.245 OA 
HETATM   27  C   UNL     1      -9.368  10.690  64.566  1.00  0.00    -0.284 A  
HETATM   28  C   UNL     1      -9.147  10.793  65.943  1.00  0.00    -0.208 A  
HETATM   29  C   UNL     1     -10.061  11.541  66.706  1.00  0.00    -0.245 A  
HETATM   30  C   UNL     1     -10.995  12.399  66.121  1.00  0.00    -0.321 A  
HETATM   31  C   UNL     1     -11.153  12.351  64.738  1.00  0.00    -0.345 A  
HETATM   32  H   UNL     1     -11.272  11.979  62.229  1.00  0.00     0.000 HD 
HETATM   33  O   UNL     1     -10.592  11.448  62.627  1.00  0.00     0.099 OA 
HETATM   34  C   UNL     1     -10.377  11.477  63.974  1.00  0.00    -0.355 A  
BRANCH  30  35
HETATM   35  C   UNL     1     -11.724  13.404  66.974  1.00  0.00    -0.381 C  
HETATM   36  O   UNL     1     -11.909  12.872  68.284  1.00  0.00    -0.329 OA 
HETATM   37  H   UNL     1     -12.368  13.506  68.822  1.00  0.00     0.000 HD 
ENDBRANCH  30  35
ENDBRANCH   6  16
ENDBRANCH   2   4
TORSDOF 3
ENDMDL
MODEL       81
REMARK 921   NORMALIZED FREE ENERGY PREDICTED BY IDOCK:   -3.77 KCAL/MOL
REMARK 922        TOTAL FREE ENERGY PREDICTED BY IDOCK:   -5.09 KCAL/MOL
REMARK 923 INTER-LIGAND FREE ENERGY PREDICTED BY IDOCK:   -4.71 KCAL/MOL
REMARK 924 INTRA-LIGAND FREE ENERGY PREDICTED BY IDOCK:   -0.38 KCAL/MOL
REMARK 927      BINDING AFFINITY PREDICTED BY RF-SCORE:    0.00 PKD
ROOT
HETATM    1  O   UNL     1     -11.536  11.478  69.609  1.00  0.00    -0.283 OA 
HETATM    2  C   UNL     1     -10.731  11.804  68.487  1.00  0.00    -0.220 C  
HETATM    3  H   UNL     1     -12.466  11.460  69.414  1.00  0.00     0.000 HD 
ENDROOT
BRANCH   2   4
HETATM    4  C   UNL     1      -9.227  11.832  68.803  1.00  0.00     0.001 C  
HETATM    5  O   UNL     1      -8.726  10.489  68.949  1.00  0.00    -0.138 OA 
HETATM    6  C   UNL     1      -8.289   9.752  67.780  1.00  0.00    -0.114 C  
HETATM    7  H   UNL     1      -6.747  13.813  68.024  1.00  0.00     0.000 HD 
HETATM    8  C   UNL     1      -7.377  10.650  66.896  1.00  0.00    -0.114 C  
HETATM    9  O   UNL     1      -7.257  13.246  68.592  1.00  0.00    -0.101 OA 
HETATM   10  O   UNL     1      -6.108  10.889  67.557  1.00  0.00    -0.047 OA 
HETATM   11  C   UNL     1      -7.996  12.029  66.595  1.00  0.00     0.013 C  
HETATM   12  C   UNL     1      -8.400  12.751  67.881  1.00  0.00    -0.172 C  
HETATM   13  O   UNL     1      -9.111  11.924  65.707  1.00  0.00    -0.386 OA 
HETATM   14  H   UNL     1      -9.493  12.774  65.521  1.00  0.00     0.000 HD 
HETATM   15  H   UNL     1      -5.552  11.438  67.018  1.00  0.00     0.000 HD 
BRANCH   6  16
HETATM   16  C   UNL     1      -9.445   8.879  67.093  1.00  0.00    -0.202 C  
HETATM   17  C   UNL     1     -10.851   7.204  70.243  1.00  0.00    -0.271 A  
HETATM   18  C   UNL     1      -9.865   7.782  68.082  1.00  0.00    -0.190 A  
HETATM   19  C   UNL     1     -10.634   8.119  69.214  1.00  0.00    -0.191 A  
HETATM   20  C   UNL     1     -10.290   5.936  70.172  1.00  0.00    -0.305 A  
HETATM   21  C   UNL     1      -9.572   5.566  69.037  1.00  0.00    -0.136 A  
HETATM   22  O   UNL     1      -9.004   4.323  69.016  1.00  0.00    -0.094 OA 
HETATM   23  C   UNL     1      -9.403   6.460  67.962  1.00  0.00    -0.115 A  
HETATM   24  H   UNL     1      -8.514   4.071  68.243  1.00  0.00     0.000 HD 
HETATM   25  C   UNL     1      -8.792   6.009  66.677  1.00  0.00    -0.125 C  
HETATM   26  O   UNL     1      -8.615   4.816  66.464  1.00  0.00    -0.110 OA 
HETATM   27  C   UNL     1      -8.541   7.004  65.597  1.00  0.00    -0.121 A  
HETATM   28  C   UNL     1      -9.024   8.308  65.747  1.00  0.00    -0.185 A  
HETATM   29  C   UNL     1      -9.007   9.154  64.624  1.00  0.00    -0.159 A  
HETATM   30  C   UNL     1      -8.283   8.846  63.469  1.00  0.00    -0.177 A  
HETATM   31  C   UNL     1      -7.732   7.571  63.361  1.00  0.00    -0.129 A  
HETATM   32  H   UNL     1      -6.925   5.164  63.417  1.00  0.00     0.000 HD 
HETATM   33  O   UNL     1      -7.361   5.404  64.227  1.00  0.00    -0.053 OA 
HETATM   34  C   UNL     1      -7.895   6.648  64.396  1.00  0.00    -0.114 A  
BRANCH  30  35
HETATM   35  C   UNL     1      -8.037   9.913  62.435  1.00  0.00    -0.128 C  
HETATM   36  O   UNL     1      -7.558  11.094  63.073  1.00  0.00    -0.338 OA 
HETATM   37  H   UNL     1      -7.404  11.767  62.421  1.00  0.00     0.000 HD 
ENDBRANCH  30  35
ENDBRANCH   6  16
ENDBRANCH   2   4
TORSDOF 3
ENDMDL
MODEL       82
REMARK 921   NORMALIZED FREE ENERGY PREDICTED BY IDOCK:   -3.65 KCAL/MOL
REMARK 922        TOTAL FREE ENERGY PREDICTED BY IDOCK:   -4.95 KCAL/MOL
REMARK 923 INTER-LIGAND FREE ENERGY PREDICTED BY IDOCK:   -4.92 KCAL/MOL
REMARK 924 INTRA-LIGAND FREE ENERGY PREDICTED BY IDOCK:   -0.03 KCAL/MOL
REMARK 927      BINDING AFFINITY PREDICTED BY RF-SCORE:    0.00 PKD
ROOT
HETATM    1  O   UNL     1     -12.131   5.423  72.791  1.00  0.00    -0.448 OA 
HETATM    2  C   UNL     1     -11.263   6.488  73.145  1.00  0.00    -0.082 C  
HETATM    3  H   UNL     1     -11.779   4.565  72.998  1.00  0.00     0.000 HD 
ENDROOT
BRANCH   2   4
HETATM    4  C   UNL     1     -11.833   7.876  72.811  1.00  0.00    -0.231 C  
HETATM    5  O   UNL     1     -10.760   8.803  72.551  1.00  0.00    -0.250 OA 
HETATM    6  C   UNL     1     -10.202   8.905  71.217  1.00  0.00    -0.291 C  
HETATM    7  H   UNL     1     -14.550   8.960  71.355  1.00  0.00     0.000 HD 
HETATM    8  C   UNL     1     -11.347   8.987  70.168  1.00  0.00    -0.121 C  
HETATM    9  O   UNL     1     -13.852   8.967  71.999  1.00  0.00    -0.412 OA 
HETATM   10  O   UNL     1     -12.038  10.258  70.271  1.00  0.00    -0.319 OA 
HETATM   11  C   UNL     1     -12.407   7.882  70.341  1.00  0.00     0.420 C  
HETATM   12  C   UNL     1     -12.966   7.864  71.764  1.00  0.00    -0.325 C  
HETATM   13  O   UNL     1     -11.891   6.596  69.989  1.00  0.00    -0.597 OA 
HETATM   14  H   UNL     1     -12.545   5.915  70.095  1.00  0.00     0.000 HD 
HETATM   15  H   UNL     1     -12.737  10.308  69.630  1.00  0.00     0.000 HD 
BRANCH   6  16
HETATM   16  C   UNL     1      -8.959   7.926  70.958  1.00  0.00    -0.152 C  
HETATM   17  C   UNL     1      -7.677   7.654  74.562  1.00  0.00    -0.213 A  
HETATM   18  C   UNL     1      -8.020   8.018  72.169  1.00  0.00    -0.154 A  
HETATM   19  C   UNL     1      -8.388   7.413  73.387  1.00  0.00    -0.158 A  
HETATM   20  C   UNL     1      -6.592   8.519  74.549  1.00  0.00    -0.175 A  
HETATM   21  C   UNL     1      -6.179   9.084  73.345  1.00  0.00     0.110 A  
HETATM   22  O   UNL     1      -5.128   9.958  73.375  1.00  0.00    -0.228 OA 
HETATM   23  C   UNL     1      -6.848   8.795  72.140  1.00  0.00    -0.026 A  
HETATM   24  H   UNL     1      -4.847  10.344  72.554  1.00  0.00     0.000 HD 
HETATM   25  C   UNL     1      -6.303   9.254  70.828  1.00  0.00    -0.074 C  
HETATM   26  O   UNL     1      -5.168   9.709  70.759  1.00  0.00    -0.037 OA 
HETATM   27  C   UNL     1      -7.087   9.013  69.585  1.00  0.00    -0.059 A  
HETATM   28  C   UNL     1      -8.242   8.226  69.650  1.00  0.00    -0.118 A  
HETATM   29  C   UNL     1      -8.820   7.798  68.443  1.00  0.00    -0.130 A  
HETATM   30  C   UNL     1      -8.464   8.349  67.208  1.00  0.00    -0.124 A  
HETATM   31  C   UNL     1      -7.362   9.198  67.163  1.00  0.00    -0.087 A  
HETATM   32  H   UNL     1      -5.277  10.633  67.383  1.00  0.00     0.000 HD 
HETATM   33  O   UNL     1      -5.567  10.308  68.228  1.00  0.00    -0.041 OA 
HETATM   34  C   UNL     1      -6.657   9.494  68.332  1.00  0.00    -0.053 A  
BRANCH  30  35
HETATM   35  C   UNL     1      -9.325   8.091  65.999  1.00  0.00    -0.091 C  
HETATM   36  O   UNL     1     -10.543   7.473  66.405  1.00  0.00    -0.449 OA 
HETATM   37  H   UNL     1     -11.086   7.310  65.642  1.00  0.00     0.000 HD 
ENDBRANCH  30  35
ENDBRANCH   6  16
ENDBRANCH   2   4
TORSDOF 3
ENDMDL
MODEL       83
REMARK 921   NORMALIZED FREE ENERGY PREDICTED BY IDOCK:   -3.61 KCAL/MOL
REMARK 922        TOTAL FREE ENERGY PREDICTED BY IDOCK:   -4.90 KCAL/MOL
REMARK 923 INTER-LIGAND FREE ENERGY PREDICTED BY IDOCK:   -4.45 KCAL/MOL
REMARK 924 INTRA-LIGAND FREE ENERGY PREDICTED BY IDOCK:   -0.45 KCAL/MOL
REMARK 927      BINDING AFFINITY PREDICTED BY RF-SCORE:    0.00 PKD
ROOT
HETATM    1  O   UNL     1      -8.557   1.832  67.127  1.00  0.00    -0.085 OA 
HETATM    2  C   UNL     1      -8.827   2.929  67.986  1.00  0.00    -0.129 C  
HETATM    3  H   UNL     1      -7.887   1.247  67.461  1.00  0.00     0.000 HD 
ENDROOT
BRANCH   2   4
HETATM    4  C   UNL     1      -9.911   3.875  67.445  1.00  0.00    -0.025 C  
HETATM    5  O   UNL     1     -10.227   4.880  68.428  1.00  0.00    -0.121 OA 
HETATM    6  C   UNL     1      -9.444   6.098  68.491  1.00  0.00    -0.119 C  
HETATM    7  H   UNL     1     -10.724   4.991  64.483  1.00  0.00     0.000 HD 
HETATM    8  C   UNL     1      -9.252   6.681  67.062  1.00  0.00    -0.135 C  
HETATM    9  O   UNL     1     -10.889   4.666  65.360  1.00  0.00    -0.252 OA 
HETATM   10  O   UNL     1     -10.510   7.193  66.551  1.00  0.00    -0.487 OA 
HETATM   11  C   UNL     1      -8.744   5.640  66.046  1.00  0.00    -0.144 C  
HETATM   12  C   UNL     1      -9.643   4.402  66.020  1.00  0.00    -0.189 C  
HETATM   13  O   UNL     1      -7.388   5.269  66.305  1.00  0.00    -0.079 OA 
HETATM   14  H   UNL     1      -7.074   4.627  65.679  1.00  0.00     0.000 HD 
HETATM   15  H   UNL     1     -10.394   7.549  65.678  1.00  0.00     0.000 HD 
BRANCH   6  16
HETATM   16  C   UNL     1      -8.189   6.012  69.485  1.00  0.00    -0.115 C  
HETATM   17  C   UNL     1      -9.924   4.323  72.459  1.00  0.00    -0.218 A  
HETATM   18  C   UNL     1      -8.722   5.779  70.906  1.00  0.00    -0.135 A  
HETATM   19  C   UNL     1      -9.236   4.517  71.262  1.00  0.00    -0.195 A  
HETATM   20  C   UNL     1     -10.129   5.392  73.319  1.00  0.00    -0.198 A  
HETATM   21  C   UNL     1      -9.582   6.637  73.011  1.00  0.00    -0.146 A  
HETATM   22  O   UNL     1      -9.833   7.675  73.864  1.00  0.00    -0.370 OA 
HETATM   23  C   UNL     1      -8.828   6.827  71.837  1.00  0.00    -0.135 A  
HETATM   24  H   UNL     1      -9.461   8.523  73.654  1.00  0.00     0.000 HD 
HETATM   25  C   UNL     1      -8.094   8.104  71.594  1.00  0.00    -0.124 C  
HETATM   26  O   UNL     1      -7.968   8.923  72.496  1.00  0.00    -0.374 OA 
HETATM   27  C   UNL     1      -7.386   8.305  70.299  1.00  0.00    -0.055 A  
HETATM   28  C   UNL     1      -7.292   7.238  69.401  1.00  0.00    -0.089 A  
HETATM   29  C   UNL     1      -6.411   7.364  68.313  1.00  0.00    -0.045 A  
HETATM   30  C   UNL     1      -5.854   8.591  67.942  1.00  0.00    -0.043 A  
HETATM   31  C   UNL     1      -6.022   9.673  68.802  1.00  0.00    -0.042 A  
HETATM   32  H   UNL     1      -6.422  11.425  70.597  1.00  0.00     0.000 HD 
HETATM   33  O   UNL     1      -6.854  10.605  70.808  1.00  0.00    -0.267 OA 
HETATM   34  C   UNL     1      -6.745   9.522  69.987  1.00  0.00    -0.070 A  
BRANCH  30  35
HETATM   35  C   UNL     1      -5.184   8.732  66.601  1.00  0.00    -0.035 C  
HETATM   36  O   UNL     1      -5.421   7.560  65.824  1.00  0.00    -0.028 OA 
HETATM   37  H   UNL     1      -4.998   7.649  64.978  1.00  0.00     0.000 HD 
ENDBRANCH  30  35
ENDBRANCH   6  16
ENDBRANCH   2   4
TORSDOF 3
ENDMDL
MODEL       84
REMARK 921   NORMALIZED FREE ENERGY PREDICTED BY IDOCK:   -3.59 KCAL/MOL
REMARK 922        TOTAL FREE ENERGY PREDICTED BY IDOCK:   -4.87 KCAL/MOL
REMARK 923 INTER-LIGAND FREE ENERGY PREDICTED BY IDOCK:   -4.73 KCAL/MOL
REMARK 924 INTRA-LIGAND FREE ENERGY PREDICTED BY IDOCK:   -0.15 KCAL/MOL
REMARK 927      BINDING AFFINITY PREDICTED BY RF-SCORE:    0.00 PKD
ROOT
HETATM    1  O   UNL     1      -9.704   9.234  64.513  1.00  0.00    -0.311 OA 
HETATM    2  C   UNL     1      -9.315   8.941  65.846  1.00  0.00    -0.236 C  
HETATM    3  H   UNL     1     -10.024  10.122  64.401  1.00  0.00     0.000 HD 
ENDROOT
BRANCH   2   4
HETATM    4  C   UNL     1      -8.798   7.505  66.028  1.00  0.00    -0.150 C  
HETATM    5  O   UNL     1      -7.993   7.415  67.221  1.00  0.00    -0.111 OA 
HETATM    6  C   UNL     1      -8.626   7.162  68.500  1.00  0.00    -0.124 C  
HETATM    7  H   UNL     1      -9.943   4.534  65.293  1.00  0.00     0.000 HD 
HETATM    8  C   UNL     1      -9.649   5.999  68.366  1.00  0.00    -0.120 C  
HETATM    9  O   UNL     1      -9.278   5.206  65.388  1.00  0.00    -0.159 OA 
HETATM   10  O   UNL     1      -8.959   4.741  68.150  1.00  0.00    -0.106 OA 
HETATM   11  C   UNL     1     -10.626   6.185  67.189  1.00  0.00    -0.305 C  
HETATM   12  C   UNL     1      -9.878   6.414  65.875  1.00  0.00     0.338 C  
HETATM   13  O   UNL     1     -11.549   7.249  67.432  1.00  0.00    -0.215 OA 
HETATM   14  H   UNL     1     -12.152   7.363  66.707  1.00  0.00     0.000 HD 
HETATM   15  H   UNL     1      -9.584   4.030  68.068  1.00  0.00     0.000 HD 
BRANCH   6  16
HETATM   16  C   UNL     1      -9.040   8.493  69.293  1.00  0.00    -0.153 C  
HETATM   17  C   UNL     1      -5.814  10.501  68.775  1.00  0.00    -0.040 A  
HETATM   18  C   UNL     1      -7.759   9.277  69.611  1.00  0.00    -0.087 A  
HETATM   19  C   UNL     1      -7.086   9.964  68.581  1.00  0.00    -0.071 A  
HETATM   20  C   UNL     1      -5.179  10.349  70.000  1.00  0.00    -0.039 A  
HETATM   21  C   UNL     1      -5.849   9.721  71.048  1.00  0.00    -0.082 A  
HETATM   22  O   UNL     1      -5.181   9.558  72.229  1.00  0.00    -0.074 OA 
HETATM   23  C   UNL     1      -7.160   9.233  70.882  1.00  0.00    -0.110 A  
HETATM   24  H   UNL     1      -5.638   9.129  72.942  1.00  0.00     0.000 HD 
HETATM   25  C   UNL     1      -7.943   8.723  72.046  1.00  0.00     0.014 C  
HETATM   26  O   UNL     1      -7.540   8.907  73.188  1.00  0.00    -0.366 OA 
HETATM   27  C   UNL     1      -9.289   8.127  71.818  1.00  0.00    -0.241 A  
HETATM   28  C   UNL     1      -9.858   8.198  70.542  1.00  0.00    -0.194 A  
HETATM   29  C   UNL     1     -11.217   7.867  70.404  1.00  0.00    -0.240 A  
HETATM   30  C   UNL     1     -11.932   7.213  71.411  1.00  0.00    -0.364 A  
HETATM   31  C   UNL     1     -11.327   7.071  72.657  1.00  0.00    -0.290 A  
HETATM   32  H   UNL     1     -10.006   7.039  74.826  1.00  0.00     0.000 HD 
HETATM   33  O   UNL     1      -9.502   7.422  74.117  1.00  0.00    -0.249 OA 
HETATM   34  C   UNL     1     -10.037   7.560  72.870  1.00  0.00    -0.261 A  
BRANCH  30  35
HETATM   35  C   UNL     1     -13.273   6.602  71.099  1.00  0.00     0.219 C  
HETATM   36  O   UNL     1     -14.219   6.998  72.089  1.00  0.00    -0.601 OA 
HETATM   37  H   UNL     1     -15.064   6.613  71.892  1.00  0.00     0.000 HD 
ENDBRANCH  30  35
ENDBRANCH   6  16
ENDBRANCH   2   4
TORSDOF 3
ENDMDL
MODEL       85
REMARK 921   NORMALIZED FREE ENERGY PREDICTED BY IDOCK:   -3.47 KCAL/MOL
REMARK 922        TOTAL FREE ENERGY PREDICTED BY IDOCK:   -4.74 KCAL/MOL
REMARK 923 INTER-LIGAND FREE ENERGY PREDICTED BY IDOCK:   -4.64 KCAL/MOL
REMARK 924 INTRA-LIGAND FREE ENERGY PREDICTED BY IDOCK:   -0.09 KCAL/MOL
REMARK 927      BINDING AFFINITY PREDICTED BY RF-SCORE:    0.00 PKD
ROOT
HETATM    1  O   UNL     1      -7.697   7.892  71.134  1.00  0.00    -0.080 OA 
HETATM    2  C   UNL     1      -7.912   9.229  70.708  1.00  0.00    -0.154 C  
HETATM    3  H   UNL     1      -8.478   7.477  71.480  1.00  0.00     0.000 HD 
ENDROOT
BRANCH   2   4
HETATM    4  C   UNL     1      -6.649   9.901  70.147  1.00  0.00    -0.102 C  
HETATM    5  O   UNL     1      -6.232   9.239  68.936  1.00  0.00    -0.043 OA 
HETATM    6  C   UNL     1      -6.798   9.640  67.664  1.00  0.00    -0.082 C  
HETATM    7  H   UNL     1      -5.461  12.945  70.157  1.00  0.00     0.000 HD 
HETATM    8  C   UNL     1      -6.792  11.191  67.545  1.00  0.00    -0.086 C  
HETATM    9  O   UNL     1      -5.413  11.998  70.206  1.00  0.00    -0.102 OA 
HETATM   10  O   UNL     1      -5.434  11.682  67.405  1.00  0.00    -0.059 OA 
HETATM   11  C   UNL     1      -7.401  11.895  68.773  1.00  0.00    -0.105 C  
HETATM   12  C   UNL     1      -6.727  11.439  70.068  1.00  0.00     0.043 C  
HETATM   13  O   UNL     1      -8.815  11.696  68.847  1.00  0.00    -0.360 OA 
HETATM   14  H   UNL     1      -9.191  12.130  69.604  1.00  0.00     0.000 HD 
HETATM   15  H   UNL     1      -5.429  12.630  67.333  1.00  0.00     0.000 HD 
BRANCH   6  16
HETATM   16  C   UNL     1      -8.113   8.821  67.252  1.00  0.00    -0.101 C  
HETATM   17  C   UNL     1      -6.875   5.288  68.084  1.00  0.00    -0.060 A  
HETATM   18  C   UNL     1      -7.719   7.348  67.073  1.00  0.00    -0.111 A  
HETATM   19  C   UNL     1      -7.442   6.556  68.205  1.00  0.00    -0.095 A  
HETATM   20  C   UNL     1      -6.555   4.790  66.829  1.00  0.00    -0.050 A  
HETATM   21  C   UNL     1      -6.871   5.534  65.694  1.00  0.00    -0.064 A  
HETATM   22  O   UNL     1      -6.511   5.029  64.476  1.00  0.00    -0.036 OA 
HETATM   23  C   UNL     1      -7.505   6.787  65.801  1.00  0.00    -0.085 A  
HETATM   24  H   UNL     1      -6.726   5.537  63.703  1.00  0.00     0.000 HD 
HETATM   25  C   UNL     1      -8.004   7.502  64.590  1.00  0.00    -0.133 C  
HETATM   26  O   UNL     1      -8.054   6.925  63.511  1.00  0.00    -0.094 OA 
HETATM   27  C   UNL     1      -8.583   8.867  64.733  1.00  0.00    -0.184 A  
HETATM   28  C   UNL     1      -8.791   9.388  66.013  1.00  0.00    -0.185 A  
HETATM   29  C   UNL     1      -9.566  10.554  66.136  1.00  0.00    -0.237 A  
HETATM   30  C   UNL     1      -9.891  11.354  65.037  1.00  0.00    -0.304 A  
HETATM   31  C   UNL     1      -9.606  10.865  63.764  1.00  0.00    -0.331 A  
HETATM   32  H   UNL     1      -9.044   9.679  61.590  1.00  0.00     0.000 HD 
HETATM   33  O   UNL     1      -8.766   9.173  62.344  1.00  0.00    -0.213 OA 
HETATM   34  C   UNL     1      -8.996   9.618  63.613  1.00  0.00    -0.216 A  
BRANCH  30  35
HETATM   35  C   UNL     1     -10.440  12.739  65.256  1.00  0.00    -0.292 C  
HETATM   36  O   UNL     1     -10.260  13.516  64.075  1.00  0.00    -0.723 OA 
HETATM   37  H   UNL     1     -10.606  14.390  64.213  1.00  0.00     0.000 HD 
ENDBRANCH  30  35
ENDBRANCH   6  16
ENDBRANCH   2   4
TORSDOF 3
ENDMDL
MODEL       86
REMARK 921   NORMALIZED FREE ENERGY PREDICTED BY IDOCK:   -3.43 KCAL/MOL
REMARK 922        TOTAL FREE ENERGY PREDICTED BY IDOCK:   -4.68 KCAL/MOL
REMARK 923 INTER-LIGAND FREE ENERGY PREDICTED BY IDOCK:   -4.59 KCAL/MOL
REMARK 924 INTRA-LIGAND FREE ENERGY PREDICTED BY IDOCK:   -0.10 KCAL/MOL
REMARK 927      BINDING AFFINITY PREDICTED BY RF-SCORE:    0.00 PKD
ROOT
HETATM    1  O   UNL     1     -11.653  15.621  64.024  1.00  0.00    -0.859 OA 
HETATM    2  C   UNL     1     -10.807  15.818  65.147  1.00  0.00    -0.428 C  
HETATM    3  H   UNL     1     -11.252  15.877  63.201  1.00  0.00     0.000 HD 
ENDROOT
BRANCH   2   4
HETATM    4  C   UNL     1     -11.455  15.405  66.478  1.00  0.00    -0.015 C  
HETATM    5  O   UNL     1     -11.185  14.015  66.749  1.00  0.00    -0.301 OA 
HETATM    6  C   UNL     1      -9.962  13.638  67.429  1.00  0.00    -0.234 C  
HETATM    7  H   UNL     1     -12.110  16.931  69.292  1.00  0.00     0.000 HD 
HETATM    8  C   UNL     1      -9.736  14.556  68.664  1.00  0.00    -0.221 C  
HETATM    9  O   UNL     1     -12.278  16.334  68.572  1.00  0.00     0.156 OA 
HETATM   10  O   UNL     1     -10.717  14.272  69.693  1.00  0.00    -0.427 OA 
HETATM   11  C   UNL     1      -9.853  16.056  68.332  1.00  0.00    -0.213 C  
HETATM   12  C   UNL     1     -11.183  16.373  67.647  1.00  0.00    -0.072 C  
HETATM   13  O   UNL     1      -8.757  16.507  67.532  1.00  0.00    -0.181 OA 
HETATM   14  H   UNL     1      -8.829  17.432  67.327  1.00  0.00     0.000 HD 
HETATM   15  H   UNL     1     -10.580  14.833  70.447  1.00  0.00     0.000 HD 
BRANCH   6  16
HETATM   16  C   UNL     1      -8.740  13.327  66.440  1.00  0.00     0.198 C  
HETATM   17  C   UNL     1     -10.722  11.791  63.539  1.00  0.00    -0.501 A  
HETATM   18  C   UNL     1      -9.219  12.308  65.396  1.00  0.00     0.226 A  
HETATM   19  C   UNL     1     -10.094  12.717  64.370  1.00  0.00    -0.281 A  
HETATM   20  C   UNL     1     -10.503  10.433  63.725  1.00  0.00     0.371 A  
HETATM   21  C   UNL     1      -9.600  10.011  64.699  1.00  0.00    -0.297 A  
HETATM   22  O   UNL     1      -9.435   8.666  64.878  1.00  0.00    -0.317 OA 
HETATM   23  C   UNL     1      -8.909  10.940  65.500  1.00  0.00    -0.199 A  
HETATM   24  H   UNL     1      -8.819   8.378  65.542  1.00  0.00     0.000 HD 
HETATM   25  C   UNL     1      -7.814  10.502  66.415  1.00  0.00    -0.138 C  
HETATM   26  O   UNL     1      -7.363   9.366  66.335  1.00  0.00    -0.091 OA 
HETATM   27  C   UNL     1      -7.171  11.499  67.316  1.00  0.00    -0.132 A  
HETATM   28  C   UNL     1      -7.497  12.852  67.178  1.00  0.00    -0.016 A  
HETATM   29  C   UNL     1      -6.702  13.796  67.850  1.00  0.00    -0.162 A  
HETATM   30  C   UNL     1      -5.799  13.432  68.853  1.00  0.00    -0.076 A  
HETATM   31  C   UNL     1      -5.541  12.077  69.043  1.00  0.00    -0.052 A  
HETATM   32  H   UNL     1      -5.216   9.559  69.094  1.00  0.00     0.000 HD 
HETATM   33  O   UNL     1      -5.878   9.811  68.461  1.00  0.00    -0.040 OA 
HETATM   34  C   UNL     1      -6.189  11.123  68.255  1.00  0.00    -0.049 A  
BRANCH  30  35
HETATM   35  C   UNL     1      -5.215  14.490  69.752  1.00  0.00    -0.092 C  
HETATM   36  O   UNL     1      -6.265  15.282  70.302  1.00  0.00    -0.147 OA 
HETATM   37  H   UNL     1      -5.897  15.949  70.869  1.00  0.00     0.000 HD 
ENDBRANCH  30  35
ENDBRANCH   6  16
ENDBRANCH   2   4
TORSDOF 3
ENDMDL
MODEL       87
REMARK 921   NORMALIZED FREE ENERGY PREDICTED BY IDOCK:   -3.37 KCAL/MOL
REMARK 922        TOTAL FREE ENERGY PREDICTED BY IDOCK:   -4.61 KCAL/MOL
REMARK 923 INTER-LIGAND FREE ENERGY PREDICTED BY IDOCK:   -4.62 KCAL/MOL
REMARK 924 INTRA-LIGAND FREE ENERGY PREDICTED BY IDOCK:    0.00 KCAL/MOL
REMARK 927      BINDING AFFINITY PREDICTED BY RF-SCORE:    0.00 PKD
ROOT
HETATM    1  O   UNL     1      -6.691  11.951  69.602  1.00  0.00    -0.259 OA 
HETATM    2  C   UNL     1      -6.990  10.612  69.241  1.00  0.00    -0.096 C  
HETATM    3  H   UNL     1      -5.911  12.033  70.136  1.00  0.00     0.000 HD 
ENDROOT
BRANCH   2   4
HETATM    4  C   UNL     1      -8.253  10.479  68.376  1.00  0.00    -0.121 C  
HETATM    5  O   UNL     1      -8.313   9.167  67.783  1.00  0.00    -0.116 OA 
HETATM    6  C   UNL     1      -8.914   8.071  68.518  1.00  0.00    -0.133 C  
HETATM    7  H   UNL     1     -11.270  11.729  68.499  1.00  0.00     0.000 HD 
HETATM    8  C   UNL     1     -10.268   8.525  69.134  1.00  0.00    -0.211 C  
HETATM    9  O   UNL     1     -10.471  11.435  68.076  1.00  0.00    -0.178 OA 
HETATM   10  O   UNL     1     -11.256   8.728  68.091  1.00  0.00    -0.390 OA 
HETATM   11  C   UNL     1     -10.163   9.847  69.919  1.00  0.00    -0.257 C  
HETATM   12  C   UNL     1      -9.549  10.956  69.063  1.00  0.00    -0.156 C  
HETATM   13  O   UNL     1      -9.425   9.683  71.132  1.00  0.00    -0.304 OA 
HETATM   14  H   UNL     1      -9.360  10.498  71.616  1.00  0.00     0.000 HD 
HETATM   15  H   UNL     1     -12.083   9.006  68.467  1.00  0.00     0.000 HD 
BRANCH   6  16
HETATM   16  C   UNL     1      -7.874   7.244  69.414  1.00  0.00    -0.122 C  
HETATM   17  C   UNL     1      -5.312   6.394  66.690  1.00  0.00    -0.013 A  
HETATM   18  C   UNL     1      -6.985   6.419  68.473  1.00  0.00    -0.080 A  
HETATM   19  C   UNL     1      -5.990   7.061  67.710  1.00  0.00    -0.029 A  
HETATM   20  C   UNL     1      -5.626   5.074  66.400  1.00  0.00    -0.017 A  
HETATM   21  C   UNL     1      -6.568   4.404  67.178  1.00  0.00    -0.046 A  
HETATM   22  O   UNL     1      -6.878   3.117  66.842  1.00  0.00    -0.050 OA 
HETATM   23  C   UNL     1      -7.211   5.048  68.253  1.00  0.00    -0.063 A  
HETATM   24  H   UNL     1      -7.520   2.661  67.372  1.00  0.00     0.000 HD 
HETATM   25  C   UNL     1      -8.082   4.287  69.195  1.00  0.00    -0.067 C  
HETATM   26  O   UNL     1      -8.092   3.062  69.172  1.00  0.00    -0.055 OA 
HETATM   27  C   UNL     1      -8.821   5.018  70.262  1.00  0.00    -0.143 A  
HETATM   28  C   UNL     1      -8.564   6.378  70.459  1.00  0.00    -0.143 A  
HETATM   29  C   UNL     1      -9.069   6.986  71.621  1.00  0.00    -0.139 A  
HETATM   30  C   UNL     1     -10.034   6.373  72.424  1.00  0.00    -0.183 A  
HETATM   31  C   UNL     1     -10.348   5.041  72.171  1.00  0.00    -0.276 A  
HETATM   32  H   UNL     1     -10.644   2.602  71.524  1.00  0.00     0.000 HD 
HETATM   33  O   UNL     1     -10.039   3.046  70.940  1.00  0.00     0.059 OA 
HETATM   34  C   UNL     1      -9.718   4.359  71.127  1.00  0.00    -0.186 A  
BRANCH  30  35
HETATM   35  C   UNL     1     -10.768   7.184  73.461  1.00  0.00    -0.333 C  
HETATM   36  O   UNL     1     -11.749   7.997  72.822  1.00  0.00    -0.512 OA 
HETATM   37  H   UNL     1     -12.212   8.508  73.476  1.00  0.00     0.000 HD 
ENDBRANCH  30  35
ENDBRANCH   6  16
ENDBRANCH   2   4
TORSDOF 3
ENDMDL
MODEL       88
REMARK 921   NORMALIZED FREE ENERGY PREDICTED BY IDOCK:   -3.30 KCAL/MOL
REMARK 922        TOTAL FREE ENERGY PREDICTED BY IDOCK:   -4.53 KCAL/MOL
REMARK 923 INTER-LIGAND FREE ENERGY PREDICTED BY IDOCK:   -5.02 KCAL/MOL
REMARK 924 INTRA-LIGAND FREE ENERGY PREDICTED BY IDOCK:    0.50 KCAL/MOL
REMARK 927      BINDING AFFINITY PREDICTED BY RF-SCORE:    0.00 PKD
ROOT
HETATM    1  O   UNL     1     -10.044  18.494  68.284  1.00  0.00    -0.354 OA 
HETATM    2  C   UNL     1      -9.711  17.116  68.353  1.00  0.00    -0.284 C  
HETATM    3  H   UNL     1     -10.748  18.681  67.675  1.00  0.00     0.000 HD 
ENDROOT
BRANCH   2   4
HETATM    4  C   UNL     1      -8.571  16.813  69.338  1.00  0.00     0.201 C  
HETATM    5  O   UNL     1      -8.808  15.554  69.998  1.00  0.00    -0.033 OA 
HETATM    6  C   UNL     1      -8.365  14.320  69.379  1.00  0.00     0.336 C  
HETATM    7  H   UNL     1      -5.373  17.478  69.435  1.00  0.00     0.000 HD 
HETATM    8  C   UNL     1      -6.904  14.476  68.870  1.00  0.00    -0.099 C  
HETATM    9  O   UNL     1      -6.244  17.364  69.796  1.00  0.00    -0.250 OA 
HETATM   10  O   UNL     1      -5.985  14.564  69.989  1.00  0.00    -0.118 OA 
HETATM   11  C   UNL     1      -6.693  15.740  68.014  1.00  0.00    -0.132 C  
HETATM   12  C   UNL     1      -7.156  16.997  68.752  1.00  0.00    -0.219 C  
HETATM   13  O   UNL     1      -7.346  15.634  66.747  1.00  0.00    -0.153 OA 
HETATM   14  H   UNL     1      -7.216  16.412  66.219  1.00  0.00     0.000 HD 
HETATM   15  H   UNL     1      -5.092  14.660  69.679  1.00  0.00     0.000 HD 
BRANCH   6  16
HETATM   16  C   UNL     1      -9.465  13.639  68.432  1.00  0.00    -0.190 C  
HETATM   17  C   UNL     1     -12.609  15.179  69.997  1.00  0.00    -0.263 A  
HETATM   18  C   UNL     1     -10.827  13.746  69.131  1.00  0.00    -0.205 A  
HETATM   19  C   UNL     1     -11.486  14.990  69.192  1.00  0.00    -0.320 A  
HETATM   20  C   UNL     1     -13.088  14.133  70.772  1.00  0.00    -0.289 A  
HETATM   21  C   UNL     1     -12.484  12.880  70.685  1.00  0.00    -0.252 A  
HETATM   22  O   UNL     1     -12.961  11.882  71.488  1.00  0.00    -0.409 OA 
HETATM   23  C   UNL     1     -11.391  12.660  69.825  1.00  0.00    -0.108 A  
HETATM   24  H   UNL     1     -12.549  11.029  71.428  1.00  0.00     0.000 HD 
HETATM   25  C   UNL     1     -10.859  11.285  69.595  1.00  0.00    -0.095 C  
HETATM   26  O   UNL     1     -11.485  10.309  69.986  1.00  0.00    -0.260 OA 
HETATM   27  C   UNL     1      -9.643  11.103  68.754  1.00  0.00    -0.180 A  
HETATM   28  C   UNL     1      -9.115  12.203  68.071  1.00  0.00    -0.190 A  
HETATM   29  C   UNL     1      -8.136  11.966  67.091  1.00  0.00    -0.172 A  
HETATM   30  C   UNL     1      -7.479  10.739  66.974  1.00  0.00    -0.114 A  
HETATM   31  C   UNL     1      -7.957   9.665  67.720  1.00  0.00    -0.105 A  
HETATM   32  H   UNL     1      -9.102   7.891  69.132  1.00  0.00     0.000 HD 
HETATM   33  O   UNL     1      -9.500   8.745  69.256  1.00  0.00    -0.158 OA 
HETATM   34  C   UNL     1      -9.052   9.835  68.570  1.00  0.00    -0.128 A  
BRANCH  30  35
HETATM   35  C   UNL     1      -6.232  10.636  66.134  1.00  0.00    -0.125 C  
HETATM   36  O   UNL     1      -6.549  10.923  64.774  1.00  0.00    -0.357 OA 
HETATM   37  H   UNL     1      -5.763  10.858  64.244  1.00  0.00     0.000 HD 
ENDBRANCH  30  35
ENDBRANCH   6  16
ENDBRANCH   2   4
TORSDOF 3
ENDMDL
MODEL       89
REMARK 921   NORMALIZED FREE ENERGY PREDICTED BY IDOCK:   -3.19 KCAL/MOL
REMARK 922        TOTAL FREE ENERGY PREDICTED BY IDOCK:   -4.40 KCAL/MOL
REMARK 923 INTER-LIGAND FREE ENERGY PREDICTED BY IDOCK:   -4.04 KCAL/MOL
REMARK 924 INTRA-LIGAND FREE ENERGY PREDICTED BY IDOCK:   -0.37 KCAL/MOL
REMARK 927      BINDING AFFINITY PREDICTED BY RF-SCORE:    0.00 PKD
ROOT
HETATM    1  O   UNL     1      -8.364   3.880  66.638  1.00  0.00    -0.103 OA 
HETATM    2  C   UNL     1      -8.554   4.388  67.950  1.00  0.00    -0.102 C  
HETATM    3  H   UNL     1      -7.600   3.321  66.557  1.00  0.00     0.000 HD 
ENDROOT
BRANCH   2   4
HETATM    4  C   UNL     1      -9.790   5.292  68.080  1.00  0.00    -0.150 C  
HETATM    5  O   UNL     1      -9.674   6.124  69.251  1.00  0.00    -0.134 OA 
HETATM    6  C   UNL     1      -8.974   7.391  69.169  1.00  0.00    -0.135 C  
HETATM    7  H   UNL     1     -11.840   6.710  65.967  1.00  0.00     0.000 HD 
HETATM    8  C   UNL     1      -9.438   8.173  67.907  1.00  0.00    -0.146 C  
HETATM    9  O   UNL     1     -11.598   6.258  66.767  1.00  0.00     0.081 OA 
HETATM   10  O   UNL     1     -10.806   8.628  68.070  1.00  0.00    -0.458 OA 
HETATM   11  C   UNL     1      -9.395   7.327  66.620  1.00  0.00    -0.171 C  
HETATM   12  C   UNL     1     -10.182   6.026  66.782  1.00  0.00    -0.214 C  
HETATM   13  O   UNL     1      -8.052   7.053  66.214  1.00  0.00    -0.106 OA 
HETATM   14  H   UNL     1      -8.025   6.532  65.420  1.00  0.00     0.000 HD 
HETATM   15  H   UNL     1     -11.091   9.106  67.299  1.00  0.00     0.000 HD 
BRANCH   6  16
HETATM   16  C   UNL     1      -7.409   7.290  69.506  1.00  0.00    -0.086 C  
HETATM   17  C   UNL     1      -7.612   4.855  72.461  1.00  0.00    -0.091 A  
HETATM   18  C   UNL     1      -7.263   6.726  70.926  1.00  0.00    -0.073 A  
HETATM   19  C   UNL     1      -7.519   5.361  71.165  1.00  0.00    -0.085 A  
HETATM   20  C   UNL     1      -7.468   5.706  73.548  1.00  0.00    -0.091 A  
HETATM   21  C   UNL     1      -7.161   7.048  73.333  1.00  0.00    -0.073 A  
HETATM   22  O   UNL     1      -7.061   7.864  74.424  1.00  0.00    -0.122 OA 
HETATM   23  C   UNL     1      -6.999   7.556  72.030  1.00  0.00    -0.063 A  
HETATM   24  H   UNL     1      -6.853   8.779  74.278  1.00  0.00     0.000 HD 
HETATM   25  C   UNL     1      -6.498   8.943  71.802  1.00  0.00    -0.063 C  
HETATM   26  O   UNL     1      -6.028   9.588  72.731  1.00  0.00    -0.303 OA 
HETATM   27  C   UNL     1      -6.430   9.478  70.413  1.00  0.00    -0.079 A  
HETATM   28  C   UNL     1      -6.690   8.621  69.340  1.00  0.00    -0.049 A  
HETATM   29  C   UNL     1      -6.374   9.066  68.045  1.00  0.00    -0.055 A  
HETATM   30  C   UNL     1      -6.084  10.405  67.766  1.00  0.00    -0.052 A  
HETATM   31  C   UNL     1      -5.908  11.274  68.840  1.00  0.00    -0.043 A  
HETATM   32  H   UNL     1      -5.565  12.588  70.986  1.00  0.00     0.000 HD 
HETATM   33  O   UNL     1      -5.828  11.692  71.165  1.00  0.00    -0.381 OA 
HETATM   34  C   UNL     1      -6.039  10.807  70.149  1.00  0.00    -0.118 A  
BRANCH  30  35
HETATM   35  C   UNL     1      -6.068  10.885  66.339  1.00  0.00    -0.131 C  
HETATM   36  O   UNL     1      -5.365  12.122  66.260  1.00  0.00    -0.440 OA 
HETATM   37  H   UNL     1      -5.355  12.425  65.359  1.00  0.00     0.000 HD 
ENDBRANCH  30  35
ENDBRANCH   6  16
ENDBRANCH   2   4
TORSDOF 3
ENDMDL
MODEL       90
REMARK 921   NORMALIZED FREE ENERGY PREDICTED BY IDOCK:   -3.13 KCAL/MOL
REMARK 922        TOTAL FREE ENERGY PREDICTED BY IDOCK:   -4.33 KCAL/MOL
REMARK 923 INTER-LIGAND FREE ENERGY PREDICTED BY IDOCK:   -4.56 KCAL/MOL
REMARK 924 INTRA-LIGAND FREE ENERGY PREDICTED BY IDOCK:    0.23 KCAL/MOL
REMARK 927      BINDING AFFINITY PREDICTED BY RF-SCORE:    0.00 PKD
ROOT
HETATM    1  O   UNL     1      -7.590   5.440  70.922  1.00  0.00    -0.084 OA 
HETATM    2  C   UNL     1      -7.954   6.805  71.065  1.00  0.00    -0.103 C  
HETATM    3  H   UNL     1      -6.705   5.254  71.211  1.00  0.00     0.000 HD 
ENDROOT
BRANCH   2   4
HETATM    4  C   UNL     1      -9.387   7.106  70.598  1.00  0.00    -0.158 C  
HETATM    5  O   UNL     1      -9.359   7.885  69.386  1.00  0.00    -0.152 OA 
HETATM    6  C   UNL     1      -9.269   7.219  68.102  1.00  0.00    -0.132 C  
HETATM    7  H   UNL     1     -12.249   5.541  70.791  1.00  0.00     0.000 HD 
HETATM    8  C   UNL     1     -10.278   6.037  68.045  1.00  0.00    -0.181 C  
HETATM    9  O   UNL     1     -11.673   6.297  70.805  1.00  0.00    -0.340 OA 
HETATM   10  O   UNL     1     -11.640   6.536  67.997  1.00  0.00    -0.598 OA 
HETATM   11  C   UNL     1     -10.185   5.101  69.266  1.00  0.00    -0.206 C  
HETATM   12  C   UNL     1     -10.321   5.879  70.576  1.00  0.00    -0.235 C  
HETATM   13  O   UNL     1      -8.973   4.343  69.257  1.00  0.00    -0.087 OA 
HETATM   14  H   UNL     1      -8.915   3.766  70.009  1.00  0.00     0.000 HD 
HETATM   15  H   UNL     1     -12.257   5.814  67.962  1.00  0.00     0.000 HD 
BRANCH   6  16
HETATM   16  C   UNL     1      -7.766   7.001  67.589  1.00  0.00    -0.112 C  
HETATM   17  C   UNL     1      -6.207  10.212  68.991  1.00  0.00    -0.043 A  
HETATM   18  C   UNL     1      -7.044   8.355  67.638  1.00  0.00    -0.083 A  
HETATM   19  C   UNL     1      -6.662   8.899  68.881  1.00  0.00    -0.053 A  
HETATM   20  C   UNL     1      -6.139  11.017  67.862  1.00  0.00    -0.049 A  
HETATM   21  C   UNL     1      -6.460  10.482  66.616  1.00  0.00    -0.086 A  
HETATM   22  O   UNL     1      -6.415  11.313  65.532  1.00  0.00    -0.354 OA 
HETATM   23  C   UNL     1      -6.858   9.137  66.485  1.00  0.00    -0.080 A  
HETATM   24  H   UNL     1      -6.635  10.948  64.684  1.00  0.00     0.000 HD 
HETATM   25  C   UNL     1      -7.029   8.515  65.139  1.00  0.00    -0.075 C  
HETATM   26  O   UNL     1      -6.632   9.096  64.137  1.00  0.00    -0.086 OA 
HETATM   27  C   UNL     1      -7.542   7.120  65.038  1.00  0.00    -0.104 A  
HETATM   28  C   UNL     1      -7.706   6.368  66.206  1.00  0.00    -0.099 A  
HETATM   29  C   UNL     1      -7.942   4.989  66.078  1.00  0.00    -0.107 A  
HETATM   30  C   UNL     1      -8.293   4.402  64.859  1.00  0.00    -0.118 A  
HETATM   31  C   UNL     1      -8.207   5.180  63.708  1.00  0.00    -0.126 A  
HETATM   32  H   UNL     1      -7.873   6.813  61.791  1.00  0.00     0.000 HD 
HETATM   33  O   UNL     1      -7.701   7.223  62.631  1.00  0.00    -0.108 OA 
HETATM   34  C   UNL     1      -7.797   6.513  63.792  1.00  0.00    -0.107 A  
BRANCH  30  35
HETATM   35  C   UNL     1      -8.840   2.999  64.836  1.00  0.00    -0.122 C  
HETATM   36  O   UNL     1     -10.253   3.041  64.652  1.00  0.00    -0.371 OA 
HETATM   37  H   UNL     1     -10.598   2.156  64.638  1.00  0.00     0.000 HD 
ENDBRANCH  30  35
ENDBRANCH   6  16
ENDBRANCH   2   4
TORSDOF 3
ENDMDL
MODEL       91
REMARK 921   NORMALIZED FREE ENERGY PREDICTED BY IDOCK:   -3.09 KCAL/MOL
REMARK 922        TOTAL FREE ENERGY PREDICTED BY IDOCK:   -4.28 KCAL/MOL
REMARK 923 INTER-LIGAND FREE ENERGY PREDICTED BY IDOCK:   -4.48 KCAL/MOL
REMARK 924 INTRA-LIGAND FREE ENERGY PREDICTED BY IDOCK:    0.20 KCAL/MOL
REMARK 927      BINDING AFFINITY PREDICTED BY RF-SCORE:    0.00 PKD
ROOT
HETATM    1  O   UNL     1     -11.070   5.295  72.795  1.00  0.00    -0.257 OA 
HETATM    2  C   UNL     1     -10.353   6.427  73.263  1.00  0.00    -0.233 C  
HETATM    3  H   UNL     1     -10.592   4.480  72.891  1.00  0.00     0.000 HD 
ENDROOT
BRANCH   2   4
HETATM    4  C   UNL     1     -11.127   7.746  73.108  1.00  0.00    -0.275 C  
HETATM    5  O   UNL     1     -10.244   8.787  72.646  1.00  0.00    -0.188 OA 
HETATM    6  C   UNL     1     -10.013   8.959  71.225  1.00  0.00    -0.288 C  
HETATM    7  H   UNL     1     -14.200   8.535  72.327  1.00  0.00     0.000 HD 
HETATM    8  C   UNL     1     -11.366   8.922  70.459  1.00  0.00    -0.234 C  
HETATM    9  O   UNL     1     -13.380   8.614  72.800  1.00  0.00    -0.296 OA 
HETATM   10  O   UNL     1     -12.147  10.109  70.753  1.00  0.00    -0.297 OA 
HETATM   11  C   UNL     1     -12.238   7.706  70.829  1.00  0.00    -0.083 C  
HETATM   12  C   UNL     1     -12.458   7.617  72.339  1.00  0.00    -0.073 C  
HETATM   13  O   UNL     1     -11.681   6.487  70.330  1.00  0.00    -0.393 OA 
HETATM   14  H   UNL     1     -12.219   5.738  70.558  1.00  0.00     0.000 HD 
HETATM   15  H   UNL     1     -12.974  10.086  70.286  1.00  0.00     0.000 HD 
BRANCH   6  16
HETATM   16  C   UNL     1      -8.764   8.125  70.665  1.00  0.00    -0.136 C  
HETATM   17  C   UNL     1      -6.035   9.580  72.933  1.00  0.00     0.331 A  
HETATM   18  C   UNL     1      -7.478   8.840  71.103  1.00  0.00    -0.115 A  
HETATM   19  C   UNL     1      -7.065   8.774  72.448  1.00  0.00     0.042 A  
HETATM   20  C   UNL     1      -5.407  10.482  72.086  1.00  0.00     0.227 A  
HETATM   21  C   UNL     1      -5.764  10.525  70.740  1.00  0.00    -0.100 A  
HETATM   22  O   UNL     1      -5.149  11.449  69.944  1.00  0.00    -0.052 OA 
HETATM   23  C   UNL     1      -6.756   9.669  70.225  1.00  0.00    -0.099 A  
HETATM   24  H   UNL     1      -5.392  11.478  69.026  1.00  0.00     0.000 HD 
HETATM   25  C   UNL     1      -7.014   9.585  68.758  1.00  0.00    -0.067 C  
HETATM   26  O   UNL     1      -6.236  10.103  67.966  1.00  0.00    -0.055 OA 
HETATM   27  C   UNL     1      -8.135   8.741  68.258  1.00  0.00    -0.114 A  
HETATM   28  C   UNL     1      -8.824   7.923  69.158  1.00  0.00    -0.142 A  
HETATM   29  C   UNL     1      -9.697   6.952  68.636  1.00  0.00    -0.136 A  
HETATM   30  C   UNL     1     -10.109   6.961  67.301  1.00  0.00    -0.256 A  
HETATM   31  C   UNL     1      -9.475   7.838  66.425  1.00  0.00    -0.245 A  
HETATM   32  H   UNL     1      -8.089   9.474  65.063  1.00  0.00     0.000 HD 
HETATM   33  O   UNL     1      -7.862   9.508  65.985  1.00  0.00    -0.099 OA 
HETATM   34  C   UNL     1      -8.471   8.690  66.890  1.00  0.00    -0.112 A  
BRANCH  30  35
HETATM   35  C   UNL     1     -11.274   6.108  66.873  1.00  0.00    -0.071 C  
HETATM   36  O   UNL     1     -10.922   5.370  65.706  1.00  0.00    -0.668 OA 
HETATM   37  H   UNL     1     -11.657   4.832  65.436  1.00  0.00     0.000 HD 
ENDBRANCH  30  35
ENDBRANCH   6  16
ENDBRANCH   2   4
TORSDOF 3
ENDMDL
MODEL       92
REMARK 921   NORMALIZED FREE ENERGY PREDICTED BY IDOCK:   -2.86 KCAL/MOL
REMARK 922        TOTAL FREE ENERGY PREDICTED BY IDOCK:   -4.02 KCAL/MOL
REMARK 923 INTER-LIGAND FREE ENERGY PREDICTED BY IDOCK:   -3.94 KCAL/MOL
REMARK 924 INTRA-LIGAND FREE ENERGY PREDICTED BY IDOCK:   -0.08 KCAL/MOL
REMARK 927      BINDING AFFINITY PREDICTED BY RF-SCORE:    0.00 PKD
ROOT
HETATM    1  O   UNL     1     -10.168  19.338  70.066  1.00  0.00    -0.203 OA 
HETATM    2  C   UNL     1      -9.549  18.153  69.591  1.00  0.00     0.592 C  
HETATM    3  H   UNL     1     -10.614  19.223  70.897  1.00  0.00     0.000 HD 
ENDROOT
BRANCH   2   4
HETATM    4  C   UNL     1      -8.826  18.339  68.248  1.00  0.00    -0.287 C  
HETATM    5  O   UNL     1      -7.927  17.238  68.011  1.00  0.00    -0.203 OA 
HETATM    6  C   UNL     1      -8.419  16.029  67.379  1.00  0.00    -0.168 C  
HETATM    7  H   UNL     1      -9.603  19.710  65.385  1.00  0.00     0.000 HD 
HETATM    8  C   UNL     1      -9.279  16.393  66.135  1.00  0.00    -0.330 C  
HETATM    9  O   UNL     1      -9.032  19.487  66.110  1.00  0.00    -0.360 OA 
HETATM   10  O   UNL     1      -8.441  16.930  65.080  1.00  0.00     0.993 OA 
HETATM   11  C   UNL     1     -10.360  17.450  66.435  1.00  0.00    -0.317 C  
HETATM   12  C   UNL     1      -9.753  18.702  67.070  1.00  0.00    -0.308 C  
HETATM   13  O   UNL     1     -11.399  16.922  67.261  1.00  0.00     0.128 OA 
HETATM   14  H   UNL     1     -12.066  17.573  67.446  1.00  0.00     0.000 HD 
HETATM   15  H   UNL     1      -8.966  17.153  64.320  1.00  0.00     0.000 HD 
BRANCH   6  16
HETATM   16  C   UNL     1      -8.950  14.926  68.414  1.00  0.00    -0.183 C  
HETATM   17  C   UNL     1      -5.976  14.924  70.834  1.00  0.00    -0.013 A  
HETATM   18  C   UNL     1      -7.752  14.423  69.231  1.00  0.00    -0.002 A  
HETATM   19  C   UNL     1      -7.188  15.247  70.224  1.00  0.00     0.266 A  
HETATM   20  C   UNL     1      -5.293  13.778  70.452  1.00  0.00    -0.116 A  
HETATM   21  C   UNL     1      -5.861  12.922  69.511  1.00  0.00    -0.104 A  
HETATM   22  O   UNL     1      -5.145  11.821  69.133  1.00  0.00    -0.048 OA 
HETATM   23  C   UNL     1      -7.115  13.204  68.937  1.00  0.00    -0.075 A  
HETATM   24  H   UNL     1      -5.531  11.238  68.491  1.00  0.00     0.000 HD 
HETATM   25  C   UNL     1      -7.805  12.205  68.068  1.00  0.00    -0.145 C  
HETATM   26  O   UNL     1      -7.391  11.054  68.004  1.00  0.00    -0.084 OA 
HETATM   27  C   UNL     1      -9.085  12.575  67.402  1.00  0.00    -0.185 A  
HETATM   28  C   UNL     1      -9.695  13.791  67.726  1.00  0.00    -0.230 A  
HETATM   29  C   UNL     1     -11.014  14.007  67.291  1.00  0.00    -0.303 A  
HETATM   30  C   UNL     1     -11.625  13.197  66.330  1.00  0.00    -0.399 A  
HETATM   31  C   UNL     1     -10.973  12.027  65.949  1.00  0.00    -0.342 A  
HETATM   32  H   UNL     1      -9.593   9.937  65.522  1.00  0.00     0.000 HD 
HETATM   33  O   UNL     1      -9.154  10.527  66.124  1.00  0.00    -0.155 OA 
HETATM   34  C   UNL     1      -9.736  11.699  66.509  1.00  0.00    -0.206 A  
BRANCH  30  35
HETATM   35  C   UNL     1     -12.901  13.651  65.671  1.00  0.00    -0.371 C  
HETATM   36  O   UNL     1     -13.398  12.614  64.830  1.00  0.00    -0.787 OA 
HETATM   37  H   UNL     1     -14.203  12.900  64.414  1.00  0.00     0.000 HD 
ENDBRANCH  30  35
ENDBRANCH   6  16
ENDBRANCH   2   4
TORSDOF 3
ENDMDL
MODEL       93
REMARK 921   NORMALIZED FREE ENERGY PREDICTED BY IDOCK:   -2.80 KCAL/MOL
REMARK 922        TOTAL FREE ENERGY PREDICTED BY IDOCK:   -3.95 KCAL/MOL
REMARK 923 INTER-LIGAND FREE ENERGY PREDICTED BY IDOCK:   -3.79 KCAL/MOL
REMARK 924 INTRA-LIGAND FREE ENERGY PREDICTED BY IDOCK:   -0.16 KCAL/MOL
REMARK 927      BINDING AFFINITY PREDICTED BY RF-SCORE:    0.00 PKD
ROOT
HETATM    1  O   UNL     1      -9.564   8.666  71.944  1.00  0.00    -0.256 OA 
HETATM    2  C   UNL     1      -9.121   7.776  70.932  1.00  0.00    -0.148 C  
HETATM    3  H   UNL     1     -10.498   8.618  72.106  1.00  0.00     0.000 HD 
ENDROOT
BRANCH   2   4
HETATM    4  C   UNL     1      -7.608   7.853  70.671  1.00  0.00    -0.077 C  
HETATM    5  O   UNL     1      -7.234   6.914  69.644  1.00  0.00    -0.076 OA 
HETATM    6  C   UNL     1      -7.317   7.300  68.249  1.00  0.00    -0.100 C  
HETATM    7  H   UNL     1      -5.365  10.225  70.811  1.00  0.00     0.000 HD 
HETATM    8  C   UNL     1      -6.685   8.707  68.049  1.00  0.00    -0.069 C  
HETATM    9  O   UNL     1      -5.700   9.343  70.923  1.00  0.00    -0.043 OA 
HETATM   10  O   UNL     1      -5.246   8.646  68.229  1.00  0.00    -0.033 OA 
HETATM   11  C   UNL     1      -7.219   9.757  69.042  1.00  0.00    -0.076 C  
HETATM   12  C   UNL     1      -7.065   9.285  70.489  1.00  0.00    -0.100 C  
HETATM   13  O   UNL     1      -8.580  10.098  68.768  1.00  0.00    -0.119 OA 
HETATM   14  H   UNL     1      -8.910  10.745  69.379  1.00  0.00     0.000 HD 
HETATM   15  H   UNL     1      -4.860   9.505  68.108  1.00  0.00     0.000 HD 
BRANCH   6  16
HETATM   16  C   UNL     1      -8.727   6.961  67.565  1.00  0.00    -0.120 C  
HETATM   17  C   UNL     1      -9.519   3.718  69.452  1.00  0.00    -0.257 A  
HETATM   18  C   UNL     1      -9.040   5.482  67.827  1.00  0.00    -0.107 A  
HETATM   19  C   UNL     1      -9.437   5.069  69.115  1.00  0.00    -0.196 A  
HETATM   20  C   UNL     1      -9.191   2.750  68.514  1.00  0.00    -0.241 A  
HETATM   21  C   UNL     1      -8.848   3.136  67.220  1.00  0.00    -0.137 A  
HETATM   22  O   UNL     1      -8.497   2.158  66.332  1.00  0.00    -0.090 OA 
HETATM   23  C   UNL     1      -8.826   4.494  66.849  1.00  0.00    -0.112 A  
HETATM   24  H   UNL     1      -8.263   2.421  65.450  1.00  0.00     0.000 HD 
HETATM   25  C   UNL     1      -8.636   4.900  65.425  1.00  0.00    -0.138 C  
HETATM   26  O   UNL     1      -8.700   4.063  64.533  1.00  0.00    -0.116 OA 
HETATM   27  C   UNL     1      -8.523   6.345  65.085  1.00  0.00    -0.072 A  
HETATM   28  C   UNL     1      -8.752   7.300  66.081  1.00  0.00    -0.170 A  
HETATM   29  C   UNL     1      -8.895   8.642  65.692  1.00  0.00    -0.227 A  
HETATM   30  C   UNL     1      -8.542   9.091  64.416  1.00  0.00    -0.174 A  
HETATM   31  C   UNL     1      -8.234   8.138  63.449  1.00  0.00    -0.062 A  
HETATM   32  H   UNL     1      -7.809   6.178  61.890  1.00  0.00     0.000 HD 
HETATM   33  O   UNL     1      -7.983   5.886  62.777  1.00  0.00    -0.093 OA 
HETATM   34  C   UNL     1      -8.264   6.779  63.769  1.00  0.00     0.092 A  
BRANCH  30  35
HETATM   35  C   UNL     1      -8.412  10.568  64.153  1.00  0.00    -0.122 C  
HETATM   36  O   UNL     1      -8.883  11.297  65.284  1.00  0.00    -0.347 OA 
HETATM   37  H   UNL     1      -8.800  12.229  65.118  1.00  0.00     0.000 HD 
ENDBRANCH  30  35
ENDBRANCH   6  16
ENDBRANCH   2   4
TORSDOF 3
ENDMDL
MODEL       94
REMARK 921   NORMALIZED FREE ENERGY PREDICTED BY IDOCK:   -2.78 KCAL/MOL
REMARK 922        TOTAL FREE ENERGY PREDICTED BY IDOCK:   -3.92 KCAL/MOL
REMARK 923 INTER-LIGAND FREE ENERGY PREDICTED BY IDOCK:   -3.60 KCAL/MOL
REMARK 924 INTRA-LIGAND FREE ENERGY PREDICTED BY IDOCK:   -0.31 KCAL/MOL
REMARK 927      BINDING AFFINITY PREDICTED BY RF-SCORE:    0.00 PKD
ROOT
HETATM    1  O   UNL     1     -12.026  16.328  63.778  1.00  0.00    -1.409 OA 
HETATM    2  C   UNL     1     -11.005  16.845  64.616  1.00  0.00     0.235 C  
HETATM    3  H   UNL     1     -11.712  16.056  62.924  1.00  0.00     0.000 HD 
ENDROOT
BRANCH   2   4
HETATM    4  C   UNL     1     -11.514  17.284  65.998  1.00  0.00     1.348 C  
HETATM    5  O   UNL     1     -11.517  16.164  66.904  1.00  0.00     0.151 OA 
HETATM    6  C   UNL     1     -10.317  15.834  67.646  1.00  0.00    -0.281 C  
HETATM    7  H   UNL     1     -11.376  20.053  67.730  1.00  0.00     0.000 HD 
HETATM    8  C   UNL     1      -9.706  17.121  68.270  1.00  0.00    -0.280 C  
HETATM    9  O   UNL     1     -11.779  19.259  67.397  1.00  0.00     0.568 OA 
HETATM   10  O   UNL     1     -10.556  17.619  69.335  1.00  0.00    -0.404 OA 
HETATM   11  C   UNL     1      -9.541  18.267  67.253  1.00  0.00    -0.281 C  
HETATM   12  C   UNL     1     -10.859  18.572  66.538  1.00  0.00    -0.051 C  
HETATM   13  O   UNL     1      -8.510  17.984  66.303  1.00  0.00    -0.382 OA 
HETATM   14  H   UNL     1      -8.408  18.690  65.676  1.00  0.00     0.000 HD 
HETATM   15  H   UNL     1     -10.183  18.406  69.716  1.00  0.00     0.000 HD 
BRANCH   6  16
HETATM   16  C   UNL     1      -9.360  14.786  66.899  1.00  0.00    -0.256 C  
HETATM   17  C   UNL     1     -11.985  12.131  66.024  1.00  0.00    -0.236 A  
HETATM   18  C   UNL     1     -10.085  13.434  66.843  1.00  0.00    -0.255 A  
HETATM   19  C   UNL     1     -11.165  13.256  65.955  1.00  0.00    -0.309 A  
HETATM   20  C   UNL     1     -11.755  11.166  66.994  1.00  0.00     0.224 A  
HETATM   21  C   UNL     1     -10.661  11.296  67.847  1.00  0.00    -0.194 A  
HETATM   22  O   UNL     1     -10.484  10.345  68.812  1.00  0.00    -0.178 OA 
HETATM   23  C   UNL     1      -9.786  12.395  67.742  1.00  0.00    -0.203 A  
HETATM   24  H   UNL     1      -9.739  10.435  69.394  1.00  0.00     0.000 HD 
HETATM   25  C   UNL     1      -8.520  12.448  68.530  1.00  0.00    -0.069 C  
HETATM   26  O   UNL     1      -8.120  11.452  69.120  1.00  0.00    -0.057 OA 
HETATM   27  C   UNL     1      -7.668  13.668  68.466  1.00  0.00    -0.129 A  
HETATM   28  C   UNL     1      -7.990  14.676  67.553  1.00  0.00    -0.208 A  
HETATM   29  C   UNL     1      -7.044  15.691  67.325  1.00  0.00    -0.242 A  
HETATM   30  C   UNL     1      -5.942  15.885  68.162  1.00  0.00    -0.131 A  
HETATM   31  C   UNL     1      -5.674  14.917  69.127  1.00  0.00    -0.096 A  
HETATM   32  H   UNL     1      -5.394  12.958  70.719  1.00  0.00     0.000 HD 
HETATM   33  O   UNL     1      -6.179  12.868  70.190  1.00  0.00    -0.122 OA 
HETATM   34  C   UNL     1      -6.503  13.801  69.250  1.00  0.00    -0.112 A  
BRANCH  30  35
HETATM   35  C   UNL     1      -5.147  17.161  68.067  1.00  0.00    -0.117 C  
HETATM   36  O   UNL     1      -5.641  17.950  66.988  1.00  0.00    -0.129 OA 
HETATM   37  H   UNL     1      -5.140  18.755  66.928  1.00  0.00     0.000 HD 
ENDBRANCH  30  35
ENDBRANCH   6  16
ENDBRANCH   2   4
TORSDOF 3
ENDMDL
MODEL       95
REMARK 921   NORMALIZED FREE ENERGY PREDICTED BY IDOCK:   -2.71 KCAL/MOL
REMARK 922        TOTAL FREE ENERGY PREDICTED BY IDOCK:   -3.84 KCAL/MOL
REMARK 923 INTER-LIGAND FREE ENERGY PREDICTED BY IDOCK:   -4.35 KCAL/MOL
REMARK 924 INTRA-LIGAND FREE ENERGY PREDICTED BY IDOCK:    0.51 KCAL/MOL
REMARK 927      BINDING AFFINITY PREDICTED BY RF-SCORE:    0.00 PKD
ROOT
HETATM    1  O   UNL     1      -6.305   5.389  70.988  1.00  0.00    -0.031 OA 
HETATM    2  C   UNL     1      -6.311   5.415  72.407  1.00  0.00    -0.050 C  
HETATM    3  H   UNL     1      -5.476   5.106  70.620  1.00  0.00     0.000 HD 
ENDROOT
BRANCH   2   4
HETATM    4  C   UNL     1      -7.653   5.871  73.003  1.00  0.00    -0.095 C  
HETATM    5  O   UNL     1      -7.953   7.214  72.576  1.00  0.00    -0.095 OA 
HETATM    6  C   UNL     1      -8.638   7.435  71.317  1.00  0.00    -0.118 C  
HETATM    7  H   UNL     1     -10.436   4.370  73.828  1.00  0.00     0.000 HD 
HETATM    8  C   UNL     1      -9.852   6.470  71.197  1.00  0.00    -0.182 C  
HETATM    9  O   UNL     1      -9.729   4.997  73.926  1.00  0.00    -0.135 OA 
HETATM   10  O   UNL     1     -10.889   6.843  72.140  1.00  0.00    -0.216 OA 
HETATM   11  C   UNL     1      -9.488   5.001  71.485  1.00  0.00    -0.153 C  
HETATM   12  C   UNL     1      -8.800   4.853  72.843  1.00  0.00    -0.117 C  
HETATM   13  O   UNL     1      -8.676   4.445  70.448  1.00  0.00    -0.082 OA 
HETATM   14  H   UNL     1      -8.452   3.539  70.625  1.00  0.00     0.000 HD 
HETATM   15  H   UNL     1     -11.631   6.254  72.067  1.00  0.00     0.000 HD 
BRANCH   6  16
HETATM   16  C   UNL     1      -7.651   7.625  70.068  1.00  0.00    -0.087 C  
HETATM   17  C   UNL     1      -5.171  10.078  71.659  1.00  0.00    -0.070 A  
HETATM   18  C   UNL     1      -6.827   8.899  70.301  1.00  0.00    -0.045 A  
HETATM   19  C   UNL     1      -5.795   8.897  71.261  1.00  0.00    -0.050 A  
HETATM   20  C   UNL     1      -5.576  11.291  71.119  1.00  0.00     0.040 A  
HETATM   21  C   UNL     1      -6.557  11.309  70.130  1.00  0.00     0.002 A  
HETATM   22  O   UNL     1      -6.956  12.522  69.646  1.00  0.00    -0.339 OA 
HETATM   23  C   UNL     1      -7.147  10.115  69.672  1.00  0.00    -0.115 A  
HETATM   24  H   UNL     1      -7.625  12.534  68.972  1.00  0.00     0.000 HD 
HETATM   25  C   UNL     1      -8.063  10.112  68.494  1.00  0.00    -0.106 C  
HETATM   26  O   UNL     1      -8.157  11.107  67.785  1.00  0.00    -0.113 OA 
HETATM   27  C   UNL     1      -8.743   8.848  68.097  1.00  0.00    -0.134 A  
HETATM   28  C   UNL     1      -8.392   7.656  68.739  1.00  0.00    -0.129 A  
HETATM   29  C   UNL     1      -8.847   6.447  68.185  1.00  0.00    -0.114 A  
HETATM   30  C   UNL     1      -9.847   6.403  67.210  1.00  0.00    -0.169 A  
HETATM   31  C   UNL     1     -10.253   7.603  66.632  1.00  0.00    -0.272 A  
HETATM   32  H   UNL     1     -10.720   9.925  65.713  1.00  0.00     0.000 HD 
HETATM   33  O   UNL     1     -10.089   9.952  66.424  1.00  0.00    -0.228 OA 
HETATM   34  C   UNL     1      -9.678   8.808  67.043  1.00  0.00    -0.198 A  
BRANCH  30  35
HETATM   35  C   UNL     1     -10.517   5.093  66.885  1.00  0.00    -0.223 C  
HETATM   36  O   UNL     1     -11.450   5.285  65.825  1.00  0.00    -0.728 OA 
HETATM   37  H   UNL     1     -11.873   4.459  65.620  1.00  0.00     0.000 HD 
ENDBRANCH  30  35
ENDBRANCH   6  16
ENDBRANCH   2   4
TORSDOF 3
ENDMDL
MODEL       96
REMARK 921   NORMALIZED FREE ENERGY PREDICTED BY IDOCK:   -2.50 KCAL/MOL
REMARK 922        TOTAL FREE ENERGY PREDICTED BY IDOCK:   -3.59 KCAL/MOL
REMARK 923 INTER-LIGAND FREE ENERGY PREDICTED BY IDOCK:   -3.06 KCAL/MOL
REMARK 924 INTRA-LIGAND FREE ENERGY PREDICTED BY IDOCK:   -0.53 KCAL/MOL
REMARK 927      BINDING AFFINITY PREDICTED BY RF-SCORE:    0.00 PKD
ROOT
HETATM    1  O   UNL     1      -6.873  10.799  64.318  1.00  0.00    -0.345 OA 
HETATM    2  C   UNL     1      -7.446   9.545  64.652  1.00  0.00    -0.113 C  
HETATM    3  H   UNL     1      -6.071  10.726  63.815  1.00  0.00     0.000 HD 
ENDROOT
BRANCH   2   4
HETATM    4  C   UNL     1      -8.745   9.665  65.466  1.00  0.00    -0.153 C  
HETATM    5  O   UNL     1      -8.701   8.780  66.603  1.00  0.00    -0.119 OA 
HETATM    6  C   UNL     1      -8.091   9.226  67.840  1.00  0.00    -0.104 C  
HETATM    7  H   UNL     1     -10.866  12.075  66.076  1.00  0.00     0.000 HD 
HETATM    8  C   UNL     1      -8.596  10.653  68.197  1.00  0.00    -0.123 C  
HETATM    9  O   UNL     1     -10.601  11.182  65.888  1.00  0.00    -0.259 OA 
HETATM   10  O   UNL     1      -9.994  10.614  68.581  1.00  0.00    -0.166 OA 
HETATM   11  C   UNL     1      -8.479  11.647  67.025  1.00  0.00    -0.168 C  
HETATM   12  C   UNL     1      -9.174  11.115  65.771  1.00  0.00    -0.215 C  
HETATM   13  O   UNL     1      -7.115  11.971  66.743  1.00  0.00    -0.343 OA 
HETATM   14  H   UNL     1      -7.042  12.584  66.021  1.00  0.00     0.000 HD 
HETATM   15  H   UNL     1     -10.303  11.485  68.799  1.00  0.00     0.000 HD 
BRANCH   6  16
HETATM   16  C   UNL     1      -6.528   8.888  67.951  1.00  0.00    -0.057 C  
HETATM   17  C   UNL     1      -6.649   5.219  66.843  1.00  0.00    -0.053 A  
HETATM   18  C   UNL     1      -6.371   7.362  67.987  1.00  0.00    -0.048 A  
HETATM   19  C   UNL     1      -6.566   6.610  66.812  1.00  0.00    -0.048 A  
HETATM   20  C   UNL     1      -6.556   4.548  68.055  1.00  0.00    -0.043 A  
HETATM   21  C   UNL     1      -6.309   5.268  69.222  1.00  0.00    -0.034 A  
HETATM   22  O   UNL     1      -6.258   4.579  70.401  1.00  0.00    -0.020 OA 
HETATM   23  C   UNL     1      -6.157   6.668  69.192  1.00  0.00    -0.026 A  
HETATM   24  H   UNL     1      -6.090   5.070  71.196  1.00  0.00     0.000 HD 
HETATM   25  C   UNL     1      -5.717   7.419  70.404  1.00  0.00    -0.024 C  
HETATM   26  O   UNL     1      -5.287   6.817  71.380  1.00  0.00    -0.026 OA 
HETATM   27  C   UNL     1      -5.659   8.907  70.362  1.00  0.00    -0.030 A  
HETATM   28  C   UNL     1      -5.868   9.563  69.145  1.00  0.00    -0.035 A  
HETATM   29  C   UNL     1      -5.559  10.932  69.068  1.00  0.00    -0.040 A  
HETATM   30  C   UNL     1      -5.329  11.709  70.207  1.00  0.00    -0.111 A  
HETATM   31  C   UNL     1      -5.204  11.058  71.431  1.00  0.00    -0.036 A  
HETATM   32  H   UNL     1      -4.944   9.591  73.488  1.00  0.00     0.000 HD 
HETATM   33  O   UNL     1      -5.167   9.077  72.720  1.00  0.00    -0.060 OA 
HETATM   34  C   UNL     1      -5.327   9.669  71.502  1.00  0.00    -0.072 A  
BRANCH  30  35
HETATM   35  C   UNL     1      -5.320  13.211  70.096  1.00  0.00    -0.107 C  
HETATM   36  O   UNL     1      -6.207  13.618  69.057  1.00  0.00    -0.086 OA 
HETATM   37  H   UNL     1      -6.201  14.566  68.987  1.00  0.00     0.000 HD 
ENDBRANCH  30  35
ENDBRANCH   6  16
ENDBRANCH   2   4
TORSDOF 3
ENDMDL
MODEL       97
REMARK 921   NORMALIZED FREE ENERGY PREDICTED BY IDOCK:   -2.38 KCAL/MOL
REMARK 922        TOTAL FREE ENERGY PREDICTED BY IDOCK:   -3.44 KCAL/MOL
REMARK 923 INTER-LIGAND FREE ENERGY PREDICTED BY IDOCK:   -3.38 KCAL/MOL
REMARK 924 INTRA-LIGAND FREE ENERGY PREDICTED BY IDOCK:   -0.07 KCAL/MOL
REMARK 927      BINDING AFFINITY PREDICTED BY RF-SCORE:    0.00 PKD
ROOT
HETATM    1  O   UNL     1      -8.428   3.560  65.850  1.00  0.00    -0.107 OA 
HETATM    2  C   UNL     1      -8.259   4.496  66.903  1.00  0.00    -0.102 C  
HETATM    3  H   UNL     1      -7.609   3.201  65.530  1.00  0.00     0.000 HD 
ENDROOT
BRANCH   2   4
HETATM    4  C   UNL     1      -9.585   5.076  67.421  1.00  0.00    -0.145 C  
HETATM    5  O   UNL     1      -9.679   4.900  68.848  1.00  0.00    -0.150 OA 
HETATM    6  C   UNL     1      -9.102   5.890  69.737  1.00  0.00    -0.138 C  
HETATM    7  H   UNL     1     -11.521   7.552  66.525  1.00  0.00     0.000 HD 
HETATM    8  C   UNL     1      -9.500   7.319  69.270  1.00  0.00    -0.153 C  
HETATM    9  O   UNL     1     -11.324   6.678  66.842  1.00  0.00    -0.333 OA 
HETATM   10  O   UNL     1     -10.916   7.547  69.492  1.00  0.00    -0.360 OA 
HETATM   11  C   UNL     1      -9.234   7.563  67.772  1.00  0.00    -0.135 C  
HETATM   12  C   UNL     1      -9.903   6.495  66.906  1.00  0.00    -0.164 C  
HETATM   13  O   UNL     1      -7.835   7.633  67.490  1.00  0.00    -0.114 OA 
HETATM   14  H   UNL     1      -7.670   7.784  66.567  1.00  0.00     0.000 HD 
HETATM   15  H   UNL     1     -11.160   8.420  69.207  1.00  0.00     0.000 HD 
BRANCH   6  16
HETATM   16  C   UNL     1      -7.582   5.586  70.145  1.00  0.00    -0.074 C  
HETATM   17  C   UNL     1      -7.970   1.894  71.108  1.00  0.00    -0.049 A  
HETATM   18  C   UNL     1      -7.562   4.302  70.986  1.00  0.00    -0.059 A  
HETATM   19  C   UNL     1      -7.763   3.054  70.363  1.00  0.00    -0.043 A  
HETATM   20  C   UNL     1      -7.997   1.958  72.494  1.00  0.00    -0.052 A  
HETATM   21  C   UNL     1      -7.746   3.172  73.131  1.00  0.00    -0.060 A  
HETATM   22  O   UNL     1      -7.815   3.205  74.495  1.00  0.00    -0.059 OA 
HETATM   23  C   UNL     1      -7.470   4.337  72.389  1.00  0.00    -0.073 A  
HETATM   24  H   UNL     1      -7.644   4.032  74.929  1.00  0.00     0.000 HD 
HETATM   25  C   UNL     1      -7.027   5.591  73.065  1.00  0.00    -0.080 C  
HETATM   26  O   UNL     1      -6.701   5.572  74.246  1.00  0.00    -0.074 OA 
HETATM   27  C   UNL     1      -6.837   6.829  72.259  1.00  0.00    -0.063 A  
HETATM   28  C   UNL     1      -6.925   6.755  70.866  1.00  0.00    -0.067 A  
HETATM   29  C   UNL     1      -6.494   7.862  70.114  1.00  0.00    -0.037 A  
HETATM   30  C   UNL     1      -6.253   9.110  70.696  1.00  0.00    -0.051 A  
HETATM   31  C   UNL     1      -6.248   9.195  72.085  1.00  0.00     0.047 A  
HETATM   32  H   UNL     1      -6.220   9.020  74.619  1.00  0.00     0.000 HD 
HETATM   33  O   UNL     1      -6.450   8.191  74.215  1.00  0.00    -0.106 OA 
HETATM   34  C   UNL     1      -6.496   8.059  72.859  1.00  0.00    -0.078 A  
BRANCH  30  35
HETATM   35  C   UNL     1      -6.107  10.326  69.820  1.00  0.00    -0.054 C  
HETATM   36  O   UNL     1      -7.039  11.323  70.229  1.00  0.00    -0.445 OA 
HETATM   37  H   UNL     1      -6.947  12.091  69.677  1.00  0.00     0.000 HD 
ENDBRANCH  30  35
ENDBRANCH   6  16
ENDBRANCH   2   4
TORSDOF 3
ENDMDL
MODEL       98
REMARK 921   NORMALIZED FREE ENERGY PREDICTED BY IDOCK:   -2.17 KCAL/MOL
REMARK 922        TOTAL FREE ENERGY PREDICTED BY IDOCK:   -3.21 KCAL/MOL
REMARK 923 INTER-LIGAND FREE ENERGY PREDICTED BY IDOCK:   -3.71 KCAL/MOL
REMARK 924 INTRA-LIGAND FREE ENERGY PREDICTED BY IDOCK:    0.50 KCAL/MOL
REMARK 927      BINDING AFFINITY PREDICTED BY RF-SCORE:    0.00 PKD
ROOT
HETATM    1  O   UNL     1      -5.802   7.746  71.788  1.00  0.00    -0.035 OA 
HETATM    2  C   UNL     1      -5.671   6.499  72.452  1.00  0.00    -0.038 C  
HETATM    3  H   UNL     1      -4.994   8.048  71.390  1.00  0.00     0.000 HD 
ENDROOT
BRANCH   2   4
HETATM    4  C   UNL     1      -6.979   6.010  73.095  1.00  0.00    -0.084 C  
HETATM    5  O   UNL     1      -8.112   6.549  72.385  1.00  0.00    -0.102 OA 
HETATM    6  C   UNL     1      -8.630   5.855  71.222  1.00  0.00    -0.129 C  
HETATM    7  H   UNL     1      -7.900   3.295  74.664  1.00  0.00     0.000 HD 
HETATM    8  C   UNL     1      -8.767   4.337  71.527  1.00  0.00    -0.112 C  
HETATM    9  O   UNL     1      -7.870   4.230  74.496  1.00  0.00    -0.085 OA 
HETATM   10  O   UNL     1      -9.836   4.106  72.480  1.00  0.00    -0.142 OA 
HETATM   11  C   UNL     1      -7.487   3.722  72.128  1.00  0.00    -0.057 C  
HETATM   12  C   UNL     1      -7.027   4.493  73.366  1.00  0.00    -0.065 C  
HETATM   13  O   UNL     1      -6.435   3.648  71.163  1.00  0.00    -0.021 OA 
HETATM   14  H   UNL     1      -5.646   3.270  71.533  1.00  0.00     0.000 HD 
HETATM   15  H   UNL     1      -9.919   3.178  72.667  1.00  0.00     0.000 HD 
BRANCH   6  16
HETATM   16  C   UNL     1      -7.973   6.329  69.839  1.00  0.00    -0.115 C  
HETATM   17  C   UNL     1      -8.665  10.090  70.129  1.00  0.00    -0.032 A  
HETATM   18  C   UNL     1      -8.510   7.729  69.511  1.00  0.00    -0.131 A  
HETATM   19  C   UNL     1      -8.051   8.843  70.241  1.00  0.00    -0.125 A  
HETATM   20  C   UNL     1      -9.763  10.247  69.295  1.00  0.00    -0.240 A  
HETATM   21  C   UNL     1     -10.199   9.172  68.524  1.00  0.00    -0.198 A  
HETATM   22  O   UNL     1     -11.305   9.353  67.741  1.00  0.00    -0.446 OA 
HETATM   23  C   UNL     1      -9.545   7.926  68.579  1.00  0.00    -0.153 A  
HETATM   24  H   UNL     1     -11.602   8.620  67.215  1.00  0.00     0.000 HD 
HETATM   25  C   UNL     1      -9.895   6.831  67.627  1.00  0.00    -0.128 C  
HETATM   26  O   UNL     1     -10.606   7.062  66.658  1.00  0.00    -0.239 OA 
HETATM   27  C   UNL     1      -9.250   5.497  67.778  1.00  0.00    -0.110 A  
HETATM   28  C   UNL     1      -8.217   5.340  68.708  1.00  0.00    -0.089 A  
HETATM   29  C   UNL     1      -7.454   4.162  68.658  1.00  0.00    -0.055 A  
HETATM   30  C   UNL     1      -7.855   3.043  67.922  1.00  0.00    -0.067 A  
HETATM   31  C   UNL     1      -8.938   3.182  67.058  1.00  0.00    -0.181 A  
HETATM   32  H   UNL     1     -10.875   3.762  65.520  1.00  0.00     0.000 HD 
HETATM   33  O   UNL     1     -10.638   4.497  66.073  1.00  0.00    -0.269 OA 
HETATM   34  C   UNL     1      -9.602   4.406  66.956  1.00  0.00    -0.198 A  
BRANCH  30  35
HETATM   35  C   UNL     1      -7.182   1.716  68.152  1.00  0.00    -0.043 C  
HETATM   36  O   UNL     1      -5.783   1.918  68.340  1.00  0.00    -0.018 OA 
HETATM   37  H   UNL     1      -5.358   1.081  68.485  1.00  0.00     0.000 HD 
ENDBRANCH  30  35
ENDBRANCH   6  16
ENDBRANCH   2   4
TORSDOF 3
ENDMDL
MODEL       99
REMARK 921   NORMALIZED FREE ENERGY PREDICTED BY IDOCK:   -2.09 KCAL/MOL
REMARK 922        TOTAL FREE ENERGY PREDICTED BY IDOCK:   -3.11 KCAL/MOL
REMARK 923 INTER-LIGAND FREE ENERGY PREDICTED BY IDOCK:   -5.13 KCAL/MOL
REMARK 924 INTRA-LIGAND FREE ENERGY PREDICTED BY IDOCK:    2.02 KCAL/MOL
REMARK 927      BINDING AFFINITY PREDICTED BY RF-SCORE:    0.00 PKD
ROOT
HETATM    1  O   UNL     1     -11.902  10.357  67.496  1.00  0.00    -0.440 OA 
HETATM    2  C   UNL     1     -11.664  11.731  67.758  1.00  0.00    -0.267 C  
HETATM    3  H   UNL     1     -11.518   9.777  68.143  1.00  0.00     0.000 HD 
ENDROOT
BRANCH   2   4
HETATM    4  C   UNL     1     -12.287  12.668  66.711  1.00  0.00     0.254 C  
HETATM    5  O   UNL     1     -12.234  14.032  67.174  1.00  0.00    -0.419 OA 
HETATM    6  C   UNL     1     -11.050  14.831  66.928  1.00  0.00    -0.339 C  
HETATM    7  H   UNL     1     -12.504  12.659  63.451  1.00  0.00     0.000 HD 
HETATM    8  C   UNL     1     -10.598  14.671  65.449  1.00  0.00    -0.374 C  
HETATM    9  O   UNL     1     -12.812  12.801  64.338  1.00  0.00    -0.700 OA 
HETATM   10  O   UNL     1     -11.548  15.311  64.557  1.00  0.00    -0.552 OA 
HETATM   11  C   UNL     1     -10.486  13.199  65.006  1.00  0.00    -0.342 C  
HETATM   12  C   UNL     1     -11.786  12.437  65.271  1.00  0.00    -0.390 C  
HETATM   13  O   UNL     1      -9.383  12.542  65.634  1.00  0.00    -0.444 OA 
HETATM   14  H   UNL     1      -9.314  11.635  65.362  1.00  0.00     0.000 HD 
HETATM   15  H   UNL     1     -11.273  15.213  63.653  1.00  0.00     0.000 HD 
BRANCH   6  16
HETATM   16  C   UNL     1      -9.960  14.753  68.101  1.00  0.00    -0.221 C  
HETATM   17  C   UNL     1     -12.073  12.932  70.732  1.00  0.00    -0.252 A  
HETATM   18  C   UNL     1     -10.696  14.466  69.417  1.00  0.00    -0.184 A  
HETATM   19  C   UNL     1     -11.217  13.179  69.660  1.00  0.00    -0.088 A  
HETATM   20  C   UNL     1     -12.443  13.970  71.576  1.00  0.00    -0.407 A  
HETATM   21  C   UNL     1     -11.897  15.238  71.385  1.00  0.00    -0.372 A  
HETATM   22  O   UNL     1     -12.309  16.244  72.213  1.00  0.00    -0.474 OA 
HETATM   23  C   UNL     1     -10.978  15.483  70.346  1.00  0.00    -0.360 A  
HETATM   24  H   UNL     1     -11.937  17.108  72.082  1.00  0.00     0.000 HD 
HETATM   25  C   UNL     1     -10.258  16.787  70.248  1.00  0.00     0.669 C  
HETATM   26  O   UNL     1     -10.299  17.584  71.178  1.00  0.00     2.029 OA 
HETATM   27  C   UNL     1      -9.367  17.045  69.083  1.00  0.00    -0.088 A  
HETATM   28  C   UNL     1      -9.101  16.007  68.185  1.00  0.00    -0.187 A  
HETATM   29  C   UNL     1      -8.069  16.189  67.249  1.00  0.00    -0.202 A  
HETATM   30  C   UNL     1      -7.502  17.441  66.997  1.00  0.00    -0.229 A  
HETATM   31  C   UNL     1      -7.836  18.494  67.846  1.00  0.00    -0.268 A  
HETATM   32  H   UNL     1      -8.564  20.182  69.598  1.00  0.00     0.000 HD 
HETATM   33  O   UNL     1      -8.996  19.344  69.721  1.00  0.00     0.256 OA 
HETATM   34  C   UNL     1      -8.726  18.288  68.901  1.00  0.00    -0.120 A  
BRANCH  30  35
HETATM   35  C   UNL     1      -6.640  17.640  65.778  1.00  0.00    -0.129 C  
HETATM   36  O   UNL     1      -6.956  18.889  65.169  1.00  0.00    -0.490 OA 
HETATM   37  H   UNL     1      -6.411  19.014  64.401  1.00  0.00     0.000 HD 
ENDBRANCH  30  35
ENDBRANCH   6  16
ENDBRANCH   2   4
TORSDOF 3
ENDMDL
MODEL      100
REMARK 921   NORMALIZED FREE ENERGY PREDICTED BY IDOCK:   -2.00 KCAL/MOL
REMARK 922        TOTAL FREE ENERGY PREDICTED BY IDOCK:   -3.01 KCAL/MOL
REMARK 923 INTER-LIGAND FREE ENERGY PREDICTED BY IDOCK:   -3.35 KCAL/MOL
REMARK 924 INTRA-LIGAND FREE ENERGY PREDICTED BY IDOCK:    0.34 KCAL/MOL
REMARK 927      BINDING AFFINITY PREDICTED BY RF-SCORE:    0.00 PKD
ROOT
HETATM    1  O   UNL     1     -10.759  11.224  70.199  1.00  0.00    -0.386 OA 
HETATM    2  C   UNL     1      -9.416  11.170  69.744  1.00  0.00     0.867 C  
HETATM    3  H   UNL     1     -10.917  11.916  70.830  1.00  0.00     0.000 HD 
ENDROOT
BRANCH   2   4
HETATM    4  C   UNL     1      -9.162  10.051  68.723  1.00  0.00    -0.159 C  
HETATM    5  O   UNL     1      -8.435   8.971  69.341  1.00  0.00    -0.112 OA 
HETATM    6  C   UNL     1      -9.154   7.927  70.043  1.00  0.00    -0.152 C  
HETATM    7  H   UNL     1     -10.771   8.897  66.122  1.00  0.00     0.000 HD 
HETATM    8  C   UNL     1     -10.356   7.440  69.185  1.00  0.00    -0.208 C  
HETATM    9  O   UNL     1     -10.004   9.154  66.622  1.00  0.00    -0.228 OA 
HETATM   10  O   UNL     1      -9.885   6.711  68.022  1.00  0.00    -0.128 OA 
HETATM   11  C   UNL     1     -11.236   8.593  68.667  1.00  0.00     0.492 C  
HETATM   12  C   UNL     1     -10.406   9.633  67.912  1.00  0.00    -0.224 C  
HETATM   13  O   UNL     1     -11.972   9.212  69.726  1.00  0.00    -0.264 OA 
HETATM   14  H   UNL     1     -12.515   9.923  69.407  1.00  0.00     0.000 HD 
HETATM   15  H   UNL     1     -10.619   6.414  67.497  1.00  0.00     0.000 HD 
BRANCH   6  16
HETATM   16  C   UNL     1      -9.365   8.222  71.605  1.00  0.00    -0.254 C  
HETATM   17  C   UNL     1      -5.703   8.802  72.583  1.00  0.00    -0.079 A  
HETATM   18  C   UNL     1      -8.013   8.048  72.310  1.00  0.00    -0.161 A  
HETATM   19  C   UNL     1      -7.008   9.022  72.145  1.00  0.00     0.147 A  
HETATM   20  C   UNL     1      -5.368   7.595  73.181  1.00  0.00    -0.041 A  
HETATM   21  C   UNL     1      -6.359   6.640  73.402  1.00  0.00    -0.064 A  
HETATM   22  O   UNL     1      -5.988   5.450  73.961  1.00  0.00    -0.048 OA 
HETATM   23  C   UNL     1      -7.694   6.879  73.024  1.00  0.00    -0.091 A  
HETATM   24  H   UNL     1      -6.663   4.799  74.111  1.00  0.00     0.000 HD 
HETATM   25  C   UNL     1      -8.785   5.940  73.418  1.00  0.00    -0.120 C  
HETATM   26  O   UNL     1      -8.571   5.060  74.244  1.00  0.00    -0.113 OA 
HETATM   27  C   UNL     1     -10.169   6.174  72.920  1.00  0.00    -0.206 A  
HETATM   28  C   UNL     1     -10.451   7.353  72.222  1.00  0.00    -0.260 A  
HETATM   29  C   UNL     1     -11.798   7.677  71.987  1.00  0.00    -0.342 A  
HETATM   30  C   UNL     1     -12.830   6.752  72.166  1.00  0.00    -0.093 A  
HETATM   31  C   UNL     1     -12.527   5.544  72.788  1.00  0.00     0.332 A  
HETATM   32  H   UNL     1     -11.689   3.484  74.015  1.00  0.00     0.000 HD 
HETATM   33  O   UNL     1     -10.981   4.090  73.828  1.00  0.00    -0.236 OA 
HETATM   34  C   UNL     1     -11.219   5.275  73.197  1.00  0.00    -0.318 A  
BRANCH  30  35
HETATM   35  C   UNL     1     -14.197   7.040  71.603  1.00  0.00    -0.276 C  
HETATM   36  O   UNL     1     -14.232   8.370  71.092  1.00  0.00    -0.624 OA 
HETATM   37  H   UNL     1     -15.094   8.552  70.737  1.00  0.00     0.000 HD 
ENDBRANCH  30  35
ENDBRANCH   6  16
ENDBRANCH   2   4
TORSDOF 3
ENDMDL
MODEL      101
REMARK 921   NORMALIZED FREE ENERGY PREDICTED BY IDOCK:   -1.92 KCAL/MOL
REMARK 922        TOTAL FREE ENERGY PREDICTED BY IDOCK:   -2.91 KCAL/MOL
REMARK 923 INTER-LIGAND FREE ENERGY PREDICTED BY IDOCK:   -3.19 KCAL/MOL
REMARK 924 INTRA-LIGAND FREE ENERGY PREDICTED BY IDOCK:    0.28 KCAL/MOL
REMARK 927      BINDING AFFINITY PREDICTED BY RF-SCORE:    0.00 PKD
ROOT
HETATM    1  O   UNL     1      -7.645  14.976  66.121  1.00  0.00     0.361 OA 
HETATM    2  C   UNL     1      -8.399  15.570  67.166  1.00  0.00    -0.214 C  
HETATM    3  H   UNL     1      -6.790  14.671  66.399  1.00  0.00     0.000 HD 
ENDROOT
BRANCH   2   4
HETATM    4  C   UNL     1      -9.783  16.063  66.715  1.00  0.00    -0.239 C  
HETATM    5  O   UNL     1     -10.780  15.059  66.987  1.00  0.00    -0.291 OA 
HETATM    6  C   UNL     1     -11.416  15.008  68.289  1.00  0.00    -0.332 C  
HETATM    7  H   UNL     1     -11.239  18.983  66.528  1.00  0.00     0.000 HD 
HETATM    8  C   UNL     1     -11.855  16.436  68.721  1.00  0.00     0.093 C  
HETATM    9  O   UNL     1     -11.023  18.104  66.240  1.00  0.00    -0.050 OA 
HETATM   10  O   UNL     1     -12.957  16.898  67.898  1.00  0.00     2.345 OA 
HETATM   11  C   UNL     1     -10.729  17.480  68.593  1.00  0.00    -0.201 C  
HETATM   12  C   UNL     1     -10.135  17.490  67.184  1.00  0.00    -0.321 C  
HETATM   13  O   UNL     1      -9.704  17.272  69.568  1.00  0.00     0.009 OA 
HETATM   14  H   UNL     1      -9.009  17.915  69.490  1.00  0.00     0.000 HD 
HETATM   15  H   UNL     1     -13.225  17.770  68.161  1.00  0.00     0.000 HD 
BRANCH   6  16
HETATM   16  C   UNL     1     -10.666  14.058  69.340  1.00  0.00    -0.085 C  
HETATM   17  C   UNL     1      -9.084  11.593  66.866  1.00  0.00    -0.188 A  
HETATM   18  C   UNL     1     -10.326  12.739  68.633  1.00  0.00    -0.194 A  
HETATM   19  C   UNL     1      -9.284  12.703  67.685  1.00  0.00    -0.191 A  
HETATM   20  C   UNL     1      -9.933  10.499  66.964  1.00  0.00    -0.244 A  
HETATM   21  C   UNL     1     -10.936  10.493  67.932  1.00  0.00    -0.295 A  
HETATM   22  O   UNL     1     -11.775   9.415  67.978  1.00  0.00     0.081 OA 
HETATM   23  C   UNL     1     -11.104  11.581  68.810  1.00  0.00    -0.288 A  
HETATM   24  H   UNL     1     -12.458   9.411  68.637  1.00  0.00     0.000 HD 
HETATM   25  C   UNL     1     -12.054  11.503  69.958  1.00  0.00    -0.331 C  
HETATM   26  O   UNL     1     -12.549  10.429  70.275  1.00  0.00    -0.280 OA 
HETATM   27  C   UNL     1     -12.277  12.707  70.807  1.00  0.00    -0.331 A  
HETATM   28  C   UNL     1     -11.477  13.837  70.609  1.00  0.00     0.158 A  
HETATM   29  C   UNL     1     -11.522  14.857  71.575  1.00  0.00    -0.307 A  
HETATM   30  C   UNL     1     -12.520  14.916  72.552  1.00  0.00    -0.432 A  
HETATM   31  C   UNL     1     -13.368  13.820  72.690  1.00  0.00    -0.618 A  
HETATM   32  H   UNL     1     -14.695  11.655  72.755  1.00  0.00     0.000 HD 
HETATM   33  O   UNL     1     -14.058  11.652  72.050  1.00  0.00     0.349 OA 
HETATM   34  C   UNL     1     -13.221  12.711  71.854  1.00  0.00    -0.403 A  
BRANCH  30  35
HETATM   35  C   UNL     1     -12.711  16.179  73.349  1.00  0.00    -0.527 C  
HETATM   36  O   UNL     1     -11.811  17.180  72.879  1.00  0.00    -0.220 OA 
HETATM   37  H   UNL     1     -11.932  17.977  73.382  1.00  0.00     0.000 HD 
ENDBRANCH  30  35
ENDBRANCH   6  16
ENDBRANCH   2   4
TORSDOF 3
ENDMDL
MODEL      102
REMARK 921   NORMALIZED FREE ENERGY PREDICTED BY IDOCK:   -1.77 KCAL/MOL
REMARK 922        TOTAL FREE ENERGY PREDICTED BY IDOCK:   -2.73 KCAL/MOL
REMARK 923 INTER-LIGAND FREE ENERGY PREDICTED BY IDOCK:   -3.73 KCAL/MOL
REMARK 924 INTRA-LIGAND FREE ENERGY PREDICTED BY IDOCK:    1.00 KCAL/MOL
REMARK 927      BINDING AFFINITY PREDICTED BY RF-SCORE:    0.00 PKD
ROOT
HETATM    1  O   UNL     1     -12.060   8.625  70.102  1.00  0.00    -0.352 OA 
HETATM    2  C   UNL     1     -10.896   7.998  70.616  1.00  0.00    -0.234 C  
HETATM    3  H   UNL     1     -12.860   8.151  70.294  1.00  0.00     0.000 HD 
ENDROOT
BRANCH   2   4
HETATM    4  C   UNL     1      -9.602   8.766  70.307  1.00  0.00    -0.177 C  
HETATM    5  O   UNL     1      -8.547   7.845  69.967  1.00  0.00    -0.132 OA 
HETATM    6  C   UNL     1      -8.398   7.392  68.598  1.00  0.00    -0.129 C  
HETATM    7  H   UNL     1      -8.911  11.691  69.023  1.00  0.00     0.000 HD 
HETATM    8  C   UNL     1      -8.487   8.602  67.626  1.00  0.00    -0.125 C  
HETATM    9  O   UNL     1      -8.800  10.960  69.620  1.00  0.00     0.123 OA 
HETATM   10  O   UNL     1      -7.315   9.447  67.762  1.00  0.00    -0.082 OA 
HETATM   11  C   UNL     1      -9.717   9.494  67.880  1.00  0.00    -0.147 C  
HETATM   12  C   UNL     1      -9.782   9.953  69.338  1.00  0.00    -0.214 C  
HETATM   13  O   UNL     1     -10.931   8.837  67.508  1.00  0.00    -0.482 OA 
HETATM   14  H   UNL     1     -11.690   9.386  67.664  1.00  0.00     0.000 HD 
HETATM   15  H   UNL     1      -7.369  10.187  67.168  1.00  0.00     0.000 HD 
BRANCH   6  16
HETATM   16  C   UNL     1      -9.210   6.050  68.267  1.00  0.00    -0.117 C  
HETATM   17  C   UNL     1      -9.863   4.870  71.857  1.00  0.00    -0.241 A  
HETATM   18  C   UNL     1      -9.201   5.166  69.522  1.00  0.00    -0.163 A  
HETATM   19  C   UNL     1     -10.002   5.513  70.628  1.00  0.00    -0.270 A  
HETATM   20  C   UNL     1      -8.907   3.876  72.014  1.00  0.00    -0.130 A  
HETATM   21  C   UNL     1      -8.142   3.481  70.918  1.00  0.00    -0.064 A  
HETATM   22  O   UNL     1      -7.187   2.524  71.117  1.00  0.00    -0.032 OA 
HETATM   23  C   UNL     1      -8.321   4.077  69.655  1.00  0.00    -0.077 A  
HETATM   24  H   UNL     1      -6.665   2.255  70.370  1.00  0.00     0.000 HD 
HETATM   25  C   UNL     1      -7.634   3.536  68.446  1.00  0.00    -0.056 C  
HETATM   26  O   UNL     1      -7.069   2.450  68.492  1.00  0.00    -0.043 OA 
HETATM   27  C   UNL     1      -7.771   4.250  67.146  1.00  0.00    -0.092 A  
HETATM   28  C   UNL     1      -8.663   5.322  67.048  1.00  0.00    -0.107 A  
HETATM   29  C   UNL     1      -8.970   5.814  65.767  1.00  0.00    -0.144 A  
HETATM   30  C   UNL     1      -8.221   5.472  64.638  1.00  0.00    -0.130 A  
HETATM   31  C   UNL     1      -7.274   4.459  64.761  1.00  0.00    -0.070 A  
HETATM   32  H   UNL     1      -5.696   2.536  65.273  1.00  0.00     0.000 HD 
HETATM   33  O   UNL     1      -6.161   2.821  66.051  1.00  0.00    -0.023 OA 
HETATM   34  C   UNL     1      -7.080   3.827  65.991  1.00  0.00    -0.063 A  
BRANCH  30  35
HETATM   35  C   UNL     1      -8.386   6.262  63.366  1.00  0.00     0.109 C  
HETATM   36  O   UNL     1      -7.327   7.210  63.253  1.00  0.00    -0.068 OA 
HETATM   37  H   UNL     1      -7.431   7.708  62.450  1.00  0.00     0.000 HD 
ENDBRANCH  30  35
ENDBRANCH   6  16
ENDBRANCH   2   4
TORSDOF 3
ENDMDL
MODEL      103
REMARK 921   NORMALIZED FREE ENERGY PREDICTED BY IDOCK:   -1.61 KCAL/MOL
REMARK 922        TOTAL FREE ENERGY PREDICTED BY IDOCK:   -2.55 KCAL/MOL
REMARK 923 INTER-LIGAND FREE ENERGY PREDICTED BY IDOCK:   -2.37 KCAL/MOL
REMARK 924 INTRA-LIGAND FREE ENERGY PREDICTED BY IDOCK:   -0.17 KCAL/MOL
REMARK 927      BINDING AFFINITY PREDICTED BY RF-SCORE:    0.00 PKD
ROOT
HETATM    1  O   UNL     1      -6.868  10.308  71.068  1.00  0.00    -0.326 OA 
HETATM    2  C   UNL     1      -7.082   8.920  71.272  1.00  0.00    -0.094 C  
HETATM    3  H   UNL     1      -6.020  10.607  71.373  1.00  0.00     0.000 HD 
ENDROOT
BRANCH   2   4
HETATM    4  C   UNL     1      -8.455   8.436  70.778  1.00  0.00    -0.139 C  
HETATM    5  O   UNL     1      -8.459   8.342  69.340  1.00  0.00    -0.122 OA 
HETATM    6  C   UNL     1      -7.995   7.130  68.695  1.00  0.00    -0.123 C  
HETATM    7  H   UNL     1     -10.772   6.468  71.978  1.00  0.00     0.000 HD 
HETATM    8  C   UNL     1      -8.620   5.887  69.389  1.00  0.00    -0.113 C  
HETATM    9  O   UNL     1     -10.435   7.229  71.519  1.00  0.00    -0.203 OA 
HETATM   10  O   UNL     1     -10.042   5.814  69.112  1.00  0.00    -0.165 OA 
HETATM   11  C   UNL     1      -8.459   5.904  70.921  1.00  0.00    -0.127 C  
HETATM   12  C   UNL     1      -9.001   7.201  71.524  1.00  0.00    -0.134 C  
HETATM   13  O   UNL     1      -7.099   5.700  71.311  1.00  0.00    -0.067 OA 
HETATM   14  H   UNL     1      -7.000   5.711  72.256  1.00  0.00     0.000 HD 
HETATM   15  H   UNL     1     -10.425   5.055  69.536  1.00  0.00     0.000 HD 
BRANCH   6  16
HETATM   16  C   UNL     1      -6.430   7.139  68.347  1.00  0.00    -0.040 C  
HETATM   17  C   UNL     1      -6.173  10.695  66.936  1.00  0.00    -0.070 A  
HETATM   18  C   UNL     1      -6.167   8.288  67.363  1.00  0.00    -0.056 A  
HETATM   19  C   UNL     1      -6.189   9.620  67.823  1.00  0.00    -0.053 A  
HETATM   20  C   UNL     1      -6.153  10.463  65.568  1.00  0.00    -0.123 A  
HETATM   21  C   UNL     1      -6.077   9.155  65.094  1.00  0.00    -0.060 A  
HETATM   22  O   UNL     1      -6.094   8.962  63.741  1.00  0.00    -0.075 OA 
HETATM   23  C   UNL     1      -6.025   8.064  65.983  1.00  0.00    -0.038 A  
HETATM   24  H   UNL     1      -6.042   8.070  63.419  1.00  0.00     0.000 HD 
HETATM   25  C   UNL     1      -5.764   6.680  65.487  1.00  0.00    -0.030 C  
HETATM   26  O   UNL     1      -5.390   6.500  64.334  1.00  0.00    -0.024 OA 
HETATM   27  C   UNL     1      -5.811   5.539  66.442  1.00  0.00    -0.018 A  
HETATM   28  C   UNL     1      -5.944   5.801  67.810  1.00  0.00    -0.021 A  
HETATM   29  C   UNL     1      -5.729   4.743  68.710  1.00  0.00    -0.020 A  
HETATM   30  C   UNL     1      -5.671   3.410  68.295  1.00  0.00    -0.022 A  
HETATM   31  C   UNL     1      -5.622   3.151  66.928  1.00  0.00    -0.021 A  
HETATM   32  H   UNL     1      -5.462   3.000  64.398  1.00  0.00     0.000 HD 
HETATM   33  O   UNL     1      -5.570   3.899  64.687  1.00  0.00    -0.013 OA 
HETATM   34  C   UNL     1      -5.650   4.205  66.013  1.00  0.00    -0.017 A  
BRANCH  30  35
HETATM   35  C   UNL     1      -5.760   2.306  69.316  1.00  0.00    -0.022 C  
HETATM   36  O   UNL     1      -7.090   1.793  69.347  1.00  0.00    -0.036 OA 
HETATM   37  H   UNL     1      -7.146   1.096  69.991  1.00  0.00     0.000 HD 
ENDBRANCH  30  35
ENDBRANCH   6  16
ENDBRANCH   2   4
TORSDOF 3
ENDMDL
MODEL      104
REMARK 921   NORMALIZED FREE ENERGY PREDICTED BY IDOCK:   -1.50 KCAL/MOL
REMARK 922        TOTAL FREE ENERGY PREDICTED BY IDOCK:   -2.41 KCAL/MOL
REMARK 923 INTER-LIGAND FREE ENERGY PREDICTED BY IDOCK:   -7.72 KCAL/MOL
REMARK 924 INTRA-LIGAND FREE ENERGY PREDICTED BY IDOCK:    5.30 KCAL/MOL
REMARK 927      BINDING AFFINITY PREDICTED BY RF-SCORE:    0.00 PKD
ROOT
HETATM    1  O   UNL     1     -12.236  11.047  68.432  1.00  0.00    -0.770 OA 
HETATM    2  C   UNL     1     -12.071  12.456  68.459  1.00  0.00    -0.075 C  
HETATM    3  H   UNL     1     -12.073  10.632  69.271  1.00  0.00     0.000 HD 
ENDROOT
BRANCH   2   4
HETATM    4  C   UNL     1     -12.334  13.127  67.102  1.00  0.00    -0.031 C  
HETATM    5  O   UNL     1     -12.066  14.540  67.187  1.00  0.00    -0.397 OA 
HETATM    6  C   UNL     1     -10.720  15.033  66.971  1.00  0.00    -0.304 C  
HETATM    7  H   UNL     1     -12.092  12.185  63.982  1.00  0.00     0.000 HD 
HETATM    8  C   UNL     1     -10.109  14.371  65.703  1.00  0.00    -0.353 C  
HETATM    9  O   UNL     1     -12.485  12.631  64.723  1.00  0.00    -0.470 OA 
HETATM   10  O   UNL     1     -10.772  14.860  64.509  1.00  0.00    -0.607 OA 
HETATM   11  C   UNL     1     -10.243  12.836  65.697  1.00  0.00    -0.279 C  
HETATM   12  C   UNL     1     -11.696  12.403  65.899  1.00  0.00    -0.419 C  
HETATM   13  O   UNL     1      -9.398  12.229  66.678  1.00  0.00    -0.218 OA 
HETATM   14  H   UNL     1      -9.480  11.283  66.674  1.00  0.00     0.000 HD 
HETATM   15  H   UNL     1     -10.400  14.456  63.734  1.00  0.00     0.000 HD 
BRANCH   6  16
HETATM   16  C   UNL     1      -9.844  15.135  68.311  1.00  0.00    -0.223 C  
HETATM   17  C   UNL     1     -10.112  18.916  68.889  1.00  0.00    -0.372 A  
HETATM   18  C   UNL     1      -9.430  16.601  68.499  1.00  0.00    -0.239 A  
HETATM   19  C   UNL     1     -10.385  17.549  68.916  1.00  0.00    -0.338 A  
HETATM   20  C   UNL     1      -8.883  19.367  68.429  1.00  0.00    -0.397 A  
HETATM   21  C   UNL     1      -7.905  18.443  68.063  1.00  0.00    -0.274 A  
HETATM   22  O   UNL     1      -6.720  18.923  67.582  1.00  0.00    -0.206 OA 
HETATM   23  C   UNL     1      -8.147  17.059  68.149  1.00  0.00    -0.212 A  
HETATM   24  H   UNL     1      -6.054  18.293  67.333  1.00  0.00     0.000 HD 
HETATM   25  C   UNL     1      -7.049  16.072  67.931  1.00  0.00    -0.136 C  
HETATM   26  O   UNL     1      -5.885  16.448  67.876  1.00  0.00    -0.109 OA 
HETATM   27  C   UNL     1      -7.362  14.616  67.936  1.00  0.00    -0.164 A  
HETATM   28  C   UNL     1      -8.646  14.196  68.298  1.00  0.00    -0.175 A  
HETATM   29  C   UNL     1      -8.851  12.828  68.545  1.00  0.00    -0.040 A  
HETATM   30  C   UNL     1      -7.917  11.855  68.176  1.00  0.00    -0.151 A  
HETATM   31  C   UNL     1      -6.667  12.281  67.736  1.00  0.00    -0.107 A  
HETATM   32  H   UNL     1      -4.466  13.353  67.060  1.00  0.00     0.000 HD 
HETATM   33  O   UNL     1      -5.129  14.008  67.248  1.00  0.00    -0.297 OA 
HETATM   34  C   UNL     1      -6.378  13.645  67.656  1.00  0.00    -0.138 A  
BRANCH  30  35
HETATM   35  C   UNL     1      -8.315  10.403  68.169  1.00  0.00    -0.117 C  
HETATM   36  O   UNL     1      -7.918   9.805  66.937  1.00  0.00    -0.105 OA 
HETATM   37  H   UNL     1      -8.169   8.889  66.933  1.00  0.00     0.000 HD 
ENDBRANCH  30  35
ENDBRANCH   6  16
ENDBRANCH   2   4
TORSDOF 3
ENDMDL
MODEL      105
REMARK 921   NORMALIZED FREE ENERGY PREDICTED BY IDOCK:   -1.43 KCAL/MOL
REMARK 922        TOTAL FREE ENERGY PREDICTED BY IDOCK:   -2.33 KCAL/MOL
REMARK 923 INTER-LIGAND FREE ENERGY PREDICTED BY IDOCK:   -8.06 KCAL/MOL
REMARK 924 INTRA-LIGAND FREE ENERGY PREDICTED BY IDOCK:    5.73 KCAL/MOL
REMARK 927      BINDING AFFINITY PREDICTED BY RF-SCORE:    0.00 PKD
ROOT
HETATM    1  O   UNL     1     -13.397  12.156  63.480  1.00  0.00    -0.628 OA 
HETATM    2  C   UNL     1     -12.278  12.037  64.345  1.00  0.00    -0.266 C  
HETATM    3  H   UNL     1     -13.498  11.418  62.890  1.00  0.00     0.000 HD 
ENDROOT
BRANCH   2   4
HETATM    4  C   UNL     1     -12.115  13.230  65.299  1.00  0.00    -0.418 C  
HETATM    5  O   UNL     1     -12.360  12.816  66.657  1.00  0.00    -0.456 OA 
HETATM    6  C   UNL     1     -11.279  12.262  67.448  1.00  0.00    -0.301 C  
HETATM    7  H   UNL     1     -10.260  15.921  65.327  1.00  0.00     0.000 HD 
HETATM    8  C   UNL     1     -10.006  13.143  67.299  1.00  0.00    -0.230 C  
HETATM    9  O   UNL     1     -11.053  15.415  65.462  1.00  0.00    -0.333 OA 
HETATM   10  O   UNL     1     -10.196  14.422  67.957  1.00  0.00    -0.222 OA 
HETATM   11  C   UNL     1      -9.645  13.441  65.831  1.00  0.00    -0.109 C  
HETATM   12  C   UNL     1     -10.828  14.051  65.079  1.00  0.00    -0.392 C  
HETATM   13  O   UNL     1      -9.171  12.272  65.157  1.00  0.00    -0.416 OA 
HETATM   14  H   UNL     1      -8.948  12.455  64.252  1.00  0.00     0.000 HD 
HETATM   15  H   UNL     1      -9.419  14.960  67.866  1.00  0.00     0.000 HD 
BRANCH   6  16
HETATM   16  C   UNL     1     -11.154  10.666  67.347  1.00  0.00    -0.341 C  
HETATM   17  C   UNL     1     -12.196   9.778  70.929  1.00  0.00    -0.390 A  
HETATM   18  C   UNL     1     -11.089  10.102  68.773  1.00  0.00    -0.250 A  
HETATM   19  C   UNL     1     -12.252  10.074  69.568  1.00  0.00     0.272 A  
HETATM   20  C   UNL     1     -10.972   9.518  71.530  1.00  0.00    -0.369 A  
HETATM   21  C   UNL     1      -9.817   9.488  70.752  1.00  0.00    -0.239 A  
HETATM   22  O   UNL     1      -8.626   9.264  71.382  1.00  0.00    -0.326 OA 
HETATM   23  C   UNL     1      -9.871   9.720  69.364  1.00  0.00    -0.217 A  
HETATM   24  H   UNL     1      -7.839   9.243  70.852  1.00  0.00     0.000 HD 
HETATM   25  C   UNL     1      -8.670   9.513  68.502  1.00  0.00    -0.124 C  
HETATM   26  O   UNL     1      -7.682   8.945  68.950  1.00  0.00    -0.091 OA 
HETATM   27  C   UNL     1      -8.739   9.860  67.056  1.00  0.00    -0.137 A  
HETATM   28  C   UNL     1      -9.969  10.226  66.500  1.00  0.00    -0.280 A  
HETATM   29  C   UNL     1     -10.068  10.299  65.100  1.00  0.00    -0.355 A  
HETATM   30  C   UNL     1      -8.943  10.300  64.271  1.00  0.00    -0.261 A  
HETATM   31  C   UNL     1      -7.706  10.016  64.845  1.00  0.00    -0.138 A  
HETATM   32  H   UNL     1      -5.622   9.388  66.154  1.00  0.00     0.000 HD 
HETATM   33  O   UNL     1      -6.382   9.456  66.721  1.00  0.00    -0.064 OA 
HETATM   34  C   UNL     1      -7.611   9.758  66.215  1.00  0.00    -0.100 A  
BRANCH  30  35
HETATM   35  C   UNL     1      -9.080  10.697  62.825  1.00  0.00    -0.294 C  
HETATM   36  O   UNL     1      -8.199  11.782  62.543  1.00  0.00    -0.580 OA 
HETATM   37  H   UNL     1      -8.286  12.032  61.631  1.00  0.00     0.000 HD 
ENDBRANCH  30  35
ENDBRANCH   6  16
ENDBRANCH   2   4
TORSDOF 3
ENDMDL
MODEL      106
REMARK 921   NORMALIZED FREE ENERGY PREDICTED BY IDOCK:   -1.28 KCAL/MOL
REMARK 922        TOTAL FREE ENERGY PREDICTED BY IDOCK:   -2.16 KCAL/MOL
REMARK 923 INTER-LIGAND FREE ENERGY PREDICTED BY IDOCK:   -2.07 KCAL/MOL
REMARK 924 INTRA-LIGAND FREE ENERGY PREDICTED BY IDOCK:   -0.08 KCAL/MOL
REMARK 927      BINDING AFFINITY PREDICTED BY RF-SCORE:    0.00 PKD
ROOT
HETATM    1  O   UNL     1     -11.945   9.067  69.407  1.00  0.00     0.142 OA 
HETATM    2  C   UNL     1     -11.468   9.271  68.086  1.00  0.00     0.788 C  
HETATM    3  H   UNL     1     -12.866   8.836  69.444  1.00  0.00     0.000 HD 
ENDROOT
BRANCH   2   4
HETATM    4  C   UNL     1      -9.978   9.644  68.026  1.00  0.00    -0.160 C  
HETATM    5  O   UNL     1      -9.789  10.793  67.178  1.00  0.00    -0.178 OA 
HETATM    6  C   UNL     1      -9.920  12.127  67.730  1.00  0.00    -0.198 C  
HETATM    7  H   UNL     1      -7.466   9.432  70.106  1.00  0.00     0.000 HD 
HETATM    8  C   UNL     1      -9.141  12.225  69.072  1.00  0.00     0.439 C  
HETATM    9  O   UNL     1      -7.895   9.388  69.259  1.00  0.00    -0.078 OA 
HETATM   10  O   UNL     1      -7.711  12.169  68.833  1.00  0.00    -0.276 OA 
HETATM   11  C   UNL     1      -9.478  11.085  70.052  1.00  0.00     1.205 C  
HETATM   12  C   UNL     1      -9.284   9.714  69.402  1.00  0.00    -0.189 C  
HETATM   13  O   UNL     1     -10.805  11.210  70.570  1.00  0.00    -0.256 OA 
HETATM   14  H   UNL     1     -11.014  10.507  71.175  1.00  0.00     0.000 HD 
HETATM   15  H   UNL     1      -7.235  12.228  69.653  1.00  0.00     0.000 HD 
BRANCH   6  16
HETATM   16  C   UNL     1     -11.403  12.727  67.630  1.00  0.00    -0.359 C  
HETATM   17  C   UNL     1     -12.003  12.160  63.885  1.00  0.00    -0.581 A  
HETATM   18  C   UNL     1     -11.699  13.022  66.153  1.00  0.00    -0.445 A  
HETATM   19  C   UNL     1     -11.947  11.958  65.263  1.00  0.00    -0.084 A  
HETATM   20  C   UNL     1     -11.796  13.430  63.363  1.00  0.00    -0.325 A  
HETATM   21  C   UNL     1     -11.602  14.505  64.228  1.00  0.00    -0.238 A  
HETATM   22  O   UNL     1     -11.366  15.734  63.680  1.00  0.00    -0.625 OA 
HETATM   23  C   UNL     1     -11.610  14.323  65.625  1.00  0.00    -0.346 A  
HETATM   24  H   UNL     1     -11.234  16.466  64.269  1.00  0.00     0.000 HD 
HETATM   25  C   UNL     1     -11.583  15.491  66.553  1.00  0.00     0.182 C  
HETATM   26  O   UNL     1     -11.759  16.624  66.121  1.00  0.00     0.978 OA 
HETATM   27  C   UNL     1     -11.496  15.258  68.021  1.00  0.00    -0.351 A  
HETATM   28  C   UNL     1     -11.598  13.953  68.511  1.00  0.00    -0.367 A  
HETATM   29  C   UNL     1     -11.771  13.775  69.894  1.00  0.00    -0.353 A  
HETATM   30  C   UNL     1     -11.565  14.811  70.810  1.00  0.00    -0.318 A  
HETATM   31  C   UNL     1     -11.381  16.098  70.314  1.00  0.00    -0.363 A  
HETATM   32  H   UNL     1     -11.160  18.329  69.120  1.00  0.00     0.000 HD 
HETATM   33  O   UNL     1     -11.233  17.610  68.503  1.00  0.00     0.082 OA 
HETATM   34  C   UNL     1     -11.387  16.326  68.936  1.00  0.00    -0.317 A  
BRANCH  30  35
HETATM   35  C   UNL     1     -11.451  14.497  72.279  1.00  0.00     0.610 C  
HETATM   36  O   UNL     1     -12.543  13.671  72.676  1.00  0.00    -0.089 OA 
HETATM   37  H   UNL     1     -12.471  13.473  73.602  1.00  0.00     0.000 HD 
ENDBRANCH  30  35
ENDBRANCH   6  16
ENDBRANCH   2   4
TORSDOF 3
ENDMDL
MODEL      107
REMARK 921   NORMALIZED FREE ENERGY PREDICTED BY IDOCK:   -0.98 KCAL/MOL
REMARK 922        TOTAL FREE ENERGY PREDICTED BY IDOCK:   -1.80 KCAL/MOL
REMARK 923 INTER-LIGAND FREE ENERGY PREDICTED BY IDOCK:   -9.20 KCAL/MOL
REMARK 924 INTRA-LIGAND FREE ENERGY PREDICTED BY IDOCK:    7.40 KCAL/MOL
REMARK 927      BINDING AFFINITY PREDICTED BY RF-SCORE:    0.00 PKD
ROOT
HETATM    1  O   UNL     1     -13.494  14.313  66.294  1.00  0.00     0.044 OA 
HETATM    2  C   UNL     1     -12.249  13.682  66.551  1.00  0.00    -0.404 C  
HETATM    3  H   UNL     1     -13.699  14.379  65.369  1.00  0.00     0.000 HD 
ENDROOT
BRANCH   2   4
HETATM    4  C   UNL     1     -11.917  13.575  68.048  1.00  0.00    -0.337 C  
HETATM    5  O   UNL     1     -10.532  13.220  68.225  1.00  0.00    -0.237 OA 
HETATM    6  C   UNL     1      -9.519  14.257  68.254  1.00  0.00    -0.209 C  
HETATM    7  H   UNL     1     -12.987  15.060  70.756  1.00  0.00     0.000 HD 
HETATM    8  C   UNL     1      -9.975  15.417  69.183  1.00  0.00    -0.241 C  
HETATM    9  O   UNL     1     -12.684  14.327  70.233  1.00  0.00    -0.345 OA 
HETATM   10  O   UNL     1      -9.965  14.989  70.569  1.00  0.00    -0.438 OA 
HETATM   11  C   UNL     1     -11.400  15.916  68.876  1.00  0.00    -0.377 C  
HETATM   12  C   UNL     1     -12.409  14.766  68.896  1.00  0.00    -0.014 C  
HETATM   13  O   UNL     1     -11.458  16.611  67.628  1.00  0.00     0.008 OA 
HETATM   14  H   UNL     1     -12.336  16.919  67.438  1.00  0.00     0.000 HD 
HETATM   15  H   UNL     1     -10.243  15.698  71.138  1.00  0.00     0.000 HD 
BRANCH   6  16
HETATM   16  C   UNL     1      -8.894  14.593  66.816  1.00  0.00    -0.269 C  
HETATM   17  C   UNL     1      -8.161  18.317  67.362  1.00  0.00    -0.237 A  
HETATM   18  C   UNL     1      -8.929  16.115  66.626  1.00  0.00    -0.288 A  
HETATM   19  C   UNL     1      -8.024  16.930  67.336  1.00  0.00    -0.190 A  
HETATM   20  C   UNL     1      -9.216  18.921  66.692  1.00  0.00    -0.343 A  
HETATM   21  C   UNL     1     -10.090  18.138  65.940  1.00  0.00    -0.167 A  
HETATM   22  O   UNL     1     -11.137  18.762  65.322  1.00  0.00    -0.399 OA 
HETATM   23  C   UNL     1      -9.922  16.743  65.852  1.00  0.00    -0.299 A  
HETATM   24  H   UNL     1     -11.733  18.228  64.810  1.00  0.00     0.000 HD 
HETATM   25  C   UNL     1     -10.742  15.928  64.909  1.00  0.00    -0.341 C  
HETATM   26  O   UNL     1     -11.427  16.477  64.055  1.00  0.00    -1.137 OA 
HETATM   27  C   UNL     1     -10.604  14.445  64.912  1.00  0.00    -0.456 A  
HETATM   28  C   UNL     1      -9.599  13.856  65.686  1.00  0.00    -0.067 A  
HETATM   29  C   UNL     1      -9.317  12.494  65.482  1.00  0.00     0.141 A  
HETATM   30  C   UNL     1     -10.170  11.656  64.759  1.00  0.00    -0.321 A  
HETATM   31  C   UNL     1     -11.221  12.240  64.056  1.00  0.00    -0.456 A  
HETATM   32  H   UNL     1     -12.980  13.593  62.820  1.00  0.00     0.000 HD 
HETATM   33  O   UNL     1     -12.436  14.147  63.368  1.00  0.00    -0.797 OA 
HETATM   34  C   UNL     1     -11.411  13.623  64.099  1.00  0.00    -0.304 A  
BRANCH  30  35
HETATM   35  C   UNL     1      -9.994  10.163  64.837  1.00  0.00    -0.288 C  
HETATM   36  O   UNL     1      -9.473   9.679  63.602  1.00  0.00    -0.430 OA 
HETATM   37  H   UNL     1      -9.361   8.737  63.651  1.00  0.00     0.000 HD 
ENDBRANCH  30  35
ENDBRANCH   6  16
ENDBRANCH   2   4
TORSDOF 3
ENDMDL
MODEL      108
REMARK 921   NORMALIZED FREE ENERGY PREDICTED BY IDOCK:   -0.81 KCAL/MOL
REMARK 922        TOTAL FREE ENERGY PREDICTED BY IDOCK:   -1.61 KCAL/MOL
REMARK 923 INTER-LIGAND FREE ENERGY PREDICTED BY IDOCK:   -8.77 KCAL/MOL
REMARK 924 INTRA-LIGAND FREE ENERGY PREDICTED BY IDOCK:    7.16 KCAL/MOL
REMARK 927      BINDING AFFINITY PREDICTED BY RF-SCORE:    0.00 PKD
ROOT
HETATM    1  O   UNL     1      -8.406  11.250  65.057  1.00  0.00    -0.372 OA 
HETATM    2  C   UNL     1      -9.422  11.490  66.017  1.00  0.00    -0.229 C  
HETATM    3  H   UNL     1      -7.555  11.080  65.443  1.00  0.00     0.000 HD 
ENDROOT
BRANCH   2   4
HETATM    4  C   UNL     1     -10.800  11.763  65.392  1.00  0.00    -0.295 C  
HETATM    5  O   UNL     1     -11.779  11.981  66.427  1.00  0.00    -0.518 OA 
HETATM    6  C   UNL     1     -11.961  13.309  66.979  1.00  0.00    -0.365 C  
HETATM    7  H   UNL     1     -11.837  13.173  62.632  1.00  0.00     0.000 HD 
HETATM    8  C   UNL     1     -12.044  14.355  65.831  1.00  0.00    -0.348 C  
HETATM    9  O   UNL     1     -11.844  12.528  63.330  1.00  0.00    -0.491 OA 
HETATM   10  O   UNL     1     -13.281  14.197  65.090  1.00  0.00    -0.743 OA 
HETATM   11  C   UNL     1     -10.891  14.231  64.816  1.00  0.00    -0.405 C  
HETATM   12  C   UNL     1     -10.789  12.810  64.259  1.00  0.00    -0.390 C  
HETATM   13  O   UNL     1      -9.643  14.639  65.382  1.00  0.00    -0.503 OA 
HETATM   14  H   UNL     1      -8.933  14.563  64.757  1.00  0.00     0.000 HD 
HETATM   15  H   UNL     1     -13.331  14.835  64.388  1.00  0.00     0.000 HD 
BRANCH   6  16
HETATM   16  C   UNL     1     -11.045  13.609  68.260  1.00  0.00    -0.281 C  
HETATM   17  C   UNL     1     -10.290  17.306  67.574  1.00  0.00    -0.346 A  
HETATM   18  C   UNL     1     -10.254  14.896  67.988  1.00  0.00    -0.228 A  
HETATM   19  C   UNL     1     -10.911  16.142  68.025  1.00  0.00    -0.338 A  
HETATM   20  C   UNL     1      -9.001  17.247  67.062  1.00  0.00    -0.245 A  
HETATM   21  C   UNL     1      -8.314  16.035  67.067  1.00  0.00    -0.219 A  
HETATM   22  O   UNL     1      -7.061  16.008  66.523  1.00  0.00    -0.169 OA 
HETATM   23  C   UNL     1      -8.908  14.867  67.581  1.00  0.00    -0.184 A  
HETATM   24  H   UNL     1      -6.593  15.181  66.526  1.00  0.00     0.000 HD 
HETATM   25  C   UNL     1      -8.116  13.613  67.753  1.00  0.00    -0.173 C  
HETATM   26  O   UNL     1      -6.897  13.636  67.643  1.00  0.00    -0.158 OA 
HETATM   27  C   UNL     1      -8.801  12.372  68.209  1.00  0.00    -0.174 A  
HETATM   28  C   UNL     1     -10.137  12.441  68.616  1.00  0.00    -0.143 A  
HETATM   29  C   UNL     1     -10.686  11.330  69.279  1.00  0.00    -0.221 A  
HETATM   30  C   UNL     1     -10.054  10.083  69.294  1.00  0.00    -0.226 A  
HETATM   31  C   UNL     1      -8.751  10.003  68.810  1.00  0.00    -0.136 A  
HETATM   32  H   UNL     1      -6.370  10.188  67.946  1.00  0.00     0.000 HD 
HETATM   33  O   UNL     1      -6.830  11.017  67.877  1.00  0.00    -0.066 OA 
HETATM   34  C   UNL     1      -8.117  11.143  68.311  1.00  0.00    -0.131 A  
BRANCH  30  35
HETATM   35  C   UNL     1     -10.820   8.863  69.734  1.00  0.00    -0.200 C  
HETATM   36  O   UNL     1     -12.091   9.257  70.245  1.00  0.00    -0.470 OA 
HETATM   37  H   UNL     1     -12.574   8.487  70.522  1.00  0.00     0.000 HD 
ENDBRANCH  30  35
ENDBRANCH   6  16
ENDBRANCH   2   4
TORSDOF 3
ENDMDL
MODEL      109
REMARK 921   NORMALIZED FREE ENERGY PREDICTED BY IDOCK:   -0.57 KCAL/MOL
REMARK 922        TOTAL FREE ENERGY PREDICTED BY IDOCK:   -1.32 KCAL/MOL
REMARK 923 INTER-LIGAND FREE ENERGY PREDICTED BY IDOCK:   -7.28 KCAL/MOL
REMARK 924 INTRA-LIGAND FREE ENERGY PREDICTED BY IDOCK:    5.96 KCAL/MOL
REMARK 927      BINDING AFFINITY PREDICTED BY RF-SCORE:    0.00 PKD
ROOT
HETATM    1  O   UNL     1      -8.290  19.899  69.003  1.00  0.00    -0.147 OA 
HETATM    2  C   UNL     1      -8.725  18.554  69.128  1.00  0.00     0.085 C  
HETATM    3  H   UNL     1      -8.996  20.531  69.068  1.00  0.00     0.000 HD 
ENDROOT
BRANCH   2   4
HETATM    4  C   UNL     1      -7.582  17.531  69.023  1.00  0.00    -0.161 C  
HETATM    5  O   UNL     1      -8.042  16.230  69.439  1.00  0.00    -0.208 OA 
HETATM    6  C   UNL     1      -8.681  15.351  68.480  1.00  0.00    -0.178 C  
HETATM    7  H   UNL     1      -4.989  17.168  67.068  1.00  0.00     0.000 HD 
HETATM    8  C   UNL     1      -7.858  15.315  67.161  1.00  0.00    -0.214 C  
HETATM    9  O   UNL     1      -5.461  17.146  67.893  1.00  0.00    -0.112 OA 
HETATM   10  O   UNL     1      -6.600  14.621  67.369  1.00  0.00    -0.283 OA 
HETATM   11  C   UNL     1      -7.515  16.717  66.622  1.00  0.00    -0.273 C  
HETATM   12  C   UNL     1      -6.816  17.567  67.685  1.00  0.00    -0.163 C  
HETATM   13  O   UNL     1      -8.675  17.389  66.126  1.00  0.00    -0.439 OA 
HETATM   14  H   UNL     1      -8.464  18.254  65.794  1.00  0.00     0.000 HD 
HETATM   15  H   UNL     1      -6.096  14.599  66.564  1.00  0.00     0.000 HD 
BRANCH   6  16
HETATM   16  C   UNL     1     -10.275  15.514  68.413  1.00  0.00    -0.215 C  
HETATM   17  C   UNL     1     -11.261  11.928  69.348  1.00  0.00    -0.278 A  
HETATM   18  C   UNL     1     -10.893  14.112  68.313  1.00  0.00    -0.259 A  
HETATM   19  C   UNL     1     -10.913  13.274  69.445  1.00  0.00    -0.067 A  
HETATM   20  C   UNL     1     -11.582  11.385  68.112  1.00  0.00    -0.364 A  
HETATM   21  C   UNL     1     -11.622  12.208  66.988  1.00  0.00    -0.337 A  
HETATM   22  O   UNL     1     -11.908  11.633  65.782  1.00  0.00    -0.307 OA 
HETATM   23  C   UNL     1     -11.337  13.584  67.087  1.00  0.00    -0.346 A  
HETATM   24  H   UNL     1     -11.934  12.195  65.017  1.00  0.00     0.000 HD 
HETATM   25  C   UNL     1     -11.551  14.499  65.928  1.00  0.00    -0.349 C  
HETATM   26  O   UNL     1     -12.167  14.110  64.943  1.00  0.00    -0.402 OA 
HETATM   27  C   UNL     1     -11.149  15.928  66.039  1.00  0.00    -0.037 A  
HETATM   28  C   UNL     1     -10.722  16.421  67.276  1.00  0.00    -0.257 A  
HETATM   29  C   UNL     1     -10.594  17.813  67.426  1.00  0.00    -0.341 A  
HETATM   30  C   UNL     1     -10.600  18.685  66.333  1.00  0.00    -0.399 A  
HETATM   31  C   UNL     1     -10.946  18.170  65.086  1.00  0.00     0.827 A  
HETATM   32  H   UNL     1     -11.689  16.967  62.977  1.00  0.00     0.000 HD 
HETATM   33  O   UNL     1     -11.617  16.369  63.712  1.00  0.00    -1.055 OA 
HETATM   34  C   UNL     1     -11.256  16.816  64.949  1.00  0.00     0.022 A  
BRANCH  30  35
HETATM   35  C   UNL     1     -10.145  20.109  66.512  1.00  0.00    -0.449 C  
HETATM   36  O   UNL     1      -8.816  20.251  66.019  1.00  0.00    -0.579 OA 
HETATM   37  H   UNL     1      -8.529  21.149  66.131  1.00  0.00     0.000 HD 
ENDBRANCH  30  35
ENDBRANCH   6  16
ENDBRANCH   2   4
TORSDOF 3
ENDMDL
MODEL      110
REMARK 921   NORMALIZED FREE ENERGY PREDICTED BY IDOCK:   -0.41 KCAL/MOL
REMARK 922        TOTAL FREE ENERGY PREDICTED BY IDOCK:   -1.14 KCAL/MOL
REMARK 923 INTER-LIGAND FREE ENERGY PREDICTED BY IDOCK:   -7.15 KCAL/MOL
REMARK 924 INTRA-LIGAND FREE ENERGY PREDICTED BY IDOCK:    6.01 KCAL/MOL
REMARK 927      BINDING AFFINITY PREDICTED BY RF-SCORE:    0.00 PKD
ROOT
HETATM    1  O   UNL     1      -8.448  17.601  68.747  1.00  0.00    -0.280 OA 
HETATM    2  C   UNL     1      -9.655  17.071  68.224  1.00  0.00    -0.273 C  
HETATM    3  H   UNL     1      -8.481  17.762  69.683  1.00  0.00     0.000 HD 
ENDROOT
BRANCH   2   4
HETATM    4  C   UNL     1      -9.601  16.810  66.710  1.00  0.00    -0.249 C  
HETATM    5  O   UNL     1      -8.534  15.892  66.403  1.00  0.00    -0.291 OA 
HETATM    6  C   UNL     1      -8.772  14.464  66.462  1.00  0.00    -0.007 C  
HETATM    7  H   UNL     1     -11.818  16.704  64.311  1.00  0.00     0.000 HD 
HETATM    8  C   UNL     1     -10.102  14.116  65.737  1.00  0.00    -0.333 C  
HETATM    9  O   UNL     1     -10.977  16.909  64.704  1.00  0.00    -0.894 OA 
HETATM   10  O   UNL     1      -9.964  14.309  64.306  1.00  0.00    -0.555 OA 
HETATM   11  C   UNL     1     -11.288  14.987  66.196  1.00  0.00    -0.270 C  
HETATM   12  C   UNL     1     -10.965  16.477  66.071  1.00  0.00     0.057 C  
HETATM   13  O   UNL     1     -11.688  14.671  67.532  1.00  0.00    -0.365 OA 
HETATM   14  H   UNL     1     -12.419  15.208  67.815  1.00  0.00     0.000 HD 
HETATM   15  H   UNL     1     -10.777  14.097  63.862  1.00  0.00     0.000 HD 
BRANCH   6  16
HETATM   16  C   UNL     1      -8.457  13.813  67.894  1.00  0.00    -0.176 C  
HETATM   17  C   UNL     1      -5.549  11.535  66.866  1.00  0.00    -0.129 A  
HETATM   18  C   UNL     1      -7.628  12.541  67.667  1.00  0.00    -0.145 A  
HETATM   19  C   UNL     1      -6.274  12.647  67.292  1.00  0.00    -0.094 A  
HETATM   20  C   UNL     1      -6.165  10.294  66.791  1.00  0.00    -0.070 A  
HETATM   21  C   UNL     1      -7.487  10.158  67.210  1.00  0.00    -0.091 A  
HETATM   22  O   UNL     1      -8.073   8.929  67.090  1.00  0.00    -0.102 OA 
HETATM   23  C   UNL     1      -8.209  11.262  67.704  1.00  0.00    -0.120 A  
HETATM   24  H   UNL     1      -8.975   8.837  67.374  1.00  0.00     0.000 HD 
HETATM   25  C   UNL     1      -9.559  11.085  68.317  1.00  0.00    -0.171 C  
HETATM   26  O   UNL     1      -9.971   9.963  68.585  1.00  0.00    -0.155 OA 
HETATM   27  C   UNL     1     -10.332  12.285  68.741  1.00  0.00    -0.156 A  
HETATM   28  C   UNL     1      -9.718  13.541  68.701  1.00  0.00    -0.104 A  
HETATM   29  C   UNL     1     -10.363  14.614  69.339  1.00  0.00    -0.136 A  
HETATM   30  C   UNL     1     -11.695  14.543  69.756  1.00  0.00    -0.356 A  
HETATM   31  C   UNL     1     -12.329  13.304  69.716  1.00  0.00    -0.189 A  
HETATM   32  H   UNL     1     -13.182  10.914  69.607  1.00  0.00     0.000 HD 
HETATM   33  O   UNL     1     -12.299  10.984  69.262  1.00  0.00    -0.412 OA 
HETATM   34  C   UNL     1     -11.642  12.180  69.253  1.00  0.00    -0.318 A  
BRANCH  30  35
HETATM   35  C   UNL     1     -12.427  15.803  70.137  1.00  0.00    -0.207 C  
HETATM   36  O   UNL     1     -11.575  16.628  70.927  1.00  0.00    -0.558 OA 
HETATM   37  H   UNL     1     -12.037  17.423  71.168  1.00  0.00     0.000 HD 
ENDBRANCH  30  35
ENDBRANCH   6  16
ENDBRANCH   2   4
TORSDOF 3
ENDMDL
MODEL      111
REMARK 921   NORMALIZED FREE ENERGY PREDICTED BY IDOCK:   -0.39 KCAL/MOL
REMARK 922        TOTAL FREE ENERGY PREDICTED BY IDOCK:   -1.11 KCAL/MOL
REMARK 923 INTER-LIGAND FREE ENERGY PREDICTED BY IDOCK:   -8.40 KCAL/MOL
REMARK 924 INTRA-LIGAND FREE ENERGY PREDICTED BY IDOCK:    7.28 KCAL/MOL
REMARK 927      BINDING AFFINITY PREDICTED BY RF-SCORE:    0.00 PKD
ROOT
HETATM    1  O   UNL     1     -11.181  13.559  69.801  1.00  0.00    -0.453 OA 
HETATM    2  C   UNL     1     -11.029  12.623  68.746  1.00  0.00    -0.249 C  
HETATM    3  H   UNL     1     -10.707  14.370  69.657  1.00  0.00     0.000 HD 
ENDROOT
BRANCH   2   4
HETATM    4  C   UNL     1     -11.797  11.312  68.978  1.00  0.00    -0.352 C  
HETATM    5  O   UNL     1     -11.722  10.478  67.806  1.00  0.00    -0.438 OA 
HETATM    6  C   UNL     1     -10.596   9.582  67.629  1.00  0.00    -0.269 C  
HETATM    7  H   UNL     1     -12.409   9.433  71.581  1.00  0.00     0.000 HD 
HETATM    8  C   UNL     1     -10.323   8.805  68.948  1.00  0.00    -0.212 C  
HETATM    9  O   UNL     1     -12.610   9.865  70.759  1.00  0.00    -0.295 OA 
HETATM   10  O   UNL     1     -11.389   7.855  69.205  1.00  0.00    -0.418 OA 
HETATM   11  C   UNL     1     -10.231   9.723  70.183  1.00  0.00    -0.275 C  
HETATM   12  C   UNL     1     -11.470  10.610  70.312  1.00  0.00    -0.337 C  
HETATM   13  O   UNL     1      -9.044  10.520  70.160  1.00  0.00    -0.271 OA 
HETATM   14  H   UNL     1      -8.986  11.085  70.921  1.00  0.00     0.000 HD 
HETATM   15  H   UNL     1     -11.223   7.381  70.012  1.00  0.00     0.000 HD 
BRANCH   6  16
HETATM   16  C   UNL     1      -9.370  10.232  66.826  1.00  0.00    -0.187 C  
HETATM   17  C   UNL     1      -6.490   8.833  68.937  1.00  0.00    -0.049 A  
HETATM   18  C   UNL     1      -8.130  10.187  67.730  1.00  0.00    -0.109 A  
HETATM   19  C   UNL     1      -7.477   8.960  67.960  1.00  0.00    -0.092 A  
HETATM   20  C   UNL     1      -6.146   9.928  69.718  1.00  0.00    -0.045 A  
HETATM   21  C   UNL     1      -6.741  11.163  69.470  1.00  0.00    -0.132 A  
HETATM   22  O   UNL     1      -6.404  12.210  70.280  1.00  0.00    -0.364 OA 
HETATM   23  C   UNL     1      -7.691  11.318  68.441  1.00  0.00    -0.125 A  
HETATM   24  H   UNL     1      -6.810  13.052  70.112  1.00  0.00     0.000 HD 
HETATM   25  C   UNL     1      -8.195  12.669  68.057  1.00  0.00    -0.167 C  
HETATM   26  O   UNL     1      -7.645  13.676  68.486  1.00  0.00    -0.122 OA 
HETATM   27  C   UNL     1      -9.268  12.785  67.032  1.00  0.00    -0.221 A  
HETATM   28  C   UNL     1      -9.673  11.641  66.337  1.00  0.00    -0.236 A  
HETATM   29  C   UNL     1     -10.492  11.808  65.207  1.00  0.00    -0.320 A  
HETATM   30  C   UNL     1     -11.135  13.016  64.923  1.00  0.00    -0.326 A  
HETATM   31  C   UNL     1     -10.788  14.135  65.674  1.00  0.00    -0.306 A  
HETATM   32  H   UNL     1      -9.892  16.002  67.145  1.00  0.00     0.000 HD 
HETATM   33  O   UNL     1      -9.509  15.163  67.376  1.00  0.00    -0.201 OA 
HETATM   34  C   UNL     1      -9.835  14.030  66.690  1.00  0.00    -0.284 A  
BRANCH  30  35
HETATM   35  C   UNL     1     -12.238  13.052  63.898  1.00  0.00    -0.437 C  
HETATM   36  O   UNL     1     -12.415  14.388  63.435  1.00  0.00    -1.109 OA 
HETATM   37  H   UNL     1     -13.110  14.411  62.788  1.00  0.00     0.000 HD 
ENDBRANCH  30  35
ENDBRANCH   6  16
ENDBRANCH   2   4
TORSDOF 3
ENDMDL
MODEL      112
REMARK 921   NORMALIZED FREE ENERGY PREDICTED BY IDOCK:    0.14 KCAL/MOL
REMARK 922        TOTAL FREE ENERGY PREDICTED BY IDOCK:   -0.49 KCAL/MOL
REMARK 923 INTER-LIGAND FREE ENERGY PREDICTED BY IDOCK:   -7.75 KCAL/MOL
REMARK 924 INTRA-LIGAND FREE ENERGY PREDICTED BY IDOCK:    7.26 KCAL/MOL
REMARK 927      BINDING AFFINITY PREDICTED BY RF-SCORE:    0.00 PKD
ROOT
HETATM    1  O   UNL     1      -7.844   9.334  71.383  1.00  0.00    -0.335 OA 
HETATM    2  C   UNL     1      -8.480   9.444  70.119  1.00  0.00    -0.205 C  
HETATM    3  H   UNL     1      -8.447   9.158  72.094  1.00  0.00     0.000 HD 
ENDROOT
BRANCH   2   4
HETATM    4  C   UNL     1      -7.503   9.729  68.967  1.00  0.00    -0.080 C  
HETATM    5  O   UNL     1      -7.998   9.152  67.743  1.00  0.00    -0.100 OA 
HETATM    6  C   UNL     1      -8.919   9.902  66.913  1.00  0.00    -0.138 C  
HETATM    7  H   UNL     1      -5.446  12.162  68.239  1.00  0.00     0.000 HD 
HETATM    8  C   UNL     1      -8.408  11.360  66.737  1.00  0.00    -0.163 C  
HETATM    9  O   UNL     1      -5.729  11.257  68.300  1.00  0.00    -0.046 OA 
HETATM   10  O   UNL     1      -7.217  11.383  65.909  1.00  0.00    -0.366 OA 
HETATM   11  C   UNL     1      -8.043  12.039  68.071  1.00  0.00    -0.153 C  
HETATM   12  C   UNL     1      -7.044  11.198  68.869  1.00  0.00    -0.101 C  
HETATM   13  O   UNL     1      -9.204  12.317  68.857  1.00  0.00    -0.389 OA 
HETATM   14  H   UNL     1      -8.979  12.736  69.680  1.00  0.00     0.000 HD 
HETATM   15  H   UNL     1      -6.904  12.274  65.802  1.00  0.00     0.000 HD 
BRANCH   6  16
HETATM   16  C   UNL     1     -10.463   9.641  67.258  1.00  0.00    -0.323 C  
HETATM   17  C   UNL     1     -11.772  13.215  66.792  1.00  0.00    -0.439 A  
HETATM   18  C   UNL     1     -11.116  10.993  67.575  1.00  0.00    -0.366 A  
HETATM   19  C   UNL     1     -11.386  11.901  66.531  1.00  0.00    -0.403 A  
HETATM   20  C   UNL     1     -11.882  13.656  68.103  1.00  0.00    -0.407 A  
HETATM   21  C   UNL     1     -11.672  12.760  69.150  1.00  0.00    -0.322 A  
HETATM   22  O   UNL     1     -11.754  13.237  70.427  1.00  0.00    -0.520 OA 
HETATM   23  C   UNL     1     -11.347  11.413  68.897  1.00  0.00    -0.334 A  
HETATM   24  H   UNL     1     -11.611  12.626  71.140  1.00  0.00     0.000 HD 
HETATM   25  C   UNL     1     -11.298  10.413  70.004  1.00  0.00    -0.313 C  
HETATM   26  O   UNL     1     -11.736  10.700  71.112  1.00  0.00    -0.305 OA 
HETATM   27  C   UNL     1     -10.857   9.021  69.714  1.00  0.00    -0.215 A  
HETATM   28  C   UNL     1     -10.647   8.636  68.386  1.00  0.00    -0.169 A  
HETATM   29  C   UNL     1     -10.485   7.267  68.111  1.00  0.00    -0.244 A  
HETATM   30  C   UNL     1     -10.246   6.327  69.118  1.00  0.00    -0.229 A  
HETATM   31  C   UNL     1     -10.376   6.738  70.442  1.00  0.00    -0.223 A  
HETATM   32  H   UNL     1     -10.767   7.754  72.736  1.00  0.00     0.000 HD 
HETATM   33  O   UNL     1     -10.861   8.402  72.048  1.00  0.00    -0.272 OA 
HETATM   34  C   UNL     1     -10.718   8.059  70.736  1.00  0.00    -0.223 A  
BRANCH  30  35
HETATM   35  C   UNL     1      -9.767   4.947  68.752  1.00  0.00    -0.165 C  
HETATM   36  O   UNL     1      -9.758   4.122  69.915  1.00  0.00    -0.200 OA 
HETATM   37  H   UNL     1      -9.456   3.251  69.684  1.00  0.00     0.000 HD 
ENDBRANCH  30  35
ENDBRANCH   6  16
ENDBRANCH   2   4
TORSDOF 3
ENDMDL
MODEL      113
REMARK 921   NORMALIZED FREE ENERGY PREDICTED BY IDOCK:    0.30 KCAL/MOL
REMARK 922        TOTAL FREE ENERGY PREDICTED BY IDOCK:   -0.30 KCAL/MOL
REMARK 923 INTER-LIGAND FREE ENERGY PREDICTED BY IDOCK:   -7.68 KCAL/MOL
REMARK 924 INTRA-LIGAND FREE ENERGY PREDICTED BY IDOCK:    7.37 KCAL/MOL
REMARK 927      BINDING AFFINITY PREDICTED BY RF-SCORE:    0.00 PKD
ROOT
HETATM    1  O   UNL     1     -10.402   9.209  65.738  1.00  0.00    -0.266 OA 
HETATM    2  C   UNL     1     -10.093   8.976  67.103  1.00  0.00    -0.243 C  
HETATM    3  H   UNL     1     -10.802  10.056  65.581  1.00  0.00     0.000 HD 
ENDROOT
BRANCH   2   4
HETATM    4  C   UNL     1      -9.444   7.606  67.357  1.00  0.00    -0.143 C  
HETATM    5  O   UNL     1      -8.326   7.746  68.255  1.00  0.00    -0.123 OA 
HETATM    6  C   UNL     1      -8.543   7.712  69.687  1.00  0.00    -0.136 C  
HETATM    7  H   UNL     1     -10.539   4.530  67.493  1.00  0.00     0.000 HD 
HETATM    8  C   UNL     1      -9.476   6.524  70.055  1.00  0.00    -0.156 C  
HETATM    9  O   UNL     1      -9.925   5.221  67.275  1.00  0.00    -0.149 OA 
HETATM   10  O   UNL     1      -8.790   5.261  69.855  1.00  0.00    -0.109 OA 
HETATM   11  C   UNL     1     -10.761   6.478  69.207  1.00  0.00    -0.280 C  
HETATM   12  C   UNL     1     -10.442   6.485  67.711  1.00  0.00    -0.227 C  
HETATM   13  O   UNL     1     -11.648   7.551  69.535  1.00  0.00    -0.429 OA 
HETATM   14  H   UNL     1     -12.441   7.523  69.013  1.00  0.00     0.000 HD 
HETATM   15  H   UNL     1      -9.360   4.535  70.079  1.00  0.00     0.000 HD 
BRANCH   6  16
HETATM   16  C   UNL     1      -8.804   9.154  70.337  1.00  0.00    -0.253 C  
HETATM   17  C   UNL     1     -11.419   8.144  72.953  1.00  0.00    -0.274 A  
HETATM   18  C   UNL     1     -10.130   9.097  71.107  1.00  0.00    -0.384 A  
HETATM   19  C   UNL     1     -10.198   8.406  72.333  1.00  0.00    -0.399 A  
HETATM   20  C   UNL     1     -12.602   8.551  72.352  1.00  0.00    -0.409 A  
HETATM   21  C   UNL     1     -12.554   9.283  71.167  1.00  0.00    -0.257 A  
HETATM   22  O   UNL     1     -13.738   9.638  70.586  1.00  0.00    -0.579 OA 
HETATM   23  C   UNL     1     -11.323   9.612  70.567  1.00  0.00    -0.360 A  
HETATM   24  H   UNL     1     -13.705  10.136  69.778  1.00  0.00     0.000 HD 
HETATM   25  C   UNL     1     -11.260  10.542  69.402  1.00  0.00    -0.269 C  
HETATM   26  O   UNL     1     -12.247  11.192  69.079  1.00  0.00    -0.469 OA 
HETATM   27  C   UNL     1      -9.952  10.791  68.734  1.00  0.00    -0.201 A  
HETATM   28  C   UNL     1      -8.786  10.272  69.305  1.00  0.00    -0.186 A  
HETATM   29  C   UNL     1      -7.550  10.726  68.814  1.00  0.00    -0.113 A  
HETATM   30  C   UNL     1      -7.439  11.441  67.618  1.00  0.00    -0.103 A  
HETATM   31  C   UNL     1      -8.610  11.885  67.009  1.00  0.00    -0.176 A  
HETATM   32  H   UNL     1     -10.895  12.626  66.186  1.00  0.00     0.000 HD 
HETATM   33  O   UNL     1     -10.964  12.082  66.962  1.00  0.00    -0.247 OA 
HETATM   34  C   UNL     1      -9.850  11.599  67.582  1.00  0.00    -0.186 A  
BRANCH  30  35
HETATM   35  C   UNL     1      -6.087  11.623  66.980  1.00  0.00    -0.138 C  
HETATM   36  O   UNL     1      -5.719  13.000  67.028  1.00  0.00    -0.417 OA 
HETATM   37  H   UNL     1      -4.866  13.115  66.625  1.00  0.00     0.000 HD 
ENDBRANCH  30  35
ENDBRANCH   6  16
ENDBRANCH   2   4
TORSDOF 3
ENDMDL
MODEL      114
REMARK 921   NORMALIZED FREE ENERGY PREDICTED BY IDOCK:    0.42 KCAL/MOL
REMARK 922        TOTAL FREE ENERGY PREDICTED BY IDOCK:   -0.16 KCAL/MOL
REMARK 923 INTER-LIGAND FREE ENERGY PREDICTED BY IDOCK:   -7.36 KCAL/MOL
REMARK 924 INTRA-LIGAND FREE ENERGY PREDICTED BY IDOCK:    7.20 KCAL/MOL
REMARK 927      BINDING AFFINITY PREDICTED BY RF-SCORE:    0.00 PKD
ROOT
HETATM    1  O   UNL     1     -11.049  13.033  66.102  1.00  0.00    -0.280 OA 
HETATM    2  C   UNL     1     -11.360  14.024  67.069  1.00  0.00    -0.330 C  
HETATM    3  H   UNL     1     -10.944  12.164  66.472  1.00  0.00     0.000 HD 
ENDROOT
BRANCH   2   4
HETATM    4  C   UNL     1     -11.530  15.429  66.470  1.00  0.00    -0.015 C  
HETATM    5  O   UNL     1     -11.478  16.422  67.513  1.00  0.00    -0.003 OA 
HETATM    6  C   UNL     1     -10.198  16.951  67.941  1.00  0.00    -0.308 C  
HETATM    7  H   UNL     1     -10.739  16.831  63.626  1.00  0.00     0.000 HD 
HETATM    8  C   UNL     1      -9.335  17.322  66.702  1.00  0.00    -0.260 C  
HETATM    9  O   UNL     1     -11.287  16.658  64.383  1.00  0.00    -1.023 OA 
HETATM   10  O   UNL     1      -9.893  18.477  66.024  1.00  0.00    -0.494 OA 
HETATM   11  C   UNL     1      -9.249  16.187  65.663  1.00  0.00     0.013 C  
HETATM   12  C   UNL     1     -10.640  15.710  65.242  1.00  0.00    -0.426 C  
HETATM   13  O   UNL     1      -8.466  15.091  66.143  1.00  0.00    -0.374 OA 
HETATM   14  H   UNL     1      -8.413  14.391  65.502  1.00  0.00     0.000 HD 
HETATM   15  H   UNL     1      -9.366  18.703  65.266  1.00  0.00     0.000 HD 
BRANCH   6  16
HETATM   16  C   UNL     1      -9.534  16.139  69.154  1.00  0.00    -0.251 C  
HETATM   17  C   UNL     1      -5.870  16.328  68.037  1.00  0.00    -0.128 A  
HETATM   18  C   UNL     1      -8.132  15.693  68.718  1.00  0.00    -0.169 A  
HETATM   19  C   UNL     1      -7.092  16.640  68.633  1.00  0.00    -0.183 A  
HETATM   20  C   UNL     1      -5.667  15.065  67.498  1.00  0.00     0.065 A  
HETATM   21  C   UNL     1      -6.662  14.098  67.620  1.00  0.00    -0.171 A  
HETATM   22  O   UNL     1      -6.442  12.877  67.047  1.00  0.00    -0.465 OA 
HETATM   23  C   UNL     1      -7.874  14.382  68.278  1.00  0.00    -0.138 A  
HETATM   24  H   UNL     1      -7.121  12.218  67.129  1.00  0.00     0.000 HD 
HETATM   25  C   UNL     1      -8.864  13.303  68.567  1.00  0.00    -0.055 C  
HETATM   26  O   UNL     1      -8.554  12.128  68.420  1.00  0.00    -0.171 OA 
HETATM   27  C   UNL     1     -10.175  13.658  69.178  1.00  0.00     0.099 A  
HETATM   28  C   UNL     1     -10.392  14.969  69.613  1.00  0.00    -0.201 A  
HETATM   29  C   UNL     1     -11.520  15.224  70.411  1.00  0.00    -0.330 A  
HETATM   30  C   UNL     1     -12.561  14.302  70.548  1.00  0.00    -0.418 A  
HETATM   31  C   UNL     1     -12.372  13.019  70.040  1.00  0.00    -0.222 A  
HETATM   32  H   UNL     1     -11.705  10.759  69.093  1.00  0.00     0.000 HD 
HETATM   33  O   UNL     1     -11.030  11.411  68.945  1.00  0.00    -0.200 OA 
HETATM   34  C   UNL     1     -11.176  12.689  69.398  1.00  0.00    -0.139 A  
BRANCH  30  35
HETATM   35  C   UNL     1     -13.874  14.739  71.144  1.00  0.00    -0.322 C  
HETATM   36  O   UNL     1     -13.639  15.746  72.125  1.00  0.00    -0.464 OA 
HETATM   37  H   UNL     1     -14.467  16.023  72.501  1.00  0.00     0.000 HD 
ENDBRANCH  30  35
ENDBRANCH   6  16
ENDBRANCH   2   4
TORSDOF 3
ENDMDL
MODEL      115
REMARK 921   NORMALIZED FREE ENERGY PREDICTED BY IDOCK:    0.46 KCAL/MOL
REMARK 922        TOTAL FREE ENERGY PREDICTED BY IDOCK:   -0.12 KCAL/MOL
REMARK 923 INTER-LIGAND FREE ENERGY PREDICTED BY IDOCK:   -1.54 KCAL/MOL
REMARK 924 INTRA-LIGAND FREE ENERGY PREDICTED BY IDOCK:    1.42 KCAL/MOL
REMARK 927      BINDING AFFINITY PREDICTED BY RF-SCORE:    0.00 PKD
ROOT
HETATM    1  O   UNL     1      -8.873  12.358  67.272  1.00  0.00    -0.176 OA 
HETATM    2  C   UNL     1      -8.480  11.017  67.026  1.00  0.00    -0.141 C  
HETATM    3  H   UNL     1      -8.170  12.901  67.607  1.00  0.00     0.000 HD 
ENDROOT
BRANCH   2   4
HETATM    4  C   UNL     1      -9.617  10.138  66.482  1.00  0.00    -0.187 C  
HETATM    5  O   UNL     1      -9.095   8.868  66.043  1.00  0.00    -0.184 OA 
HETATM    6  C   UNL     1      -8.947   7.782  66.993  1.00  0.00    -0.129 C  
HETATM    7  H   UNL     1     -12.796   9.804  67.161  1.00  0.00     0.000 HD 
HETATM    8  C   UNL     1     -10.237   7.649  67.852  1.00  0.00    -0.198 C  
HETATM    9  O   UNL     1     -12.031   9.849  66.599  1.00  0.00     2.061 OA 
HETATM   10  O   UNL     1     -11.335   7.154  67.043  1.00  0.00    -0.518 OA 
HETATM   11  C   UNL     1     -10.696   8.985  68.466  1.00  0.00    -0.095 C  
HETATM   12  C   UNL     1     -10.858  10.064  67.395  1.00  0.00    -0.249 C  
HETATM   13  O   UNL     1      -9.805   9.427  69.493  1.00  0.00    -0.167 OA 
HETATM   14  H   UNL     1     -10.088  10.251  69.872  1.00  0.00     0.000 HD 
HETATM   15  H   UNL     1     -12.123   7.072  67.567  1.00  0.00     0.000 HD 
BRANCH   6  16
HETATM   16  C   UNL     1      -7.512   7.737  67.707  1.00  0.00    -0.104 C  
HETATM   17  C   UNL     1      -5.390   6.734  64.674  1.00  0.00    -0.027 A  
HETATM   18  C   UNL     1      -6.560   6.931  66.812  1.00  0.00    -0.048 A  
HETATM   19  C   UNL     1      -6.074   7.499  65.618  1.00  0.00    -0.038 A  
HETATM   20  C   UNL     1      -5.191   5.379  64.896  1.00  0.00    -0.009 A  
HETATM   21  C   UNL     1      -5.616   4.809  66.095  1.00  0.00    -0.017 A  
HETATM   22  O   UNL     1      -5.435   3.465  66.264  1.00  0.00    -0.016 OA 
HETATM   23  C   UNL     1      -6.249   5.587  67.083  1.00  0.00    -0.031 A  
HETATM   24  H   UNL     1      -5.725   3.077  67.081  1.00  0.00     0.000 HD 
HETATM   25  C   UNL     1      -6.542   5.023  68.434  1.00  0.00    -0.045 C  
HETATM   26  O   UNL     1      -6.059   3.949  68.771  1.00  0.00    -0.026 OA 
HETATM   27  C   UNL     1      -7.298   5.843  69.421  1.00  0.00    -0.075 A  
HETATM   28  C   UNL     1      -7.581   7.179  69.121  1.00  0.00    -0.099 A  
HETATM   29  C   UNL     1      -8.061   8.003  70.155  1.00  0.00    -0.114 A  
HETATM   30  C   UNL     1      -8.524   7.485  71.367  1.00  0.00    -0.115 A  
HETATM   31  C   UNL     1      -8.313   6.133  71.626  1.00  0.00    -0.126 A  
HETATM   32  H   UNL     1      -7.712   3.675  71.845  1.00  0.00     0.000 HD 
HETATM   33  O   UNL     1      -7.461   4.020  70.996  1.00  0.00    -0.040 OA 
HETATM   34  C   UNL     1      -7.670   5.330  70.681  1.00  0.00    -0.084 A  
BRANCH  30  35
HETATM   35  C   UNL     1      -9.313   8.363  72.302  1.00  0.00    -0.286 C  
HETATM   36  O   UNL     1     -10.671   8.420  71.870  1.00  0.00    -0.256 OA 
HETATM   37  H   UNL     1     -11.169   8.974  72.460  1.00  0.00     0.000 HD 
ENDBRANCH  30  35
ENDBRANCH   6  16
ENDBRANCH   2   4
TORSDOF 3
ENDMDL
MODEL      116
REMARK 921   NORMALIZED FREE ENERGY PREDICTED BY IDOCK:    0.52 KCAL/MOL
REMARK 922        TOTAL FREE ENERGY PREDICTED BY IDOCK:   -0.05 KCAL/MOL
REMARK 923 INTER-LIGAND FREE ENERGY PREDICTED BY IDOCK:   -4.04 KCAL/MOL
REMARK 924 INTRA-LIGAND FREE ENERGY PREDICTED BY IDOCK:    4.00 KCAL/MOL
REMARK 927      BINDING AFFINITY PREDICTED BY RF-SCORE:    0.00 PKD
ROOT
HETATM    1  O   UNL     1      -7.896  12.141  67.457  1.00  0.00    -0.141 OA 
HETATM    2  C   UNL     1      -8.496  11.049  66.778  1.00  0.00    -0.148 C  
HETATM    3  H   UNL     1      -7.027  12.354  67.138  1.00  0.00     0.000 HD 
ENDROOT
BRANCH   2   4
HETATM    4  C   UNL     1      -9.902  10.707  67.295  1.00  0.00    -0.176 C  
HETATM    5  O   UNL     1     -10.203   9.322  67.033  1.00  0.00    -0.227 OA 
HETATM    6  C   UNL     1      -9.797   8.304  67.981  1.00  0.00    -0.169 C  
HETATM    7  H   UNL     1     -11.761  11.748  69.773  1.00  0.00     0.000 HD 
HETATM    8  C   UNL     1     -10.167   8.745  69.425  1.00  0.00    -0.210 C  
HETATM    9  O   UNL     1     -11.586  11.453  68.887  1.00  0.00    -0.264 OA 
HETATM   10  O   UNL     1     -11.607   8.728  69.606  1.00  0.00    -0.409 OA 
HETATM   11  C   UNL     1      -9.688  10.170  69.764  1.00  0.00    -0.196 C  
HETATM   12  C   UNL     1     -10.185  11.185  68.734  1.00  0.00    -0.206 C  
HETATM   13  O   UNL     1      -8.265  10.234  69.884  1.00  0.00    -0.313 OA 
HETATM   14  H   UNL     1      -7.969  11.112  70.093  1.00  0.00     0.000 HD 
HETATM   15  H   UNL     1     -11.833   8.998  70.489  1.00  0.00     0.000 HD 
BRANCH   6  16
HETATM   16  C   UNL     1      -8.346   7.688  67.689  1.00  0.00    -0.118 C  
HETATM   17  C   UNL     1      -9.390   4.830  65.355  1.00  0.00    -0.161 A  
HETATM   18  C   UNL     1      -8.533   6.268  67.138  1.00  0.00    -0.108 A  
HETATM   19  C   UNL     1      -9.000   6.085  65.821  1.00  0.00    -0.116 A  
HETATM   20  C   UNL     1      -9.338   3.731  66.202  1.00  0.00    -0.183 A  
HETATM   21  C   UNL     1      -8.829   3.880  67.490  1.00  0.00    -0.118 A  
HETATM   22  O   UNL     1      -8.824   2.785  68.307  1.00  0.00    -0.094 OA 
HETATM   23  C   UNL     1      -8.369   5.130  67.948  1.00  0.00    -0.097 A  
HETATM   24  H   UNL     1      -8.477   2.887  69.185  1.00  0.00     0.000 HD 
HETATM   25  C   UNL     1      -7.661   5.256  69.256  1.00  0.00    -0.084 C  
HETATM   26  O   UNL     1      -7.289   4.254  69.854  1.00  0.00    -0.048 OA 
HETATM   27  C   UNL     1      -7.275   6.607  69.752  1.00  0.00    -0.077 A  
HETATM   28  C   UNL     1      -7.443   7.714  68.915  1.00  0.00    -0.096 A  
HETATM   29  C   UNL     1      -6.844   8.927  69.292  1.00  0.00    -0.050 A  
HETATM   30  C   UNL     1      -6.340   9.142  70.578  1.00  0.00    -0.053 A  
HETATM   31  C   UNL     1      -6.251   8.050  71.438  1.00  0.00    -0.035 A  
HETATM   32  H   UNL     1      -6.137   5.871  72.738  1.00  0.00     0.000 HD 
HETATM   33  O   UNL     1      -6.541   5.747  71.886  1.00  0.00    -0.054 OA 
HETATM   34  C   UNL     1      -6.676   6.789  71.016  1.00  0.00    -0.054 A  
BRANCH  30  35
HETATM   35  C   UNL     1      -6.004  10.540  71.025  1.00  0.00     0.042 C  
HETATM   36  O   UNL     1      -5.856  11.383  69.884  1.00  0.00    -0.080 OA 
HETATM   37  H   UNL     1      -5.644  12.265  70.166  1.00  0.00     0.000 HD 
ENDBRANCH  30  35
ENDBRANCH   6  16
ENDBRANCH   2   4
TORSDOF 3
ENDMDL
MODEL      117
REMARK 921   NORMALIZED FREE ENERGY PREDICTED BY IDOCK:    0.59 KCAL/MOL
REMARK 922        TOTAL FREE ENERGY PREDICTED BY IDOCK:    0.05 KCAL/MOL
REMARK 923 INTER-LIGAND FREE ENERGY PREDICTED BY IDOCK:   -7.26 KCAL/MOL
REMARK 924 INTRA-LIGAND FREE ENERGY PREDICTED BY IDOCK:    7.30 KCAL/MOL
REMARK 927      BINDING AFFINITY PREDICTED BY RF-SCORE:    0.00 PKD
ROOT
HETATM    1  O   UNL     1      -8.101  10.300  70.396  1.00  0.00    -0.410 OA 
HETATM    2  C   UNL     1      -8.474  10.007  69.059  1.00  0.00    -0.147 C  
HETATM    3  H   UNL     1      -8.834  10.545  70.947  1.00  0.00     0.000 HD 
ENDROOT
BRANCH   2   4
HETATM    4  C   UNL     1      -7.287   9.609  68.167  1.00  0.00    -0.081 C  
HETATM    5  O   UNL     1      -7.691   8.595  67.226  1.00  0.00    -0.095 OA 
HETATM    6  C   UNL     1      -8.285   8.981  65.962  1.00  0.00    -0.113 C  
HETATM    7  H   UNL     1      -4.668  11.170  66.989  1.00  0.00     0.000 HD 
HETATM    8  C   UNL     1      -7.453  10.121  65.309  1.00  0.00    -0.145 C  
HETATM    9  O   UNL     1      -5.144  10.435  67.359  1.00  0.00    -0.040 OA 
HETATM   10  O   UNL     1      -6.167   9.617  64.864  1.00  0.00    -0.075 OA 
HETATM   11  C   UNL     1      -7.169  11.290  66.272  1.00  0.00     0.007 C  
HETATM   12  C   UNL     1      -6.515  10.802  67.565  1.00  0.00    -0.058 C  
HETATM   13  O   UNL     1      -8.355  12.035  66.560  1.00  0.00    -0.338 OA 
HETATM   14  H   UNL     1      -8.181  12.756  67.154  1.00  0.00     0.000 HD 
HETATM   15  H   UNL     1      -5.658  10.314  64.465  1.00  0.00     0.000 HD 
BRANCH   6  16
HETATM   16  C   UNL     1      -9.884   9.092  66.004  1.00  0.00    -0.342 C  
HETATM   17  C   UNL     1     -10.316  12.085  63.646  1.00  0.00    -0.482 A  
HETATM   18  C   UNL     1     -10.278  10.486  65.495  1.00  0.00    -0.325 A  
HETATM   19  C   UNL     1     -10.180  10.782  64.120  1.00  0.00    -0.412 A  
HETATM   20  C   UNL     1     -10.536  13.126  64.537  1.00  0.00    -0.425 A  
HETATM   21  C   UNL     1     -10.690  12.848  65.894  1.00  0.00    -0.271 A  
HETATM   22  O   UNL     1     -10.870  13.901  66.746  1.00  0.00    -0.283 OA 
HETATM   23  C   UNL     1     -10.621  11.527  66.376  1.00  0.00    -0.304 A  
HETATM   24  H   UNL     1     -10.975  13.711  67.671  1.00  0.00     0.000 HD 
HETATM   25  C   UNL     1     -10.961  11.207  67.793  1.00  0.00    -0.262 C  
HETATM   26  O   UNL     1     -11.499  12.049  68.502  1.00  0.00    -0.244 OA 
HETATM   27  C   UNL     1     -10.785   9.815  68.292  1.00  0.00    -0.277 A  
HETATM   28  C   UNL     1     -10.453   8.803  67.385  1.00  0.00    -0.349 A  
HETATM   29  C   UNL     1     -10.543   7.469  67.819  1.00  0.00    -0.274 A  
HETATM   30  C   UNL     1     -10.671   7.131  69.169  1.00  0.00    -0.216 A  
HETATM   31  C   UNL     1     -10.920   8.154  70.080  1.00  0.00    -0.223 A  
HETATM   32  H   UNL     1     -11.446  10.207  71.479  1.00  0.00     0.000 HD 
HETATM   33  O   UNL     1     -11.290  10.436  70.570  1.00  0.00    -0.310 OA 
HETATM   34  C   UNL     1     -11.016   9.476  69.641  1.00  0.00    -0.212 A  
BRANCH  30  35
HETATM   35  C   UNL     1     -10.443   5.708  69.607  1.00  0.00    -0.304 C  
HETATM   36  O   UNL     1     -10.671   5.599  71.010  1.00  0.00    -0.246 OA 
HETATM   37  H   UNL     1     -10.528   4.702  71.287  1.00  0.00     0.000 HD 
ENDBRANCH  30  35
ENDBRANCH   6  16
ENDBRANCH   2   4
TORSDOF 3
ENDMDL
MODEL      118
REMARK 921   NORMALIZED FREE ENERGY PREDICTED BY IDOCK:    0.72 KCAL/MOL
REMARK 922        TOTAL FREE ENERGY PREDICTED BY IDOCK:    0.19 KCAL/MOL
REMARK 923 INTER-LIGAND FREE ENERGY PREDICTED BY IDOCK:   -7.01 KCAL/MOL
REMARK 924 INTRA-LIGAND FREE ENERGY PREDICTED BY IDOCK:    7.20 KCAL/MOL
REMARK 927      BINDING AFFINITY PREDICTED BY RF-SCORE:    0.00 PKD
ROOT
HETATM    1  O   UNL     1     -11.157   8.007  67.213  1.00  0.00    -0.478 OA 
HETATM    2  C   UNL     1     -10.080   8.310  68.087  1.00  0.00    -0.200 C  
HETATM    3  H   UNL     1     -11.862   8.643  67.250  1.00  0.00     0.000 HD 
ENDROOT
BRANCH   2   4
HETATM    4  C   UNL     1      -8.940   7.281  68.027  1.00  0.00    -0.131 C  
HETATM    5  O   UNL     1      -7.737   7.841  68.589  1.00  0.00    -0.112 OA 
HETATM    6  C   UNL     1      -7.502   7.758  70.017  1.00  0.00    -0.080 C  
HETATM    7  H   UNL     1      -8.769   4.021  68.185  1.00  0.00     0.000 HD 
HETATM    8  C   UNL     1      -7.797   6.317  70.521  1.00  0.00    -0.106 C  
HETATM    9  O   UNL     1      -8.535   4.886  67.868  1.00  0.00    -0.103 OA 
HETATM   10  O   UNL     1      -6.794   5.392  70.026  1.00  0.00    -0.054 OA 
HETATM   11  C   UNL     1      -9.167   5.783  70.061  1.00  0.00    -0.146 C  
HETATM   12  C   UNL     1      -9.321   5.877  68.542  1.00  0.00    -0.120 C  
HETATM   13  O   UNL     1     -10.243   6.459  70.717  1.00  0.00    -0.185 OA 
HETATM   14  H   UNL     1     -11.088   6.130  70.433  1.00  0.00     0.000 HD 
HETATM   15  H   UNL     1      -6.974   4.512  70.334  1.00  0.00     0.000 HD 
BRANCH   6  16
HETATM   16  C   UNL     1      -8.062   9.015  70.841  1.00  0.00    -0.203 C  
HETATM   17  C   UNL     1      -9.231   7.166  73.990  1.00  0.00    -0.281 A  
HETATM   18  C   UNL     1      -8.985   8.486  71.947  1.00  0.00    -0.301 A  
HETATM   19  C   UNL     1      -8.431   7.849  73.075  1.00  0.00    -0.233 A  
HETATM   20  C   UNL     1     -10.602   7.090  73.788  1.00  0.00    -0.325 A  
HETATM   21  C   UNL     1     -11.176   7.758  72.709  1.00  0.00    -0.398 A  
HETATM   22  O   UNL     1     -12.524   7.633  72.521  1.00  0.00    -0.528 OA 
HETATM   23  C   UNL     1     -10.385   8.507  71.816  1.00  0.00    -0.354 A  
HETATM   24  H   UNL     1     -12.914   8.088  71.785  1.00  0.00     0.000 HD 
HETATM   25  C   UNL     1     -11.012   9.366  70.769  1.00  0.00    -0.304 C  
HETATM   26  O   UNL     1     -12.215   9.593  70.798  1.00  0.00    -0.284 OA 
HETATM   27  C   UNL     1     -10.145  10.068  69.782  1.00  0.00    -0.284 A  
HETATM   28  C   UNL     1      -8.757  10.034  69.949  1.00  0.00    -0.169 A  
HETATM   29  C   UNL     1      -7.974  10.903  69.170  1.00  0.00    -0.114 A  
HETATM   30  C   UNL     1      -8.490  11.579  68.061  1.00  0.00    -0.148 A  
HETATM   31  C   UNL     1      -9.866  11.541  67.851  1.00  0.00    -0.192 A  
HETATM   32  H   UNL     1     -12.398  11.358  67.780  1.00  0.00     0.000 HD 
HETATM   33  O   UNL     1     -12.032  10.846  68.492  1.00  0.00    -0.520 OA 
HETATM   34  C   UNL     1     -10.688  10.827  68.725  1.00  0.00    -0.208 A  
BRANCH  30  35
HETATM   35  C   UNL     1      -7.550  12.236  67.084  1.00  0.00    -0.118 C  
HETATM   36  O   UNL     1      -7.069  11.264  66.159  1.00  0.00    -0.331 OA 
HETATM   37  H   UNL     1      -6.476  11.679  65.542  1.00  0.00     0.000 HD 
ENDBRANCH  30  35
ENDBRANCH   6  16
ENDBRANCH   2   4
TORSDOF 3
ENDMDL
MODEL      119
REMARK 921   NORMALIZED FREE ENERGY PREDICTED BY IDOCK:    0.78 KCAL/MOL
REMARK 922        TOTAL FREE ENERGY PREDICTED BY IDOCK:    0.27 KCAL/MOL
REMARK 923 INTER-LIGAND FREE ENERGY PREDICTED BY IDOCK:   -6.94 KCAL/MOL
REMARK 924 INTRA-LIGAND FREE ENERGY PREDICTED BY IDOCK:    7.21 KCAL/MOL
REMARK 927      BINDING AFFINITY PREDICTED BY RF-SCORE:    0.00 PKD
ROOT
HETATM    1  O   UNL     1      -8.436  14.513  69.682  1.00  0.00    -0.373 OA 
HETATM    2  C   UNL     1      -8.871  14.637  68.337  1.00  0.00    -0.181 C  
HETATM    3  H   UNL     1      -9.140  14.321  70.290  1.00  0.00     0.000 HD 
ENDROOT
BRANCH   2   4
HETATM    4  C   UNL     1      -7.732  14.947  67.354  1.00  0.00    -0.204 C  
HETATM    5  O   UNL     1      -8.269  15.234  66.047  1.00  0.00     0.333 OA 
HETATM    6  C   UNL     1      -8.684  16.583  65.718  1.00  0.00     0.122 C  
HETATM    7  H   UNL     1      -4.776  16.317  67.612  1.00  0.00     0.000 HD 
HETATM    8  C   UNL     1      -7.594  17.598  66.166  1.00  0.00    -0.280 C  
HETATM    9  O   UNL     1      -5.416  15.694  67.288  1.00  0.00    -0.336 OA 
HETATM   10  O   UNL     1      -6.411  17.468  65.337  1.00  0.00     0.072 OA 
HETATM   11  C   UNL     1      -7.145  17.400  67.626  1.00  0.00    -0.163 C  
HETATM   12  C   UNL     1      -6.694  15.960  67.880  1.00  0.00    -0.146 C  
HETATM   13  O   UNL     1      -8.171  17.773  68.549  1.00  0.00    -0.286 OA 
HETATM   14  H   UNL     1      -7.895  17.651  69.450  1.00  0.00     0.000 HD 
HETATM   15  H   UNL     1      -5.744  18.088  65.610  1.00  0.00     0.000 HD 
BRANCH   6  16
HETATM   16  C   UNL     1     -10.226  16.884  66.040  1.00  0.00    -0.350 C  
HETATM   17  C   UNL     1      -9.876  20.526  67.187  1.00  0.00    -0.567 A  
HETATM   18  C   UNL     1     -10.292  18.130  66.934  1.00  0.00    -0.386 A  
HETATM   19  C   UNL     1     -10.042  19.401  66.380  1.00  0.00    -0.532 A  
HETATM   20  C   UNL     1      -9.940  20.402  68.568  1.00  0.00    -0.155 A  
HETATM   21  C   UNL     1     -10.240  19.164  69.133  1.00  0.00    -0.078 A  
HETATM   22  O   UNL     1     -10.260  19.071  70.497  1.00  0.00     0.472 OA 
HETATM   23  C   UNL     1     -10.475  18.035  68.325  1.00  0.00    -0.355 A  
HETATM   24  H   UNL     1     -10.464  18.228  70.882  1.00  0.00     0.000 HD 
HETATM   25  C   UNL     1     -10.970  16.757  68.915  1.00  0.00    -0.259 C  
HETATM   26  O   UNL     1     -11.372  16.728  70.072  1.00  0.00    -0.042 OA 
HETATM   27  C   UNL     1     -11.115  15.557  68.045  1.00  0.00    -0.322 A  
HETATM   28  C   UNL     1     -10.935  15.691  66.665  1.00  0.00    -0.212 A  
HETATM   29  C   UNL     1     -11.324  14.622  65.839  1.00  0.00    -0.338 A  
HETATM   30  C   UNL     1     -11.611  13.352  66.349  1.00  0.00    -0.381 A  
HETATM   31  C   UNL     1     -11.707  13.207  67.730  1.00  0.00    -0.401 A  
HETATM   32  H   UNL     1     -11.899  13.272  70.262  1.00  0.00     0.000 HD 
HETATM   33  O   UNL     1     -11.638  14.116  69.911  1.00  0.00    -0.264 OA 
HETATM   34  C   UNL     1     -11.502  14.306  68.567  1.00  0.00    -0.298 A  
BRANCH  30  35
HETATM   35  C   UNL     1     -11.708  12.176  65.412  1.00  0.00    -0.321 C  
HETATM   36  O   UNL     1     -12.948  12.227  64.711  1.00  0.00    -0.713 OA 
HETATM   37  H   UNL     1     -13.010  11.486  64.121  1.00  0.00     0.000 HD 
ENDBRANCH  30  35
ENDBRANCH   6  16
ENDBRANCH   2   4
TORSDOF 3
ENDMDL
MODEL      120
REMARK 921   NORMALIZED FREE ENERGY PREDICTED BY IDOCK:    0.92 KCAL/MOL
REMARK 922        TOTAL FREE ENERGY PREDICTED BY IDOCK:    0.43 KCAL/MOL
REMARK 923 INTER-LIGAND FREE ENERGY PREDICTED BY IDOCK:   -7.52 KCAL/MOL
REMARK 924 INTRA-LIGAND FREE ENERGY PREDICTED BY IDOCK:    7.95 KCAL/MOL
REMARK 927      BINDING AFFINITY PREDICTED BY RF-SCORE:    0.00 PKD
ROOT
HETATM    1  O   UNL     1      -9.193  14.759  65.391  1.00  0.00    -0.349 OA 
HETATM    2  C   UNL     1      -8.838  15.957  66.063  1.00  0.00    -0.263 C  
HETATM    3  H   UNL     1      -9.860  14.883  64.726  1.00  0.00     0.000 HD 
ENDROOT
BRANCH   2   4
HETATM    4  C   UNL     1      -7.758  15.757  67.138  1.00  0.00    -0.219 C  
HETATM    5  O   UNL     1      -8.122  16.459  68.343  1.00  0.00    -0.172 OA 
HETATM    6  C   UNL     1      -8.971  15.814  69.325  1.00  0.00    -0.266 C  
HETATM    7  H   UNL     1      -5.683  13.349  67.897  1.00  0.00     0.000 HD 
HETATM    8  C   UNL     1      -8.470  14.366  69.591  1.00  0.00     0.533 C  
HETATM    9  O   UNL     1      -5.955  14.252  67.777  1.00  0.00    -0.207 OA 
HETATM   10  O   UNL     1      -7.205  14.390  70.299  1.00  0.00    -0.393 OA 
HETATM   11  C   UNL     1      -8.248  13.556  68.299  1.00  0.00    -0.157 C  
HETATM   12  C   UNL     1      -7.318  14.292  67.333  1.00  0.00    -0.128 C  
HETATM   13  O   UNL     1      -9.485  13.236  67.658  1.00  0.00    -0.197 OA 
HETATM   14  H   UNL     1      -9.348  12.736  66.861  1.00  0.00     0.000 HD 
HETATM   15  H   UNL     1      -6.898  13.506  70.461  1.00  0.00     0.000 HD 
BRANCH   6  16
HETATM   16  C   UNL     1     -10.536  16.082  69.105  1.00  0.00    -0.260 C  
HETATM   17  C   UNL     1     -11.854  12.603  70.033  1.00  0.00    -0.358 A  
HETATM   18  C   UNL     1     -11.240  14.724  68.983  1.00  0.00    -0.286 A  
HETATM   19  C   UNL     1     -11.422  13.925  70.129  1.00  0.00    -0.166 A  
HETATM   20  C   UNL     1     -12.098  12.044  68.786  1.00  0.00    -0.166 A  
HETATM   21  C   UNL     1     -11.976  12.833  67.644  1.00  0.00    -0.273 A  
HETATM   22  O   UNL     1     -12.190  12.241  66.431  1.00  0.00    -0.613 OA 
HETATM   23  C   UNL     1     -11.605  14.188  67.735  1.00  0.00    -0.379 A  
HETATM   24  H   UNL     1     -12.107  12.779  65.653  1.00  0.00     0.000 HD 
HETATM   25  C   UNL     1     -11.648  15.079  66.538  1.00  0.00    -0.184 C  
HETATM   26  O   UNL     1     -12.196  14.702  65.509  1.00  0.00    -0.305 OA 
HETATM   27  C   UNL     1     -11.157  16.481  66.651  1.00  0.00     0.202 A  
HETATM   28  C   UNL     1     -10.812  16.982  67.909  1.00  0.00    -0.302 A  
HETATM   29  C   UNL     1     -10.601  18.366  68.036  1.00  0.00    -0.346 A  
HETATM   30  C   UNL     1     -10.445  19.201  66.926  1.00  0.00    -0.527 A  
HETATM   31  C   UNL     1     -10.710  18.673  65.666  1.00  0.00    -0.129 A  
HETATM   32  H   UNL     1     -11.340  17.457  63.526  1.00  0.00     0.000 HD 
HETATM   33  O   UNL     1     -11.378  16.879  64.279  1.00  0.00    -1.202 OA 
HETATM   34  C   UNL     1     -11.101  17.339  65.533  1.00  0.00     0.266 A  
BRANCH  30  35
HETATM   35  C   UNL     1      -9.909  20.597  67.111  1.00  0.00    -0.357 C  
HETATM   36  O   UNL     1      -8.542  20.533  67.508  1.00  0.00    -0.315 OA 
HETATM   37  H   UNL     1      -8.204  21.414  67.625  1.00  0.00     0.000 HD 
ENDBRANCH  30  35
ENDBRANCH   6  16
ENDBRANCH   2   4
TORSDOF 3
ENDMDL
MODEL      121
REMARK 921   NORMALIZED FREE ENERGY PREDICTED BY IDOCK:    1.28 KCAL/MOL
REMARK 922        TOTAL FREE ENERGY PREDICTED BY IDOCK:    0.85 KCAL/MOL
REMARK 923 INTER-LIGAND FREE ENERGY PREDICTED BY IDOCK:   -6.37 KCAL/MOL
REMARK 924 INTRA-LIGAND FREE ENERGY PREDICTED BY IDOCK:    7.22 KCAL/MOL
REMARK 927      BINDING AFFINITY PREDICTED BY RF-SCORE:    0.00 PKD
ROOT
HETATM    1  O   UNL     1     -11.997   6.604  69.926  1.00  0.00    -0.652 OA 
HETATM    2  C   UNL     1     -10.947   7.404  69.405  1.00  0.00    -0.108 C  
HETATM    3  H   UNL     1     -12.692   7.109  70.330  1.00  0.00     0.000 HD 
ENDROOT
BRANCH   2   4
HETATM    4  C   UNL     1      -9.823   6.586  68.750  1.00  0.00    -0.140 C  
HETATM    5  O   UNL     1      -8.640   7.396  68.604  1.00  0.00    -0.128 OA 
HETATM    6  C   UNL     1      -7.694   7.494  69.698  1.00  0.00    -0.100 C  
HETATM    7  H   UNL     1      -8.957   3.435  68.772  1.00  0.00     0.000 HD 
HETATM    8  C   UNL     1      -7.397   6.079  70.271  1.00  0.00    -0.088 C  
HETATM    9  O   UNL     1      -9.094   4.292  68.385  1.00  0.00    -0.112 OA 
HETATM   10  O   UNL     1      -6.632   5.297  69.318  1.00  0.00    -0.043 OA 
HETATM   11  C   UNL     1      -8.672   5.276  70.592  1.00  0.00    -0.126 C  
HETATM   12  C   UNL     1      -9.599   5.195  69.378  1.00  0.00    -0.161 C  
HETATM   13  O   UNL     1      -9.367   5.817  71.718  1.00  0.00    -0.148 OA 
HETATM   14  H   UNL     1     -10.153   5.322  71.916  1.00  0.00     0.000 HD 
HETATM   15  H   UNL     1      -6.450   4.433  69.668  1.00  0.00     0.000 HD 
BRANCH   6  16
HETATM   16  C   UNL     1      -7.986   8.709  70.702  1.00  0.00    -0.113 C  
HETATM   17  C   UNL     1      -7.028   6.985  73.990  1.00  0.00    -0.085 A  
HETATM   18  C   UNL     1      -8.104   8.137  72.121  1.00  0.00    -0.182 A  
HETATM   19  C   UNL     1      -6.947   7.706  72.800  1.00  0.00    -0.076 A  
HETATM   20  C   UNL     1      -8.269   6.665  74.521  1.00  0.00    -0.147 A  
HETATM   21  C   UNL     1      -9.425   7.128  73.895  1.00  0.00    -0.257 A  
HETATM   22  O   UNL     1     -10.630   6.764  74.426  1.00  0.00    -0.424 OA 
HETATM   23  C   UNL     1      -9.352   7.914  72.728  1.00  0.00    -0.297 A  
HETATM   24  H   UNL     1     -11.417   7.080  73.998  1.00  0.00     0.000 HD 
HETATM   25  C   UNL     1     -10.572   8.559  72.159  1.00  0.00    -0.349 C  
HETATM   26  O   UNL     1     -11.613   8.585  72.804  1.00  0.00    -0.312 OA 
HETATM   27  C   UNL     1     -10.474   9.302  70.872  1.00  0.00    -0.372 A  
HETATM   28  C   UNL     1      -9.214   9.514  70.302  1.00  0.00    -0.303 A  
HETATM   29  C   UNL     1      -9.114  10.427  69.239  1.00  0.00    -0.188 A  
HETATM   30  C   UNL     1     -10.237  10.905  68.557  1.00  0.00    -0.197 A  
HETATM   31  C   UNL     1     -11.494  10.620  69.084  1.00  0.00    -0.349 A  
HETATM   32  H   UNL     1     -13.626  10.014  70.323  1.00  0.00     0.000 HD 
HETATM   33  O   UNL     1     -12.861   9.637  70.742  1.00  0.00    -0.226 OA 
HETATM   34  C   UNL     1     -11.609   9.862  70.251  1.00  0.00    -0.250 A  
BRANCH  30  35
HETATM   35  C   UNL     1     -10.064  11.617  67.241  1.00  0.00    -0.199 C  
HETATM   36  O   UNL     1     -10.703  12.890  67.301  1.00  0.00    -0.242 OA 
HETATM   37  H   UNL     1     -10.595  13.340  66.472  1.00  0.00     0.000 HD 
ENDBRANCH  30  35
ENDBRANCH   6  16
ENDBRANCH   2   4
TORSDOF 3
ENDMDL
MODEL      122
REMARK 921   NORMALIZED FREE ENERGY PREDICTED BY IDOCK:    1.30 KCAL/MOL
REMARK 922        TOTAL FREE ENERGY PREDICTED BY IDOCK:    0.87 KCAL/MOL
REMARK 923 INTER-LIGAND FREE ENERGY PREDICTED BY IDOCK:   -0.70 KCAL/MOL
REMARK 924 INTRA-LIGAND FREE ENERGY PREDICTED BY IDOCK:    1.57 KCAL/MOL
REMARK 927      BINDING AFFINITY PREDICTED BY RF-SCORE:    0.00 PKD
ROOT
HETATM    1  O   UNL     1      -7.513  15.867  67.072  1.00  0.00    -0.201 OA 
HETATM    2  C   UNL     1      -7.403  16.787  65.997  1.00  0.00     0.165 C  
HETATM    3  H   UNL     1      -6.718  15.372  67.227  1.00  0.00     0.000 HD 
ENDROOT
BRANCH   2   4
HETATM    4  C   UNL     1      -8.690  17.589  65.747  1.00  0.00     0.292 C  
HETATM    5  O   UNL     1      -9.838  16.721  65.818  1.00  0.00    -0.505 OA 
HETATM    6  C   UNL     1     -10.462  16.454  67.099  1.00  0.00    -0.297 C  
HETATM    7  H   UNL     1      -9.642  20.659  66.340  1.00  0.00     0.000 HD 
HETATM    8  C   UNL     1     -10.654  17.783  67.883  1.00  0.00    -0.382 C  
HETATM    9  O   UNL     1      -9.577  19.855  65.838  1.00  0.00    -0.380 OA 
HETATM   10  O   UNL     1     -11.670  18.602  67.250  1.00  0.00     0.940 OA 
HETATM   11  C   UNL     1      -9.371  18.634  67.955  1.00  0.00    -0.312 C  
HETATM   12  C   UNL     1      -8.796  18.895  66.562  1.00  0.00    -0.323 C  
HETATM   13  O   UNL     1      -8.386  18.033  68.799  1.00  0.00    -0.288 OA 
HETATM   14  H   UNL     1      -7.595  18.557  68.844  1.00  0.00     0.000 HD 
HETATM   15  H   UNL     1     -11.787  19.415  67.729  1.00  0.00     0.000 HD 
BRANCH   6  16
HETATM   16  C   UNL     1      -9.871  15.168  67.853  1.00  0.00    -0.216 C  
HETATM   17  C   UNL     1      -9.166  12.975  64.788  1.00  0.00     1.029 A  
HETATM   18  C   UNL     1      -9.926  13.980  66.883  1.00  0.00    -0.263 A  
HETATM   19  C   UNL     1      -9.015  13.911  65.810  1.00  0.00     0.678 A  
HETATM   20  C   UNL     1     -10.241  12.098  64.806  1.00  0.00    -0.310 A  
HETATM   21  C   UNL     1     -11.123  12.114  65.885  1.00  0.00    -0.318 A  
HETATM   22  O   UNL     1     -12.190  11.261  65.852  1.00  0.00     0.552 OA 
HETATM   23  C   UNL     1     -10.942  13.010  66.956  1.00  0.00    -0.289 A  
HETATM   24  H   UNL     1     -12.791  11.273  66.588  1.00  0.00     0.000 HD 
HETATM   25  C   UNL     1     -11.774  12.910  68.191  1.00  0.00    -0.352 C  
HETATM   26  O   UNL     1     -12.483  11.929  68.377  1.00  0.00    -0.154 OA 
HETATM   27  C   UNL     1     -11.620  13.933  69.262  1.00  0.00    -0.358 A  
HETATM   28  C   UNL     1     -10.593  14.876  69.161  1.00  0.00    -0.248 A  
HETATM   29  C   UNL     1     -10.301  15.662  70.289  1.00  0.00    -0.205 A  
HETATM   30  C   UNL     1     -11.161  15.737  71.388  1.00  0.00    -0.354 A  
HETATM   31  C   UNL     1     -12.233  14.850  71.444  1.00  0.00    -0.391 A  
HETATM   32  H   UNL     1     -14.032  13.063  71.305  1.00  0.00     0.000 HD 
HETATM   33  O   UNL     1     -13.483  13.064  70.529  1.00  0.00     0.528 OA 
HETATM   34  C   UNL     1     -12.436  13.931  70.412  1.00  0.00    -0.334 A  
BRANCH  30  35
HETATM   35  C   UNL     1     -10.967  16.821  72.416  1.00  0.00     1.918 C  
HETATM   36  O   UNL     1     -12.120  16.898  73.250  1.00  0.00    -0.316 OA 
HETATM   37  H   UNL     1     -11.998  17.582  73.899  1.00  0.00     0.000 HD 
ENDBRANCH  30  35
ENDBRANCH   6  16
ENDBRANCH   2   4
TORSDOF 3
ENDMDL
MODEL      123
REMARK 921   NORMALIZED FREE ENERGY PREDICTED BY IDOCK:    1.58 KCAL/MOL
REMARK 922        TOTAL FREE ENERGY PREDICTED BY IDOCK:    1.21 KCAL/MOL
REMARK 923 INTER-LIGAND FREE ENERGY PREDICTED BY IDOCK:   -6.07 KCAL/MOL
REMARK 924 INTRA-LIGAND FREE ENERGY PREDICTED BY IDOCK:    7.28 KCAL/MOL
REMARK 927      BINDING AFFINITY PREDICTED BY RF-SCORE:    0.00 PKD
ROOT
HETATM    1  O   UNL     1      -9.249  15.448  70.555  1.00  0.00     0.088 OA 
HETATM    2  C   UNL     1      -9.509  16.098  69.320  1.00  0.00    -0.224 C  
HETATM    3  H   UNL     1      -8.351  15.545  70.850  1.00  0.00     0.000 HD 
ENDROOT
BRANCH   2   4
HETATM    4  C   UNL     1     -10.962  15.942  68.844  1.00  0.00    -0.290 C  
HETATM    5  O   UNL     1     -11.030  16.073  67.410  1.00  0.00    -0.315 OA 
HETATM    6  C   UNL     1     -10.815  14.912  66.569  1.00  0.00    -0.322 C  
HETATM    7  H   UNL     1     -13.557  14.247  69.881  1.00  0.00     0.000 HD 
HETATM    8  C   UNL     1     -11.631  13.705  67.111  1.00  0.00    -0.361 C  
HETATM    9  O   UNL     1     -13.103  14.998  69.518  1.00  0.00     0.310 OA 
HETATM   10  O   UNL     1     -13.052  13.924  66.912  1.00  0.00    -0.061 OA 
HETATM   11  C   UNL     1     -11.420  13.458  68.617  1.00  0.00    -0.310 C  
HETATM   12  C   UNL     1     -11.698  14.721  69.433  1.00  0.00    -0.323 C  
HETATM   13  O   UNL     1     -10.107  12.963  68.891  1.00  0.00    -0.418 OA 
HETATM   14  H   UNL     1      -9.977  12.811  69.820  1.00  0.00     0.000 HD 
HETATM   15  H   UNL     1     -13.551  13.187  67.243  1.00  0.00     0.000 HD 
BRANCH   6  16
HETATM   16  C   UNL     1      -9.286  14.702  66.133  1.00  0.00    -0.265 C  
HETATM   17  C   UNL     1      -9.133  10.879  66.389  1.00  0.00    -0.188 A  
HETATM   18  C   UNL     1      -8.851  13.300  66.582  1.00  0.00    -0.072 A  
HETATM   19  C   UNL     1      -9.322  12.167  65.890  1.00  0.00    -0.135 A  
HETATM   20  C   UNL     1      -8.481  10.696  67.601  1.00  0.00    -0.118 A  
HETATM   21  C   UNL     1      -7.960  11.799  68.274  1.00  0.00    -0.147 A  
HETATM   22  O   UNL     1      -7.356  11.586  69.481  1.00  0.00    -0.331 OA 
HETATM   23  C   UNL     1      -8.088  13.098  67.746  1.00  0.00    -0.165 A  
HETATM   24  H   UNL     1      -7.001  12.338  69.939  1.00  0.00     0.000 HD 
HETATM   25  C   UNL     1      -7.379  14.255  68.369  1.00  0.00    -0.119 C  
HETATM   26  O   UNL     1      -6.519  14.064  69.220  1.00  0.00    -0.103 OA 
HETATM   27  C   UNL     1      -7.614  15.628  67.841  1.00  0.00    -0.143 A  
HETATM   28  C   UNL     1      -8.370  15.789  66.676  1.00  0.00    -0.319 A  
HETATM   29  C   UNL     1      -8.366  17.049  66.053  1.00  0.00    -0.180 A  
HETATM   30  C   UNL     1      -7.880  18.195  66.690  1.00  0.00    -0.268 A  
HETATM   31  C   UNL     1      -7.199  18.036  67.894  1.00  0.00    -0.222 A  
HETATM   32  H   UNL     1      -5.940  17.424  70.013  1.00  0.00     0.000 HD 
HETATM   33  O   UNL     1      -6.331  16.659  69.608  1.00  0.00    -0.216 OA 
HETATM   34  C   UNL     1      -7.032  16.763  68.442  1.00  0.00    -0.170 A  
BRANCH  30  35
HETATM   35  C   UNL     1      -8.187  19.554  66.119  1.00  0.00    -0.326 C  
HETATM   36  O   UNL     1      -9.045  20.263  67.009  1.00  0.00    -0.353 OA 
HETATM   37  H   UNL     1      -9.239  21.120  66.648  1.00  0.00     0.000 HD 
ENDBRANCH  30  35
ENDBRANCH   6  16
ENDBRANCH   2   4
TORSDOF 3
ENDMDL
MODEL      124
REMARK 921   NORMALIZED FREE ENERGY PREDICTED BY IDOCK:    1.59 KCAL/MOL
REMARK 922        TOTAL FREE ENERGY PREDICTED BY IDOCK:    1.22 KCAL/MOL
REMARK 923 INTER-LIGAND FREE ENERGY PREDICTED BY IDOCK:   -6.10 KCAL/MOL
REMARK 924 INTRA-LIGAND FREE ENERGY PREDICTED BY IDOCK:    7.32 KCAL/MOL
REMARK 927      BINDING AFFINITY PREDICTED BY RF-SCORE:    0.00 PKD
ROOT
HETATM    1  O   UNL     1     -11.510  11.626  64.861  1.00  0.00    -0.244 OA 
HETATM    2  C   UNL     1     -10.497  11.478  65.844  1.00  0.00    -0.255 C  
HETATM    3  H   UNL     1     -12.293  12.053  65.188  1.00  0.00     0.000 HD 
ENDROOT
BRANCH   2   4
HETATM    4  C   UNL     1      -9.230  10.788  65.315  1.00  0.00    -0.204 C  
HETATM    5  O   UNL     1      -8.060  11.362  65.929  1.00  0.00    -0.031 OA 
HETATM    6  C   UNL     1      -7.591  10.856  67.203  1.00  0.00    -0.109 C  
HETATM    7  H   UNL     1      -8.513   7.774  64.274  1.00  0.00     0.000 HD 
HETATM    8  C   UNL     1      -7.566   9.301  67.180  1.00  0.00    -0.091 C  
HETATM    9  O   UNL     1      -8.475   8.724  64.269  1.00  0.00    -0.167 OA 
HETATM   10  O   UNL     1      -6.519   8.825  66.296  1.00  0.00    -0.063 OA 
HETATM   11  C   UNL     1      -8.888   8.682  66.686  1.00  0.00    -0.133 C  
HETATM   12  C   UNL     1      -9.293   9.247  65.324  1.00  0.00    -0.202 C  
HETATM   13  O   UNL     1      -9.942   8.861  67.636  1.00  0.00    -0.172 OA 
HETATM   14  H   UNL     1     -10.757   8.479  67.332  1.00  0.00     0.000 HD 
HETATM   15  H   UNL     1      -6.504   7.875  66.281  1.00  0.00     0.000 HD 
BRANCH   6  16
HETATM   16  C   UNL     1      -8.209  11.618  68.471  1.00  0.00    -0.144 C  
HETATM   17  C   UNL     1      -8.483   8.634  70.863  1.00  0.00    -0.195 A  
HETATM   18  C   UNL     1      -8.823  10.568  69.406  1.00  0.00    -0.091 A  
HETATM   19  C   UNL     1      -7.982   9.737  70.173  1.00  0.00    -0.201 A  
HETATM   20  C   UNL     1      -9.835   8.327  70.789  1.00  0.00    -0.205 A  
HETATM   21  C   UNL     1     -10.692   9.166  70.080  1.00  0.00    -0.233 A  
HETATM   22  O   UNL     1     -12.010   8.814  69.999  1.00  0.00    -0.359 OA 
HETATM   23  C   UNL     1     -10.207  10.320  69.435  1.00  0.00    -0.255 A  
HETATM   24  H   UNL     1     -12.594   9.387  69.516  1.00  0.00     0.000 HD 
HETATM   25  C   UNL     1     -11.144  11.313  68.830  1.00  0.00    -0.233 C  
HETATM   26  O   UNL     1     -12.345  11.246  69.060  1.00  0.00    -0.446 OA 
HETATM   27  C   UNL     1     -10.593  12.471  68.073  1.00  0.00    -0.237 A  
HETATM   28  C   UNL     1      -9.212  12.692  68.075  1.00  0.00    -0.208 A  
HETATM   29  C   UNL     1      -8.737  13.918  67.578  1.00  0.00    -0.194 A  
HETATM   30  C   UNL     1      -9.544  14.787  66.839  1.00  0.00    -0.251 A  
HETATM   31  C   UNL     1     -10.908  14.516  66.771  1.00  0.00    -0.305 A  
HETATM   32  H   UNL     1     -13.345  13.812  66.899  1.00  0.00     0.000 HD 
HETATM   33  O   UNL     1     -12.779  13.190  67.342  1.00  0.00     0.182 OA 
HETATM   34  C   UNL     1     -11.433  13.394  67.415  1.00  0.00    -0.333 A  
BRANCH  30  35
HETATM   35  C   UNL     1      -8.914  15.917  66.068  1.00  0.00    -0.302 C  
HETATM   36  O   UNL     1      -9.830  16.390  65.083  1.00  0.00    -0.414 OA 
HETATM   37  H   UNL     1      -9.432  17.103  64.596  1.00  0.00     0.000 HD 
ENDBRANCH  30  35
ENDBRANCH   6  16
ENDBRANCH   2   4
TORSDOF 3
ENDMDL
MODEL      125
REMARK 921   NORMALIZED FREE ENERGY PREDICTED BY IDOCK:    1.65 KCAL/MOL
REMARK 922        TOTAL FREE ENERGY PREDICTED BY IDOCK:    1.29 KCAL/MOL
REMARK 923 INTER-LIGAND FREE ENERGY PREDICTED BY IDOCK:   -5.93 KCAL/MOL
REMARK 924 INTRA-LIGAND FREE ENERGY PREDICTED BY IDOCK:    7.22 KCAL/MOL
REMARK 927      BINDING AFFINITY PREDICTED BY RF-SCORE:    0.00 PKD
ROOT
HETATM    1  O   UNL     1     -11.644   9.616  69.323  1.00  0.00    -0.449 OA 
HETATM    2  C   UNL     1     -10.399   9.378  69.960  1.00  0.00    -0.233 C  
HETATM    3  H   UNL     1     -12.340   9.047  69.631  1.00  0.00     0.000 HD 
ENDROOT
BRANCH   2   4
HETATM    4  C   UNL     1      -9.273  10.298  69.462  1.00  0.00    -0.170 C  
HETATM    5  O   UNL     1      -7.993   9.794  69.893  1.00  0.00    -0.140 OA 
HETATM    6  C   UNL     1      -7.301   8.805  69.090  1.00  0.00    -0.072 C  
HETATM    7  H   UNL     1      -8.840  12.193  66.835  1.00  0.00     0.000 HD 
HETATM    8  C   UNL     1      -7.318   9.230  67.594  1.00  0.00    -0.084 C  
HETATM    9  O   UNL     1      -8.780  11.962  67.755  1.00  0.00    -0.145 OA 
HETATM   10  O   UNL     1      -6.470  10.389  67.387  1.00  0.00    -0.064 OA 
HETATM   11  C   UNL     1      -8.724   9.603  67.086  1.00  0.00    -0.132 C  
HETATM   12  C   UNL     1      -9.369  10.672  67.969  1.00  0.00    -0.147 C  
HETATM   13  O   UNL     1      -9.571   8.455  66.988  1.00  0.00    -0.163 OA 
HETATM   14  H   UNL     1     -10.438   8.685  66.675  1.00  0.00     0.000 HD 
HETATM   15  H   UNL     1      -6.481  10.649  66.473  1.00  0.00     0.000 HD 
BRANCH   6  16
HETATM   16  C   UNL     1      -7.646   7.291  69.487  1.00  0.00    -0.100 C  
HETATM   17  C   UNL     1      -7.756   5.781  65.964  1.00  0.00    -0.095 A  
HETATM   18  C   UNL     1      -8.179   6.580  68.236  1.00  0.00    -0.114 A  
HETATM   19  C   UNL     1      -7.291   6.226  67.201  1.00  0.00    -0.083 A  
HETATM   20  C   UNL     1      -9.121   5.696  65.728  1.00  0.00    -0.139 A  
HETATM   21  C   UNL     1     -10.015   5.990  66.755  1.00  0.00    -0.174 A  
HETATM   22  O   UNL     1     -11.352   5.929  66.478  1.00  0.00    -0.707 OA 
HETATM   23  C   UNL     1      -9.555   6.376  68.029  1.00  0.00    -0.118 A  
HETATM   24  H   UNL     1     -11.961   6.129  67.178  1.00  0.00     0.000 HD 
HETATM   25  C   UNL     1     -10.499   6.516  69.177  1.00  0.00    -0.221 C  
HETATM   26  O   UNL     1     -11.649   6.104  69.083  1.00  0.00    -0.287 OA 
HETATM   27  C   UNL     1      -9.992   7.018  70.484  1.00  0.00    -0.191 A  
HETATM   28  C   UNL     1      -8.616   7.200  70.657  1.00  0.00    -0.143 A  
HETATM   29  C   UNL     1      -8.135   7.424  71.958  1.00  0.00    -0.101 A  
HETATM   30  C   UNL     1      -8.983   7.748  73.021  1.00  0.00    -0.256 A  
HETATM   31  C   UNL     1     -10.357   7.644  72.819  1.00  0.00    -0.351 A  
HETATM   32  H   UNL     1     -12.787   7.284  72.176  1.00  0.00     0.000 HD 
HETATM   33  O   UNL     1     -12.206   7.131  71.440  1.00  0.00    -0.321 OA 
HETATM   34  C   UNL     1     -10.854   7.245  71.577  1.00  0.00    -0.224 A  
BRANCH  30  35
HETATM   35  C   UNL     1      -8.402   8.285  74.303  1.00  0.00    -0.125 C  
HETATM   36  O   UNL     1      -7.142   8.895  74.036  1.00  0.00    -0.380 OA 
HETATM   37  H   UNL     1      -6.775   9.234  74.844  1.00  0.00     0.000 HD 
ENDBRANCH  30  35
ENDBRANCH   6  16
ENDBRANCH   2   4
TORSDOF 3
ENDMDL
MODEL      126
REMARK 921   NORMALIZED FREE ENERGY PREDICTED BY IDOCK:    1.80 KCAL/MOL
REMARK 922        TOTAL FREE ENERGY PREDICTED BY IDOCK:    1.46 KCAL/MOL
REMARK 923 INTER-LIGAND FREE ENERGY PREDICTED BY IDOCK:   -5.71 KCAL/MOL
REMARK 924 INTRA-LIGAND FREE ENERGY PREDICTED BY IDOCK:    7.18 KCAL/MOL
REMARK 927      BINDING AFFINITY PREDICTED BY RF-SCORE:    0.00 PKD
ROOT
HETATM    1  O   UNL     1     -12.210   7.035  70.084  1.00  0.00    -0.618 OA 
HETATM    2  C   UNL     1     -10.925   7.606  70.281  1.00  0.00    -0.252 C  
HETATM    3  H   UNL     1     -12.196   6.087  70.028  1.00  0.00     0.000 HD 
ENDROOT
BRANCH   2   4
HETATM    4  C   UNL     1     -10.948   9.140  70.373  1.00  0.00    -0.248 C  
HETATM    5  O   UNL     1      -9.667   9.629  70.818  1.00  0.00    -0.250 OA 
HETATM    6  C   UNL     1      -8.615   9.877  69.852  1.00  0.00    -0.194 C  
HETATM    7  H   UNL     1     -12.490  11.522  68.752  1.00  0.00     0.000 HD 
HETATM    8  C   UNL     1      -9.183  10.669  68.640  1.00  0.00    -0.181 C  
HETATM    9  O   UNL     1     -12.131  11.088  69.517  1.00  0.00    -0.324 OA 
HETATM   10  O   UNL     1      -9.517  12.025  69.034  1.00  0.00    -0.406 OA 
HETATM   11  C   UNL     1     -10.463  10.043  68.054  1.00  0.00    -0.218 C  
HETATM   12  C   UNL     1     -11.530   9.844  69.131  1.00  0.00     0.036 C  
HETATM   13  O   UNL     1     -10.188   8.809  67.387  1.00  0.00    -0.213 OA 
HETATM   14  H   UNL     1     -10.977   8.422  67.025  1.00  0.00     0.000 HD 
HETATM   15  H   UNL     1      -9.864  12.510  68.294  1.00  0.00     0.000 HD 
BRANCH   6  16
HETATM   16  C   UNL     1      -7.660   8.615  69.595  1.00  0.00    -0.080 C  
HETATM   17  C   UNL     1      -7.160   9.031  65.816  1.00  0.00    -0.085 A  
HETATM   18  C   UNL     1      -7.676   8.303  68.092  1.00  0.00    -0.106 A  
HETATM   19  C   UNL     1      -6.993   9.148  67.195  1.00  0.00    -0.081 A  
HETATM   20  C   UNL     1      -8.027   8.077  65.303  1.00  0.00    -0.124 A  
HETATM   21  C   UNL     1      -8.671   7.197  66.170  1.00  0.00    -0.151 A  
HETATM   22  O   UNL     1      -9.545   6.294  65.633  1.00  0.00    -0.374 OA 
HETATM   23  C   UNL     1      -8.459   7.263  67.560  1.00  0.00    -0.119 A  
HETATM   24  H   UNL     1      -9.984   5.694  66.224  1.00  0.00     0.000 HD 
HETATM   25  C   UNL     1      -9.003   6.214  68.472  1.00  0.00    -0.115 C  
HETATM   26  O   UNL     1      -9.466   5.178  68.011  1.00  0.00    -0.117 OA 
HETATM   27  C   UNL     1      -8.840   6.367  69.944  1.00  0.00    -0.142 A  
HETATM   28  C   UNL     1      -8.047   7.408  70.437  1.00  0.00    -0.108 A  
HETATM   29  C   UNL     1      -7.696   7.387  71.798  1.00  0.00    -0.086 A  
HETATM   30  C   UNL     1      -8.327   6.544  72.717  1.00  0.00    -0.116 A  
HETATM   31  C   UNL     1      -9.182   5.561  72.226  1.00  0.00    -0.153 A  
HETATM   32  H   UNL     1     -10.606   3.829  71.034  1.00  0.00     0.000 HD 
HETATM   33  O   UNL     1     -10.227   4.449  70.421  1.00  0.00    -0.174 OA 
HETATM   34  C   UNL     1      -9.404   5.448  70.852  1.00  0.00    -0.156 A  
BRANCH  30  35
HETATM   35  C   UNL     1      -8.146   6.781  74.194  1.00  0.00    -0.121 C  
HETATM   36  O   UNL     1      -8.732   8.030  74.552  1.00  0.00    -0.436 OA 
HETATM   37  H   UNL     1      -8.618   8.179  75.483  1.00  0.00     0.000 HD 
ENDBRANCH  30  35
ENDBRANCH   6  16
ENDBRANCH   2   4
TORSDOF 3
ENDMDL
MODEL      127
REMARK 921   NORMALIZED FREE ENERGY PREDICTED BY IDOCK:    1.81 KCAL/MOL
REMARK 922        TOTAL FREE ENERGY PREDICTED BY IDOCK:    1.47 KCAL/MOL
REMARK 923 INTER-LIGAND FREE ENERGY PREDICTED BY IDOCK:   -3.15 KCAL/MOL
REMARK 924 INTRA-LIGAND FREE ENERGY PREDICTED BY IDOCK:    4.63 KCAL/MOL
REMARK 927      BINDING AFFINITY PREDICTED BY RF-SCORE:    0.00 PKD
ROOT
HETATM    1  O   UNL     1     -11.135  11.675  65.899  1.00  0.00    -0.303 OA 
HETATM    2  C   UNL     1     -10.180  12.655  65.524  1.00  0.00    -0.281 C  
HETATM    3  H   UNL     1     -11.968  11.770  65.453  1.00  0.00     0.000 HD 
ENDROOT
BRANCH   2   4
HETATM    4  C   UNL     1      -8.832  12.502  66.246  1.00  0.00     0.067 C  
HETATM    5  O   UNL     1      -8.251  13.797  66.491  1.00  0.00     0.243 OA 
HETATM    6  C   UNL     1      -8.608  14.533  67.688  1.00  0.00    -0.179 C  
HETATM    7  H   UNL     1      -7.595  10.360  68.381  1.00  0.00     0.000 HD 
HETATM    8  C   UNL     1      -8.551  13.594  68.926  1.00  0.00     0.177 C  
HETATM    9  O   UNL     1      -7.575  10.946  67.634  1.00  0.00    -0.094 OA 
HETATM   10  O   UNL     1      -7.177  13.238  69.227  1.00  0.00    -0.294 OA 
HETATM   11  C   UNL     1      -9.324  12.277  68.723  1.00  0.00     0.104 C  
HETATM   12  C   UNL     1      -8.864  11.550  67.459  1.00  0.00    -0.155 C  
HETATM   13  O   UNL     1     -10.737  12.494  68.691  1.00  0.00    -0.232 OA 
HETATM   14  H   UNL     1     -11.214  11.683  68.566  1.00  0.00     0.000 HD 
HETATM   15  H   UNL     1      -7.141  12.664  69.983  1.00  0.00     0.000 HD 
BRANCH   6  16
HETATM   16  C   UNL     1      -9.863  15.513  67.495  1.00  0.00    -0.220 C  
HETATM   17  C   UNL     1      -8.056  18.436  65.794  1.00  0.00     0.187 A  
HETATM   18  C   UNL     1      -9.327  16.929  67.239  1.00  0.00    -0.238 A  
HETATM   19  C   UNL     1      -8.747  17.242  65.994  1.00  0.00    -0.125 A  
HETATM   20  C   UNL     1      -7.916  19.338  66.840  1.00  0.00    -0.278 A  
HETATM   21  C   UNL     1      -8.528  19.072  68.063  1.00  0.00    -0.301 A  
HETATM   22  O   UNL     1      -8.340  19.964  69.080  1.00  0.00    -0.123 OA 
HETATM   23  C   UNL     1      -9.284  17.899  68.256  1.00  0.00    -0.283 A  
HETATM   24  H   UNL     1      -8.757  19.782  69.914  1.00  0.00     0.000 HD 
HETATM   25  C   UNL     1     -10.086  17.698  69.498  1.00  0.00     0.088 C  
HETATM   26  O   UNL     1     -10.262  18.628  70.275  1.00  0.00     0.853 OA 
HETATM   27  C   UNL     1     -10.795  16.405  69.710  1.00  0.00    -0.343 A  
HETATM   28  C   UNL     1     -10.826  15.467  68.673  1.00  0.00    -0.267 A  
HETATM   29  C   UNL     1     -11.705  14.377  68.791  1.00  0.00    -0.372 A  
HETATM   30  C   UNL     1     -12.326  14.048  69.999  1.00  0.00    -0.397 A  
HETATM   31  C   UNL     1     -12.224  14.948  71.056  1.00  0.00    -0.379 A  
HETATM   32  H   UNL     1     -11.931  16.810  72.758  1.00  0.00     0.000 HD 
HETATM   33  O   UNL     1     -11.456  16.995  71.956  1.00  0.00     0.037 OA 
HETATM   34  C   UNL     1     -11.501  16.133  70.900  1.00  0.00    -0.386 A  
BRANCH  30  35
HETATM   35  C   UNL     1     -12.995  12.707  70.153  1.00  0.00     0.644 C  
HETATM   36  O   UNL     1     -12.102  11.678  69.734  1.00  0.00    -0.304 OA 
HETATM   37  H   UNL     1     -12.524  10.832  69.832  1.00  0.00     0.000 HD 
ENDBRANCH  30  35
ENDBRANCH   6  16
ENDBRANCH   2   4
TORSDOF 3
ENDMDL
MODEL      128
REMARK 921   NORMALIZED FREE ENERGY PREDICTED BY IDOCK:    2.02 KCAL/MOL
REMARK 922        TOTAL FREE ENERGY PREDICTED BY IDOCK:    1.72 KCAL/MOL
REMARK 923 INTER-LIGAND FREE ENERGY PREDICTED BY IDOCK:   -5.49 KCAL/MOL
REMARK 924 INTRA-LIGAND FREE ENERGY PREDICTED BY IDOCK:    7.21 KCAL/MOL
REMARK 927      BINDING AFFINITY PREDICTED BY RF-SCORE:    0.00 PKD
ROOT
HETATM    1  O   UNL     1     -11.536   6.806  67.448  1.00  0.00    -0.723 OA 
HETATM    2  C   UNL     1     -10.624   7.501  68.284  1.00  0.00    -0.136 C  
HETATM    3  H   UNL     1     -11.316   5.890  67.328  1.00  0.00     0.000 HD 
ENDROOT
BRANCH   2   4
HETATM    4  C   UNL     1     -10.981   8.983  68.478  1.00  0.00     0.086 C  
HETATM    5  O   UNL     1     -10.444   9.463  69.727  1.00  0.00    -0.203 OA 
HETATM    6  C   UNL     1      -9.086   9.964  69.783  1.00  0.00    -0.225 C  
HETATM    7  H   UNL     1     -11.442  11.522  66.474  1.00  0.00     0.000 HD 
HETATM    8  C   UNL     1      -8.829  10.935  68.595  1.00  0.00    -0.158 C  
HETATM    9  O   UNL     1     -11.616  10.974  67.230  1.00  0.00    -0.496 OA 
HETATM   10  O   UNL     1      -9.579  12.163  68.774  1.00  0.00    -0.384 OA 
HETATM   11  C   UNL     1      -9.244  10.348  67.232  1.00  0.00    -0.142 C  
HETATM   12  C   UNL     1     -10.698   9.873  67.250  1.00  0.00    -0.238 C  
HETATM   13  O   UNL     1      -8.375   9.287  66.828  1.00  0.00    -0.120 OA 
HETATM   14  H   UNL     1      -8.631   8.925  65.988  1.00  0.00     0.000 HD 
HETATM   15  H   UNL     1      -9.423  12.757  68.049  1.00  0.00     0.000 HD 
BRANCH   6  16
HETATM   16  C   UNL     1      -7.995   8.844  70.139  1.00  0.00    -0.111 C  
HETATM   17  C   UNL     1      -5.167  10.040  67.842  1.00  0.00    -0.038 A  
HETATM   18  C   UNL     1      -6.936   8.839  69.028  1.00  0.00    -0.064 A  
HETATM   19  C   UNL     1      -5.999   9.888  68.951  1.00  0.00    -0.037 A  
HETATM   20  C   UNL     1      -5.264   9.154  66.778  1.00  0.00    -0.038 A  
HETATM   21  C   UNL     1      -6.146   8.078  66.859  1.00  0.00    -0.053 A  
HETATM   22  O   UNL     1      -6.241   7.246  65.779  1.00  0.00    -0.036 OA 
HETATM   23  C   UNL     1      -6.944   7.878  68.002  1.00  0.00    -0.073 A  
HETATM   24  H   UNL     1      -6.843   6.513  65.834  1.00  0.00     0.000 HD 
HETATM   25  C   UNL     1      -7.753   6.634  68.166  1.00  0.00    -0.105 C  
HETATM   26  O   UNL     1      -7.581   5.684  67.413  1.00  0.00    -0.087 OA 
HETATM   27  C   UNL     1      -8.658   6.500  69.342  1.00  0.00    -0.134 A  
HETATM   28  C   UNL     1      -8.616   7.470  70.348  1.00  0.00    -0.143 A  
HETATM   29  C   UNL     1      -9.279   7.200  71.557  1.00  0.00    -0.148 A  
HETATM   30  C   UNL     1     -10.193   6.151  71.688  1.00  0.00    -0.235 A  
HETATM   31  C   UNL     1     -10.291   5.233  70.646  1.00  0.00    -0.324 A  
HETATM   32  H   UNL     1     -10.184   3.686  68.634  1.00  0.00     0.000 HD 
HETATM   33  O   UNL     1      -9.615   4.439  68.525  1.00  0.00    -0.149 OA 
HETATM   34  C   UNL     1      -9.502   5.383  69.503  1.00  0.00    -0.133 A  
BRANCH  30  35
HETATM   35  C   UNL     1     -11.103   6.098  72.888  1.00  0.00    -0.247 C  
HETATM   36  O   UNL     1     -11.583   7.408  73.180  1.00  0.00    -0.598 OA 
HETATM   37  H   UNL     1     -12.156   7.375  73.936  1.00  0.00     0.000 HD 
ENDBRANCH  30  35
ENDBRANCH   6  16
ENDBRANCH   2   4
TORSDOF 3
ENDMDL
MODEL      129
REMARK 921   NORMALIZED FREE ENERGY PREDICTED BY IDOCK:    2.03 KCAL/MOL
REMARK 922        TOTAL FREE ENERGY PREDICTED BY IDOCK:    1.73 KCAL/MOL
REMARK 923 INTER-LIGAND FREE ENERGY PREDICTED BY IDOCK:   -5.57 KCAL/MOL
REMARK 924 INTRA-LIGAND FREE ENERGY PREDICTED BY IDOCK:    7.30 KCAL/MOL
REMARK 927      BINDING AFFINITY PREDICTED BY RF-SCORE:    0.00 PKD
ROOT
HETATM    1  O   UNL     1     -11.902   6.652  69.204  1.00  0.00    -0.592 OA 
HETATM    2  C   UNL     1     -10.739   6.000  69.687  1.00  0.00    -0.335 C  
HETATM    3  H   UNL     1     -12.106   6.440  68.301  1.00  0.00     0.000 HD 
ENDROOT
BRANCH   2   4
HETATM    4  C   UNL     1     -10.410   6.343  71.149  1.00  0.00    -0.205 C  
HETATM    5  O   UNL     1      -8.991   6.231  71.377  1.00  0.00    -0.139 OA 
HETATM    6  C   UNL     1      -8.125   7.361  71.101  1.00  0.00    -0.101 C  
HETATM    7  H   UNL     1     -11.692   8.347  73.388  1.00  0.00     0.000 HD 
HETATM    8  C   UNL     1      -8.739   8.659  71.698  1.00  0.00    -0.203 C  
HETATM    9  O   UNL     1     -11.290   7.546  73.073  1.00  0.00    -0.341 OA 
HETATM   10  O   UNL     1      -8.686   8.623  73.148  1.00  0.00    -0.371 OA 
HETATM   11  C   UNL     1     -10.215   8.866  71.307  1.00  0.00    -0.291 C  
HETATM   12  C   UNL     1     -11.063   7.643  71.660  1.00  0.00    -0.239 C  
HETATM   13  O   UNL     1     -10.353   9.188  69.921  1.00  0.00    -0.195 OA 
HETATM   14  H   UNL     1     -11.263   9.316  69.679  1.00  0.00     0.000 HD 
HETATM   15  H   UNL     1      -9.061   9.416  73.513  1.00  0.00     0.000 HD 
BRANCH   6  16
HETATM   16  C   UNL     1      -7.537   7.377  69.610  1.00  0.00    -0.095 C  
HETATM   17  C   UNL     1      -7.643  11.160  68.989  1.00  0.00    -0.119 A  
HETATM   18  C   UNL     1      -7.892   8.728  68.972  1.00  0.00    -0.096 A  
HETATM   19  C   UNL     1      -7.210   9.893  69.376  1.00  0.00    -0.083 A  
HETATM   20  C   UNL     1      -8.779  11.292  68.203  1.00  0.00    -0.155 A  
HETATM   21  C   UNL     1      -9.436  10.151  67.748  1.00  0.00    -0.144 A  
HETATM   22  O   UNL     1     -10.571  10.319  67.005  1.00  0.00    -0.248 OA 
HETATM   23  C   UNL     1      -8.968   8.864  68.078  1.00  0.00    -0.140 A  
HETATM   24  H   UNL     1     -11.019   9.541  66.696  1.00  0.00     0.000 HD 
HETATM   25  C   UNL     1      -9.560   7.647  67.449  1.00  0.00    -0.147 C  
HETATM   26  O   UNL     1     -10.317   7.754  66.492  1.00  0.00    -0.234 OA 
HETATM   27  C   UNL     1      -9.106   6.300  67.893  1.00  0.00    -0.111 A  
HETATM   28  C   UNL     1      -8.026   6.202  68.776  1.00  0.00    -0.101 A  
HETATM   29  C   UNL     1      -7.450   4.936  68.981  1.00  0.00    -0.061 A  
HETATM   30  C   UNL     1      -8.077   3.756  68.570  1.00  0.00    -0.079 A  
HETATM   31  C   UNL     1      -9.203   3.861  67.758  1.00  0.00    -0.206 A  
HETATM   32  H   UNL     1     -11.167   4.368  66.230  1.00  0.00     0.000 HD 
HETATM   33  O   UNL     1     -10.776   5.165  66.569  1.00  0.00    -0.300 OA 
HETATM   34  C   UNL     1      -9.688   5.118  67.390  1.00  0.00    -0.152 A  
BRANCH  30  35
HETATM   35  C   UNL     1      -7.585   2.430  69.088  1.00  0.00    -0.043 C  
HETATM   36  O   UNL     1      -7.546   2.460  70.512  1.00  0.00    -0.042 OA 
HETATM   37  H   UNL     1      -7.236   1.623  70.839  1.00  0.00     0.000 HD 
ENDBRANCH  30  35
ENDBRANCH   6  16
ENDBRANCH   2   4
TORSDOF 3
ENDMDL
MODEL      130
REMARK 921   NORMALIZED FREE ENERGY PREDICTED BY IDOCK:    2.09 KCAL/MOL
REMARK 922        TOTAL FREE ENERGY PREDICTED BY IDOCK:    1.80 KCAL/MOL
REMARK 923 INTER-LIGAND FREE ENERGY PREDICTED BY IDOCK:   -5.48 KCAL/MOL
REMARK 924 INTRA-LIGAND FREE ENERGY PREDICTED BY IDOCK:    7.29 KCAL/MOL
REMARK 927      BINDING AFFINITY PREDICTED BY RF-SCORE:    0.00 PKD
ROOT
HETATM    1  O   UNL     1     -11.457   6.785  67.207  1.00  0.00    -0.752 OA 
HETATM    2  C   UNL     1     -10.073   7.083  67.105  1.00  0.00    -0.217 C  
HETATM    3  H   UNL     1     -11.991   7.540  67.422  1.00  0.00     0.000 HD 
ENDROOT
BRANCH   2   4
HETATM    4  C   UNL     1      -9.209   5.861  66.757  1.00  0.00    -0.133 C  
HETATM    5  O   UNL     1      -7.847   6.083  67.171  1.00  0.00    -0.100 OA 
HETATM    6  C   UNL     1      -7.443   5.762  68.525  1.00  0.00    -0.085 C  
HETATM    7  H   UNL     1      -9.748   2.644  66.552  1.00  0.00     0.000 HD 
HETATM    8  C   UNL     1      -7.980   4.357  68.921  1.00  0.00    -0.073 C  
HETATM    9  O   UNL     1      -9.372   3.477  66.291  1.00  0.00    -0.168 OA 
HETATM   10  O   UNL     1      -7.285   3.323  68.178  1.00  0.00    -0.050 OA 
HETATM   11  C   UNL     1      -9.484   4.181  68.637  1.00  0.00    -0.156 C  
HETATM   12  C   UNL     1      -9.819   4.509  67.181  1.00  0.00    -0.189 C  
HETATM   13  O   UNL     1     -10.283   4.968  69.524  1.00  0.00    -0.234 OA 
HETATM   14  H   UNL     1     -11.211   4.860  69.350  1.00  0.00     0.000 HD 
HETATM   15  H   UNL     1      -7.612   2.464  68.419  1.00  0.00     0.000 HD 
BRANCH   6  16
HETATM   16  C   UNL     1      -7.592   6.984  69.553  1.00  0.00    -0.098 C  
HETATM   17  C   UNL     1      -8.839   5.024  72.604  1.00  0.00    -0.124 A  
HETATM   18  C   UNL     1      -8.495   6.529  70.707  1.00  0.00    -0.134 A  
HETATM   19  C   UNL     1      -7.997   5.630  71.672  1.00  0.00    -0.117 A  
HETATM   20  C   UNL     1     -10.200   5.291  72.582  1.00  0.00    -0.227 A  
HETATM   21  C   UNL     1     -10.705   6.217  71.672  1.00  0.00    -0.239 A  
HETATM   22  O   UNL     1     -12.055   6.429  71.656  1.00  0.00    -0.332 OA 
HETATM   23  C   UNL     1      -9.854   6.885  70.770  1.00  0.00    -0.190 A  
HETATM   24  H   UNL     1     -12.398   7.060  71.035  1.00  0.00     0.000 HD 
HETATM   25  C   UNL     1     -10.360   8.003  69.920  1.00  0.00    -0.221 C  
HETATM   26  O   UNL     1     -11.462   8.491  70.137  1.00  0.00    -0.154 OA 
HETATM   27  C   UNL     1      -9.457   8.621  68.910  1.00  0.00    -0.146 A  
HETATM   28  C   UNL     1      -8.109   8.250  68.884  1.00  0.00    -0.115 A  
HETATM   29  C   UNL     1      -7.225   9.019  68.108  1.00  0.00    -0.079 A  
HETATM   30  C   UNL     1      -7.674   9.944  67.162  1.00  0.00    -0.092 A  
HETATM   31  C   UNL     1      -9.033  10.249  67.137  1.00  0.00    -0.145 A  
HETATM   32  H   UNL     1     -11.527  10.658  67.389  1.00  0.00     0.000 HD 
HETATM   33  O   UNL     1     -11.223   9.982  67.983  1.00  0.00    -0.244 OA 
HETATM   34  C   UNL     1      -9.907   9.625  68.029  1.00  0.00    -0.150 A  
BRANCH  30  35
HETATM   35  C   UNL     1      -6.711  10.502  66.146  1.00  0.00    -0.127 C  
HETATM   36  O   UNL     1      -6.510  11.891  66.394  1.00  0.00    -0.394 OA 
HETATM   37  H   UNL     1      -5.903  12.243  65.753  1.00  0.00     0.000 HD 
ENDBRANCH  30  35
ENDBRANCH   6  16
ENDBRANCH   2   4
TORSDOF 3
ENDMDL
MODEL      131
REMARK 921   NORMALIZED FREE ENERGY PREDICTED BY IDOCK:    2.15 KCAL/MOL
REMARK 922        TOTAL FREE ENERGY PREDICTED BY IDOCK:    1.88 KCAL/MOL
REMARK 923 INTER-LIGAND FREE ENERGY PREDICTED BY IDOCK:   -5.37 KCAL/MOL
REMARK 924 INTRA-LIGAND FREE ENERGY PREDICTED BY IDOCK:    7.25 KCAL/MOL
REMARK 927      BINDING AFFINITY PREDICTED BY RF-SCORE:    0.00 PKD
ROOT
HETATM    1  O   UNL     1     -11.355   7.700  67.094  1.00  0.00    -0.330 OA 
HETATM    2  C   UNL     1     -10.283   8.319  67.787  1.00  0.00    -0.223 C  
HETATM    3  H   UNL     1     -11.300   6.752  67.084  1.00  0.00     0.000 HD 
ENDROOT
BRANCH   2   4
HETATM    4  C   UNL     1     -10.373   9.854  67.804  1.00  0.00    -0.221 C  
HETATM    5  O   UNL     1      -9.114  10.420  68.220  1.00  0.00    -0.138 OA 
HETATM    6  C   UNL     1      -8.076  10.667  67.240  1.00  0.00    -0.116 C  
HETATM    7  H   UNL     1     -12.020  12.083  66.073  1.00  0.00     0.000 HD 
HETATM    8  C   UNL     1      -8.679  11.373  65.993  1.00  0.00    -0.131 C  
HETATM    9  O   UNL     1     -11.641  11.703  66.858  1.00  0.00    -0.507 OA 
HETATM   10  O   UNL     1      -9.072  12.730  66.321  1.00  0.00    -0.407 OA 
HETATM   11  C   UNL     1      -9.931  10.663  65.442  1.00  0.00    -0.281 C  
HETATM   12  C   UNL     1     -10.987  10.470  66.531  1.00  0.00     0.016 C  
HETATM   13  O   UNL     1      -9.602   9.410  64.835  1.00  0.00    -0.445 OA 
HETATM   14  H   UNL     1     -10.373   8.972  64.495  1.00  0.00     0.000 HD 
HETATM   15  H   UNL     1      -9.441  13.162  65.559  1.00  0.00     0.000 HD 
BRANCH   6  16
HETATM   16  C   UNL     1      -7.065   9.437  67.042  1.00  0.00    -0.086 C  
HETATM   17  C   UNL     1      -6.362   9.866  63.297  1.00  0.00    -0.124 A  
HETATM   18  C   UNL     1      -6.985   9.124  65.542  1.00  0.00    -0.081 A  
HETATM   19  C   UNL     1      -6.279   9.989  64.683  1.00  0.00    -0.124 A  
HETATM   20  C   UNL     1      -7.166   8.883  62.737  1.00  0.00    -0.095 A  
HETATM   21  C   UNL     1      -7.830   7.983  63.568  1.00  0.00    -0.146 A  
HETATM   22  O   UNL     1      -8.641   7.051  62.984  1.00  0.00    -0.347 OA 
HETATM   23  C   UNL     1      -7.700   8.057  64.969  1.00  0.00    -0.112 A  
HETATM   24  H   UNL     1      -9.093   6.437  63.551  1.00  0.00     0.000 HD 
HETATM   25  C   UNL     1      -8.261   6.991  65.850  1.00  0.00    -0.133 C  
HETATM   26  O   UNL     1      -8.662   5.940  65.366  1.00  0.00    -0.153 OA 
HETATM   27  C   UNL     1      -8.189   7.151  67.329  1.00  0.00    -0.119 A  
HETATM   28  C   UNL     1      -7.461   8.219  67.864  1.00  0.00    -0.098 A  
HETATM   29  C   UNL     1      -7.189   8.210  69.243  1.00  0.00    -0.072 A  
HETATM   30  C   UNL     1      -7.843   7.348  70.127  1.00  0.00    -0.099 A  
HETATM   31  C   UNL     1      -8.635   6.336  69.590  1.00  0.00    -0.133 A  
HETATM   32  H   UNL     1      -9.930   4.557  68.322  1.00  0.00     0.000 HD 
HETATM   33  O   UNL     1      -9.536   5.188  67.731  1.00  0.00    -0.127 OA 
HETATM   34  C   UNL     1      -8.773   6.214  68.206  1.00  0.00    -0.114 A  
BRANCH  30  35
HETATM   35  C   UNL     1      -7.755   7.592  71.611  1.00  0.00    -0.085 C  
HETATM   36  O   UNL     1      -8.253   8.893  71.910  1.00  0.00    -0.345 OA 
HETATM   37  H   UNL     1      -8.197   9.047  72.846  1.00  0.00     0.000 HD 
ENDBRANCH  30  35
ENDBRANCH   6  16
ENDBRANCH   2   4
TORSDOF 3
ENDMDL
MODEL      132
REMARK 921   NORMALIZED FREE ENERGY PREDICTED BY IDOCK:    2.22 KCAL/MOL
REMARK 922        TOTAL FREE ENERGY PREDICTED BY IDOCK:    1.96 KCAL/MOL
REMARK 923 INTER-LIGAND FREE ENERGY PREDICTED BY IDOCK:   -5.56 KCAL/MOL
REMARK 924 INTRA-LIGAND FREE ENERGY PREDICTED BY IDOCK:    7.51 KCAL/MOL
REMARK 927      BINDING AFFINITY PREDICTED BY RF-SCORE:    0.00 PKD
ROOT
HETATM    1  O   UNL     1     -10.181  11.308  70.053  1.00  0.00    -0.131 OA 
HETATM    2  C   UNL     1      -9.872  10.604  68.859  1.00  0.00    -0.201 C  
HETATM    3  H   UNL     1      -9.651  12.086  70.179  1.00  0.00     0.000 HD 
ENDROOT
BRANCH   2   4
HETATM    4  C   UNL     1     -10.729   9.345  68.654  1.00  0.00    -0.160 C  
HETATM    5  O   UNL     1     -11.147   9.248  67.279  1.00  0.00    -0.054 OA 
HETATM    6  C   UNL     1     -10.285   8.606  66.307  1.00  0.00    -0.050 C  
HETATM    7  H   UNL     1     -10.807   6.369  70.001  1.00  0.00     0.000 HD 
HETATM    8  C   UNL     1      -9.749   7.262  66.878  1.00  0.00    -0.194 C  
HETATM    9  O   UNL     1     -11.179   7.161  69.631  1.00  0.00    -0.215 OA 
HETATM   10  O   UNL     1     -10.822   6.290  66.974  1.00  0.00    -0.323 OA 
HETATM   11  C   UNL     1      -9.141   7.402  68.287  1.00  0.00    -0.128 C  
HETATM   12  C   UNL     1     -10.126   8.059  69.256  1.00  0.00    -0.198 C  
HETATM   13  O   UNL     1      -7.908   8.125  68.259  1.00  0.00    -0.117 OA 
HETATM   14  H   UNL     1      -7.533   8.211  69.128  1.00  0.00     0.000 HD 
HETATM   15  H   UNL     1     -10.496   5.469  67.323  1.00  0.00     0.000 HD 
BRANCH   6  16
HETATM   16  C   UNL     1      -9.275   9.611  65.571  1.00  0.00    -0.291 C  
HETATM   17  C   UNL     1      -6.095   7.476  65.759  1.00  0.00    -0.038 A  
HETATM   18  C   UNL     1      -7.842   9.181  65.911  1.00  0.00    -0.105 A  
HETATM   19  C   UNL     1      -7.300   8.023  65.319  1.00  0.00    -0.070 A  
HETATM   20  C   UNL     1      -5.413   8.066  66.814  1.00  0.00    -0.032 A  
HETATM   21  C   UNL     1      -5.904   9.243  67.378  1.00  0.00    -0.046 A  
HETATM   22  O   UNL     1      -5.225   9.777  68.437  1.00  0.00    -0.034 OA 
HETATM   23  C   UNL     1      -7.085   9.840  66.896  1.00  0.00    -0.089 A  
HETATM   24  H   UNL     1      -5.560  10.578  68.821  1.00  0.00     0.000 HD 
HETATM   25  C   UNL     1      -7.514  11.187  67.374  1.00  0.00    -0.109 C  
HETATM   26  O   UNL     1      -6.749  11.879  68.034  1.00  0.00    -0.063 OA 
HETATM   27  C   UNL     1      -8.817  11.745  66.915  1.00  0.00    -0.191 A  
HETATM   28  C   UNL     1      -9.538  11.067  65.927  1.00  0.00    -0.255 A  
HETATM   29  C   UNL     1     -10.623  11.729  65.327  1.00  0.00    -0.327 A  
HETATM   30  C   UNL     1     -11.173  12.897  65.863  1.00  0.00    -0.323 A  
HETATM   31  C   UNL     1     -10.493  13.524  66.904  1.00  0.00    -0.271 A  
HETATM   32  H   UNL     1      -8.996  14.475  68.722  1.00  0.00     0.000 HD 
HETATM   33  O   UNL     1      -8.665  13.645  68.397  1.00  0.00    -0.176 OA 
HETATM   34  C   UNL     1      -9.307  12.976  67.397  1.00  0.00    -0.209 A  
BRANCH  30  35
HETATM   35  C   UNL     1     -12.513  13.383  65.376  1.00  0.00    -0.494 C  
HETATM   36  O   UNL     1     -12.559  13.307  63.953  1.00  0.00    -0.661 OA 
HETATM   37  H   UNL     1     -13.404  13.614  63.646  1.00  0.00     0.000 HD 
ENDBRANCH  30  35
ENDBRANCH   6  16
ENDBRANCH   2   4
TORSDOF 3
ENDMDL
MODEL      133
REMARK 921   NORMALIZED FREE ENERGY PREDICTED BY IDOCK:    2.26 KCAL/MOL
REMARK 922        TOTAL FREE ENERGY PREDICTED BY IDOCK:    2.00 KCAL/MOL
REMARK 923 INTER-LIGAND FREE ENERGY PREDICTED BY IDOCK:   -5.29 KCAL/MOL
REMARK 924 INTRA-LIGAND FREE ENERGY PREDICTED BY IDOCK:    7.29 KCAL/MOL
REMARK 927      BINDING AFFINITY PREDICTED BY RF-SCORE:    0.00 PKD
ROOT
HETATM    1  O   UNL     1     -11.157   7.918  67.909  1.00  0.00    -0.471 OA 
HETATM    2  C   UNL     1     -10.178   7.480  68.839  1.00  0.00    -0.208 C  
HETATM    3  H   UNL     1     -11.746   8.573  68.262  1.00  0.00     0.000 HD 
ENDROOT
BRANCH   2   4
HETATM    4  C   UNL     1      -9.224   6.420  68.266  1.00  0.00    -0.112 C  
HETATM    5  O   UNL     1      -7.936   6.514  68.906  1.00  0.00    -0.108 OA 
HETATM    6  C   UNL     1      -7.695   5.807  70.148  1.00  0.00    -0.087 C  
HETATM    7  H   UNL     1      -9.589   3.407  67.053  1.00  0.00     0.000 HD 
HETATM    8  C   UNL     1      -8.215   4.346  70.037  1.00  0.00    -0.062 C  
HETATM    9  O   UNL     1      -9.221   4.282  67.101  1.00  0.00    -0.128 OA 
HETATM   10  O   UNL     1      -7.386   3.582  69.123  1.00  0.00    -0.049 OA 
HETATM   11  C   UNL     1      -9.661   4.256  69.514  1.00  0.00    -0.201 C  
HETATM   12  C   UNL     1      -9.822   5.000  68.187  1.00  0.00    -0.146 C  
HETATM   13  O   UNL     1     -10.601   4.740  70.477  1.00  0.00    -0.109 OA 
HETATM   14  H   UNL     1     -11.493   4.684  70.155  1.00  0.00     0.000 HD 
HETATM   15  H   UNL     1      -7.703   2.689  69.055  1.00  0.00     0.000 HD 
BRANCH   6  16
HETATM   16  C   UNL     1      -8.027   6.667  71.459  1.00  0.00    -0.103 C  
HETATM   17  C   UNL     1      -9.650   3.905  73.567  1.00  0.00    -0.133 A  
HETATM   18  C   UNL     1      -9.076   5.902  72.278  1.00  0.00    -0.142 A  
HETATM   19  C   UNL     1      -8.699   4.748  72.993  1.00  0.00    -0.113 A  
HETATM   20  C   UNL     1     -11.001   4.188  73.424  1.00  0.00    -0.350 A  
HETATM   21  C   UNL     1     -11.393   5.353  72.768  1.00  0.00    -0.296 A  
HETATM   22  O   UNL     1     -12.731   5.583  72.616  1.00  0.00    -0.338 OA 
HETATM   23  C   UNL     1     -10.439   6.246  72.243  1.00  0.00    -0.227 A  
HETATM   24  H   UNL     1     -12.998   6.376  72.168  1.00  0.00     0.000 HD 
HETATM   25  C   UNL     1     -10.847   7.575  71.701  1.00  0.00    -0.219 C  
HETATM   26  O   UNL     1     -11.983   7.994  71.888  1.00  0.00    -0.284 OA 
HETATM   27  C   UNL     1      -9.824   8.453  71.067  1.00  0.00    -0.232 A  
HETATM   28  C   UNL     1      -8.477   8.084  71.130  1.00  0.00    -0.134 A  
HETATM   29  C   UNL     1      -7.511   9.035  70.760  1.00  0.00    -0.121 A  
HETATM   30  C   UNL     1      -7.843  10.209  70.077  1.00  0.00    -0.131 A  
HETATM   31  C   UNL     1      -9.192  10.530  69.944  1.00  0.00     0.243 A  
HETATM   32  H   UNL     1     -11.706  10.886  69.934  1.00  0.00     0.000 HD 
HETATM   33  O   UNL     1     -11.474  10.058  70.337  1.00  0.00    -0.271 OA 
HETATM   34  C   UNL     1     -10.169   9.682  70.469  1.00  0.00    -0.287 A  
BRANCH  30  35
HETATM   35  C   UNL     1      -6.759  11.028  69.429  1.00  0.00    -0.112 C  
HETATM   36  O   UNL     1      -6.628  12.272  70.113  1.00  0.00    -0.362 OA 
HETATM   37  H   UNL     1      -5.944  12.789  69.705  1.00  0.00     0.000 HD 
ENDBRANCH  30  35
ENDBRANCH   6  16
ENDBRANCH   2   4
TORSDOF 3
ENDMDL
MODEL      134
REMARK 921   NORMALIZED FREE ENERGY PREDICTED BY IDOCK:    2.30 KCAL/MOL
REMARK 922        TOTAL FREE ENERGY PREDICTED BY IDOCK:    2.06 KCAL/MOL
REMARK 923 INTER-LIGAND FREE ENERGY PREDICTED BY IDOCK:   -5.12 KCAL/MOL
REMARK 924 INTRA-LIGAND FREE ENERGY PREDICTED BY IDOCK:    7.18 KCAL/MOL
REMARK 927      BINDING AFFINITY PREDICTED BY RF-SCORE:    0.00 PKD
ROOT
HETATM    1  O   UNL     1     -11.731   7.013  69.481  1.00  0.00    -0.552 OA 
HETATM    2  C   UNL     1     -10.360   7.381  69.485  1.00  0.00    -0.217 C  
HETATM    3  H   UNL     1     -11.893   6.156  69.856  1.00  0.00     0.000 HD 
ENDROOT
BRANCH   2   4
HETATM    4  C   UNL     1     -10.099   8.768  68.879  1.00  0.00    -0.198 C  
HETATM    5  O   UNL     1      -8.692   9.075  68.932  1.00  0.00    -0.133 OA 
HETATM    6  C   UNL     1      -7.818   8.637  67.862  1.00  0.00    -0.103 C  
HETATM    7  H   UNL     1     -11.487  10.548  66.515  1.00  0.00     0.000 HD 
HETATM    8  C   UNL     1      -8.461   8.961  66.484  1.00  0.00    -0.119 C  
HETATM    9  O   UNL     1     -11.069  10.401  67.356  1.00  0.00    -0.299 OA 
HETATM   10  O   UNL     1      -8.474  10.393  66.255  1.00  0.00    -0.135 OA 
HETATM   11  C   UNL     1      -9.919   8.474  66.367  1.00  0.00    -0.244 C  
HETATM   12  C   UNL     1     -10.778   9.006  67.515  1.00  0.00    -0.169 C  
HETATM   13  O   UNL     1      -9.994   7.047  66.304  1.00  0.00    -0.423 OA 
HETATM   14  H   UNL     1     -10.892   6.746  66.231  1.00  0.00     0.000 HD 
HETATM   15  H   UNL     1      -8.867  10.592  65.413  1.00  0.00     0.000 HD 
BRANCH   6  16
HETATM   16  C   UNL     1      -7.162   7.195  68.110  1.00  0.00    -0.095 C  
HETATM   17  C   UNL     1      -7.363   5.845  64.526  1.00  0.00    -0.067 A  
HETATM   18  C   UNL     1      -7.531   6.293  66.924  1.00  0.00    -0.087 A  
HETATM   19  C   UNL     1      -6.907   6.488  65.676  1.00  0.00    -0.049 A  
HETATM   20  C   UNL     1      -8.466   5.005  64.595  1.00  0.00    -0.145 A  
HETATM   21  C   UNL     1      -9.064   4.756  65.829  1.00  0.00    -0.142 A  
HETATM   22  O   UNL     1     -10.168   3.952  65.854  1.00  0.00    -0.420 OA 
HETATM   23  C   UNL     1      -8.570   5.348  67.007  1.00  0.00    -0.109 A  
HETATM   24  H   UNL     1     -10.576   3.783  66.695  1.00  0.00     0.000 HD 
HETATM   25  C   UNL     1      -9.092   4.947  68.347  1.00  0.00    -0.114 C  
HETATM   26  O   UNL     1      -9.807   3.959  68.458  1.00  0.00    -0.090 OA 
HETATM   27  C   UNL     1      -8.615   5.662  69.563  1.00  0.00    -0.110 A  
HETATM   28  C   UNL     1      -7.573   6.588  69.444  1.00  0.00    -0.096 A  
HETATM   29  C   UNL     1      -6.967   7.058  70.621  1.00  0.00    -0.062 A  
HETATM   30  C   UNL     1      -7.535   6.861  71.883  1.00  0.00    -0.088 A  
HETATM   31  C   UNL     1      -8.626   6.001  71.983  1.00  0.00    -0.136 A  
HETATM   32  H   UNL     1     -10.534   4.329  71.862  1.00  0.00     0.000 HD 
HETATM   33  O   UNL     1     -10.184   4.521  71.000  1.00  0.00    -0.183 OA 
HETATM   34  C   UNL     1      -9.134   5.377  70.842  1.00  0.00    -0.139 A  
BRANCH  30  35
HETATM   35  C   UNL     1      -7.025   7.646  73.063  1.00  0.00    -0.072 C  
HETATM   36  O   UNL     1      -7.181   9.040  72.810  1.00  0.00    -0.325 OA 
HETATM   37  H   UNL     1      -6.859   9.536  73.555  1.00  0.00     0.000 HD 
ENDBRANCH  30  35
ENDBRANCH   6  16
ENDBRANCH   2   4
TORSDOF 3
ENDMDL
MODEL      135
REMARK 921   NORMALIZED FREE ENERGY PREDICTED BY IDOCK:    2.39 KCAL/MOL
REMARK 922        TOTAL FREE ENERGY PREDICTED BY IDOCK:    2.15 KCAL/MOL
REMARK 923 INTER-LIGAND FREE ENERGY PREDICTED BY IDOCK:   -5.29 KCAL/MOL
REMARK 924 INTRA-LIGAND FREE ENERGY PREDICTED BY IDOCK:    7.44 KCAL/MOL
REMARK 927      BINDING AFFINITY PREDICTED BY RF-SCORE:    0.00 PKD
ROOT
HETATM    1  O   UNL     1      -8.860  10.083  70.463  1.00  0.00    -0.332 OA 
HETATM    2  C   UNL     1      -8.146   9.455  69.409  1.00  0.00    -0.105 C  
HETATM    3  H   UNL     1      -9.654   9.622  70.707  1.00  0.00     0.000 HD 
ENDROOT
BRANCH   2   4
HETATM    4  C   UNL     1      -6.861  10.199  69.014  1.00  0.00    -0.056 C  
HETATM    5  O   UNL     1      -6.595  10.019  67.609  1.00  0.00    -0.066 OA 
HETATM    6  C   UNL     1      -7.201  10.912  66.641  1.00  0.00    -0.139 C  
HETATM    7  H   UNL     1      -5.370  12.921  70.038  1.00  0.00     0.000 HD 
HETATM    8  C   UNL     1      -7.043  12.387  67.107  1.00  0.00    -0.077 C  
HETATM    9  O   UNL     1      -5.416  12.025  69.725  1.00  0.00    -0.074 OA 
HETATM   10  O   UNL     1      -5.655  12.799  67.025  1.00  0.00    -0.373 OA 
HETATM   11  C   UNL     1      -7.494  12.613  68.563  1.00  0.00    -0.121 C  
HETATM   12  C   UNL     1      -6.786  11.654  69.521  1.00  0.00    -0.051 C  
HETATM   13  O   UNL     1      -8.913  12.500  68.699  1.00  0.00    -0.367 OA 
HETATM   14  H   UNL     1      -9.192  12.640  69.597  1.00  0.00     0.000 HD 
HETATM   15  H   UNL     1      -5.558  13.700  67.310  1.00  0.00     0.000 HD 
BRANCH   6  16
HETATM   16  C   UNL     1      -8.617  10.404  66.087  1.00  0.00    -0.151 C  
HETATM   17  C   UNL     1     -10.343  13.807  65.706  1.00  0.00    -0.315 A  
HETATM   18  C   UNL     1      -9.636  11.536  66.274  1.00  0.00    -0.239 A  
HETATM   19  C   UNL     1      -9.586  12.667  65.436  1.00  0.00     0.017 A  
HETATM   20  C   UNL     1     -11.154  13.847  66.831  1.00  0.00    -0.309 A  
HETATM   21  C   UNL     1     -11.259  12.720  67.643  1.00  0.00    -0.280 A  
HETATM   22  O   UNL     1     -12.040  12.807  68.761  1.00  0.00    -0.276 OA 
HETATM   23  C   UNL     1     -10.551  11.541  67.343  1.00  0.00    -0.252 A  
HETATM   24  H   UNL     1     -12.111  12.039  69.315  1.00  0.00     0.000 HD 
HETATM   25  C   UNL     1     -10.797  10.281  68.104  1.00  0.00    -0.265 C  
HETATM   26  O   UNL     1     -11.757  10.196  68.860  1.00  0.00    -0.075 OA 
HETATM   27  C   UNL     1      -9.962   9.080  67.822  1.00  0.00    -0.235 A  
HETATM   28  C   UNL     1      -9.070   9.108  66.745  1.00  0.00    -0.176 A  
HETATM   29  C   UNL     1      -8.485   7.897  66.338  1.00  0.00    -0.139 A  
HETATM   30  C   UNL     1      -8.536   6.742  67.124  1.00  0.00    -0.120 A  
HETATM   31  C   UNL     1      -9.364   6.748  68.244  1.00  0.00    -0.124 A  
HETATM   32  H   UNL     1     -11.011   7.031  70.156  1.00  0.00     0.000 HD 
HETATM   33  O   UNL     1     -10.918   7.833  69.655  1.00  0.00    -0.220 OA 
HETATM   34  C   UNL     1     -10.100   7.890  68.566  1.00  0.00    -0.197 A  
BRANCH  30  35
HETATM   35  C   UNL     1      -7.636   5.579  66.801  1.00  0.00    -0.088 C  
HETATM   36  O   UNL     1      -7.708   5.293  65.407  1.00  0.00    -0.084 OA 
HETATM   37  H   UNL     1      -7.140   4.559  65.203  1.00  0.00     0.000 HD 
ENDBRANCH  30  35
ENDBRANCH   6  16
ENDBRANCH   2   4
TORSDOF 3
ENDMDL
MODEL      136
REMARK 921   NORMALIZED FREE ENERGY PREDICTED BY IDOCK:    2.45 KCAL/MOL
REMARK 922        TOTAL FREE ENERGY PREDICTED BY IDOCK:    2.22 KCAL/MOL
REMARK 923 INTER-LIGAND FREE ENERGY PREDICTED BY IDOCK:   -5.08 KCAL/MOL
REMARK 924 INTRA-LIGAND FREE ENERGY PREDICTED BY IDOCK:    7.31 KCAL/MOL
REMARK 927      BINDING AFFINITY PREDICTED BY RF-SCORE:    0.00 PKD
ROOT
HETATM    1  O   UNL     1     -11.559   7.104  67.152  1.00  0.00    -0.403 OA 
HETATM    2  C   UNL     1     -10.171   7.378  67.040  1.00  0.00    -0.287 C  
HETATM    3  H   UNL     1     -12.063   7.841  67.475  1.00  0.00     0.000 HD 
ENDROOT
BRANCH   2   4
HETATM    4  C   UNL     1      -9.354   6.185  66.517  1.00  0.00    -0.153 C  
HETATM    5  O   UNL     1      -8.188   6.654  65.813  1.00  0.00    -0.122 OA 
HETATM    6  C   UNL     1      -6.970   6.940  66.545  1.00  0.00    -0.066 C  
HETATM    7  H   UNL     1      -8.817   3.132  67.551  1.00  0.00     0.000 HD 
HETATM    8  C   UNL     1      -6.660   5.782  67.535  1.00  0.00    -0.056 C  
HETATM    9  O   UNL     1      -8.975   3.812  66.906  1.00  0.00    -0.122 OA 
HETATM   10  O   UNL     1      -6.267   4.588  66.810  1.00  0.00    -0.030 OA 
HETATM   11  C   UNL     1      -7.866   5.398  68.414  1.00  0.00    -0.084 C  
HETATM   12  C   UNL     1      -9.097   5.081  67.563  1.00  0.00    -0.116 C  
HETATM   13  O   UNL     1      -8.167   6.417  69.371  1.00  0.00    -0.115 OA 
HETATM   14  H   UNL     1      -8.910   6.180  69.913  1.00  0.00     0.000 HD 
HETATM   15  H   UNL     1      -6.078   3.880  67.414  1.00  0.00     0.000 HD 
BRANCH   6  16
HETATM   16  C   UNL     1      -6.856   8.460  67.044  1.00  0.00    -0.070 C  
HETATM   17  C   UNL     1      -5.410   7.813  70.536  1.00  0.00    -0.023 A  
HETATM   18  C   UNL     1      -6.721   8.450  68.573  1.00  0.00    -0.063 A  
HETATM   19  C   UNL     1      -5.508   8.046  69.165  1.00  0.00    -0.030 A  
HETATM   20  C   UNL     1      -6.527   7.964  71.344  1.00  0.00    -0.038 A  
HETATM   21  C   UNL     1      -7.722   8.416  70.788  1.00  0.00    -0.083 A  
HETATM   22  O   UNL     1      -8.811   8.520  71.607  1.00  0.00    -0.170 OA 
HETATM   23  C   UNL     1      -7.815   8.717  69.415  1.00  0.00    -0.095 A  
HETATM   24  H   UNL     1      -9.625   8.827  71.227  1.00  0.00     0.000 HD 
HETATM   25  C   UNL     1      -9.034   9.368  68.852  1.00  0.00    -0.136 C  
HETATM   26  O   UNL     1      -9.885   9.833  69.600  1.00  0.00    -0.194 OA 
HETATM   27  C   UNL     1      -9.135   9.585  67.382  1.00  0.00    -0.144 A  
HETATM   28  C   UNL     1      -8.024   9.317  66.576  1.00  0.00    -0.104 A  
HETATM   29  C   UNL     1      -8.048   9.765  65.244  1.00  0.00    -0.126 A  
HETATM   30  C   UNL     1      -9.222  10.203  64.626  1.00  0.00    -0.300 A  
HETATM   31  C   UNL     1     -10.351  10.389  65.420  1.00  0.00    -0.270 A  
HETATM   32  H   UNL     1     -12.203  10.711  67.128  1.00  0.00     0.000 HD 
HETATM   33  O   UNL     1     -11.421  10.349  67.527  1.00  0.00    -0.386 OA 
HETATM   34  C   UNL     1     -10.296  10.122  66.789  1.00  0.00    -0.222 A  
BRANCH  30  35
HETATM   35  C   UNL     1      -9.263  10.366  63.129  1.00  0.00    -0.294 C  
HETATM   36  O   UNL     1     -10.546  10.848  62.737  1.00  0.00    -0.780 OA 
HETATM   37  H   UNL     1     -10.572  10.951  61.792  1.00  0.00     0.000 HD 
ENDBRANCH  30  35
ENDBRANCH   6  16
ENDBRANCH   2   4
TORSDOF 3
ENDMDL
MODEL      137
REMARK 921   NORMALIZED FREE ENERGY PREDICTED BY IDOCK:    2.50 KCAL/MOL
REMARK 922        TOTAL FREE ENERGY PREDICTED BY IDOCK:    2.29 KCAL/MOL
REMARK 923 INTER-LIGAND FREE ENERGY PREDICTED BY IDOCK:   -4.90 KCAL/MOL
REMARK 924 INTRA-LIGAND FREE ENERGY PREDICTED BY IDOCK:    7.19 KCAL/MOL
REMARK 927      BINDING AFFINITY PREDICTED BY RF-SCORE:    0.00 PKD
ROOT
HETATM    1  O   UNL     1      -9.858  10.646  69.842  1.00  0.00    -0.423 OA 
HETATM    2  C   UNL     1      -9.091  11.375  68.897  1.00  0.00    -0.011 C  
HETATM    3  H   UNL     1      -9.346  10.321  70.573  1.00  0.00     0.000 HD 
ENDROOT
BRANCH   2   4
HETATM    4  C   UNL     1      -9.920  11.902  67.715  1.00  0.00    -0.186 C  
HETATM    5  O   UNL     1      -9.052  12.274  66.627  1.00  0.00    -0.204 OA 
HETATM    6  C   UNL     1      -8.635  11.276  65.662  1.00  0.00    -0.023 C  
HETATM    7  H   UNL     1     -12.899  11.269  66.528  1.00  0.00     0.000 HD 
HETATM    8  C   UNL     1      -9.861  10.436  65.204  1.00  0.00    -0.313 C  
HETATM    9  O   UNL     1     -12.160  11.818  66.765  1.00  0.00    -0.547 OA 
HETATM   10  O   UNL     1     -10.752  11.244  64.392  1.00  0.00    -0.338 OA 
HETATM   11  C   UNL     1     -10.694   9.890  66.379  1.00  0.00     0.036 C  
HETATM   12  C   UNL     1     -11.119  11.010  67.330  1.00  0.00    -0.294 C  
HETATM   13  O   UNL     1      -9.994   8.867  67.091  1.00  0.00    -0.187 OA 
HETATM   14  H   UNL     1     -10.507   8.529  67.815  1.00  0.00     0.000 HD 
HETATM   15  H   UNL     1     -11.501  10.731  64.112  1.00  0.00     0.000 HD 
BRANCH   6  16
HETATM   16  C   UNL     1      -7.267  10.534  66.047  1.00  0.00    -0.137 C  
HETATM   17  C   UNL     1      -8.158   7.010  64.825  1.00  0.00    -0.096 A  
HETATM   18  C   UNL     1      -7.533   9.022  66.066  1.00  0.00    -0.094 A  
HETATM   19  C   UNL     1      -7.701   8.327  64.852  1.00  0.00    -0.115 A  
HETATM   20  C   UNL     1      -8.473   6.363  66.012  1.00  0.00    -0.144 A  
HETATM   21  C   UNL     1      -8.262   7.014  67.226  1.00  0.00    -0.119 A  
HETATM   22  O   UNL     1      -8.616   6.361  68.373  1.00  0.00    -0.115 OA 
HETATM   23  C   UNL     1      -7.739   8.321  67.267  1.00  0.00    -0.101 A  
HETATM   24  H   UNL     1      -8.473   6.805  69.200  1.00  0.00     0.000 HD 
HETATM   25  C   UNL     1      -7.346   8.951  68.562  1.00  0.00    -0.081 C  
HETATM   26  O   UNL     1      -7.280   8.275  69.581  1.00  0.00    -0.058 OA 
HETATM   27  C   UNL     1      -6.886  10.368  68.576  1.00  0.00    -0.061 A  
HETATM   28  C   UNL     1      -6.683  11.031  67.362  1.00  0.00    -0.080 A  
HETATM   29  C   UNL     1      -6.011  12.265  67.385  1.00  0.00    -0.149 A  
HETATM   30  C   UNL     1      -5.795  12.975  68.570  1.00  0.00    -0.075 A  
HETATM   31  C   UNL     1      -6.078  12.339  69.776  1.00  0.00    -0.141 A  
HETATM   32  H   UNL     1      -6.603  10.897  71.800  1.00  0.00     0.000 HD 
HETATM   33  O   UNL     1      -6.810  10.447  70.989  1.00  0.00    -0.271 OA 
HETATM   34  C   UNL     1      -6.579  11.035  69.780  1.00  0.00    -0.143 A  
BRANCH  30  35
HETATM   35  C   UNL     1      -5.365  14.417  68.508  1.00  0.00    -0.099 C  
HETATM   36  O   UNL     1      -5.914  15.029  67.344  1.00  0.00    -0.335 OA 
HETATM   37  H   UNL     1      -5.642  15.938  67.305  1.00  0.00     0.000 HD 
ENDBRANCH  30  35
ENDBRANCH   6  16
ENDBRANCH   2   4
TORSDOF 3
ENDMDL
MODEL      138
REMARK 921   NORMALIZED FREE ENERGY PREDICTED BY IDOCK:    2.51 KCAL/MOL
REMARK 922        TOTAL FREE ENERGY PREDICTED BY IDOCK:    2.30 KCAL/MOL
REMARK 923 INTER-LIGAND FREE ENERGY PREDICTED BY IDOCK:   -5.06 KCAL/MOL
REMARK 924 INTRA-LIGAND FREE ENERGY PREDICTED BY IDOCK:    7.36 KCAL/MOL
REMARK 927      BINDING AFFINITY PREDICTED BY RF-SCORE:    0.00 PKD
ROOT
HETATM    1  O   UNL     1      -7.011  11.153  69.048  1.00  0.00    -0.082 OA 
HETATM    2  C   UNL     1      -7.655  10.561  67.931  1.00  0.00    -0.092 C  
HETATM    3  H   UNL     1      -6.220  10.699  69.312  1.00  0.00     0.000 HD 
ENDROOT
BRANCH   2   4
HETATM    4  C   UNL     1      -8.935  11.298  67.504  1.00  0.00    -0.140 C  
HETATM    5  O   UNL     1      -9.845  10.381  66.865  1.00  0.00    -0.178 OA 
HETATM    6  C   UNL     1     -10.769   9.604  67.667  1.00  0.00    -0.262 C  
HETATM    7  H   UNL     1     -10.631  13.834  68.674  1.00  0.00     0.000 HD 
HETATM    8  C   UNL     1     -11.463  10.521  68.714  1.00  0.00    -0.224 C  
HETATM    9  O   UNL     1     -10.250  13.286  67.998  1.00  0.00    -0.227 OA 
HETATM   10  O   UNL     1     -12.376  11.437  68.058  1.00  0.00    -0.444 OA 
HETATM   11  C   UNL     1     -10.469  11.377  69.522  1.00  0.00     0.091 C  
HETATM   12  C   UNL     1      -9.554  12.187  68.602  1.00  0.00    -0.060 C  
HETATM   13  O   UNL     1      -9.695  10.579  70.422  1.00  0.00    -0.203 OA 
HETATM   14  H   UNL     1      -9.082  11.107  70.920  1.00  0.00     0.000 HD 
HETATM   15  H   UNL     1     -12.800  11.997  68.697  1.00  0.00     0.000 HD 
BRANCH   6  16
HETATM   16  C   UNL     1     -10.193   8.178  68.121  1.00  0.00    -0.253 C  
HETATM   17  C   UNL     1     -11.516   8.141  71.720  1.00  0.00    -0.337 A  
HETATM   18  C   UNL     1     -10.207   8.125  69.655  1.00  0.00    -0.205 A  
HETATM   19  C   UNL     1     -11.430   7.976  70.338  1.00  0.00    -0.140 A  
HETATM   20  C   UNL     1     -10.384   8.476  72.448  1.00  0.00    -0.372 A  
HETATM   21  C   UNL     1      -9.154   8.575  71.800  1.00  0.00    -0.235 A  
HETATM   22  O   UNL     1      -8.067   8.940  72.542  1.00  0.00    -0.381 OA 
HETATM   23  C   UNL     1      -9.044   8.345  70.415  1.00  0.00    -0.155 A  
HETATM   24  H   UNL     1      -7.229   9.008  72.100  1.00  0.00     0.000 HD 
HETATM   25  C   UNL     1      -7.709   8.273  69.751  1.00  0.00    -0.098 C  
HETATM   26  O   UNL     1      -6.689   8.211  70.426  1.00  0.00    -0.037 OA 
HETATM   27  C   UNL     1      -7.635   8.124  68.272  1.00  0.00    -0.102 A  
HETATM   28  C   UNL     1      -8.810   7.898  67.550  1.00  0.00    -0.128 A  
HETATM   29  C   UNL     1      -8.697   7.506  66.204  1.00  0.00    -0.174 A  
HETATM   30  C   UNL     1      -7.496   7.608  65.497  1.00  0.00    -0.077 A  
HETATM   31  C   UNL     1      -6.340   7.917  66.208  1.00  0.00    -0.046 A  
HETATM   32  H   UNL     1      -4.405   8.406  67.780  1.00  0.00     0.000 HD 
HETATM   33  O   UNL     1      -5.236   8.401  68.242  1.00  0.00    -0.032 OA 
HETATM   34  C   UNL     1      -6.402   8.132  67.587  1.00  0.00    -0.053 A  
BRANCH  30  35
HETATM   35  C   UNL     1      -7.501   7.482  63.996  1.00  0.00    -0.103 C  
HETATM   36  O   UNL     1      -8.299   6.364  63.614  1.00  0.00    -0.316 OA 
HETATM   37  H   UNL     1      -8.302   6.285  62.667  1.00  0.00     0.000 HD 
ENDBRANCH  30  35
ENDBRANCH   6  16
ENDBRANCH   2   4
TORSDOF 3
ENDMDL
MODEL      139
REMARK 921   NORMALIZED FREE ENERGY PREDICTED BY IDOCK:    2.84 KCAL/MOL
REMARK 922        TOTAL FREE ENERGY PREDICTED BY IDOCK:    2.68 KCAL/MOL
REMARK 923 INTER-LIGAND FREE ENERGY PREDICTED BY IDOCK:   -4.50 KCAL/MOL
REMARK 924 INTRA-LIGAND FREE ENERGY PREDICTED BY IDOCK:    7.19 KCAL/MOL
REMARK 927      BINDING AFFINITY PREDICTED BY RF-SCORE:    0.00 PKD
ROOT
HETATM    1  O   UNL     1      -6.846  10.098  70.568  1.00  0.00    -0.215 OA 
HETATM    2  C   UNL     1      -7.364   9.247  69.558  1.00  0.00    -0.070 C  
HETATM    3  H   UNL     1      -6.270   9.652  71.177  1.00  0.00     0.000 HD 
ENDROOT
BRANCH   2   4
HETATM    4  C   UNL     1      -8.296   9.968  68.571  1.00  0.00    -0.113 C  
HETATM    5  O   UNL     1      -8.859   9.023  67.640  1.00  0.00    -0.124 OA 
HETATM    6  C   UNL     1     -10.069   8.304  67.984  1.00  0.00    -0.198 C  
HETATM    7  H   UNL     1     -10.247  12.585  68.740  1.00  0.00     0.000 HD 
HETATM    8  C   UNL     1     -11.123   9.287  68.568  1.00  0.00     0.120 C  
HETATM    9  O   UNL     1      -9.624  11.994  68.331  1.00  0.00    -0.204 OA 
HETATM   10  O   UNL     1     -11.619  10.171  67.530  1.00  0.00    -0.503 OA 
HETATM   11  C   UNL     1     -10.562  10.181  69.691  1.00  0.00    -0.257 C  
HETATM   12  C   UNL     1      -9.307  10.926  69.234  1.00  0.00    -0.006 C  
HETATM   13  O   UNL     1     -10.295   9.430  70.878  1.00  0.00    -0.270 OA 
HETATM   14  H   UNL     1      -9.949   9.981  71.570  1.00  0.00     0.000 HD 
HETATM   15  H   UNL     1     -12.263  10.773  67.886  1.00  0.00     0.000 HD 
BRANCH   6  16
HETATM   16  C   UNL     1      -9.804   6.902  68.716  1.00  0.00    -0.149 C  
HETATM   17  C   UNL     1     -12.673   7.026  71.257  1.00  0.00    -0.400 A  
HETATM   18  C   UNL     1     -10.543   6.919  70.061  1.00  0.00    -0.254 A  
HETATM   19  C   UNL     1     -11.947   6.798  70.089  1.00  0.00    -0.244 A  
HETATM   20  C   UNL     1     -12.014   7.397  72.420  1.00  0.00    -0.232 A  
HETATM   21  C   UNL     1     -10.623   7.470  72.428  1.00  0.00    -0.251 A  
HETATM   22  O   UNL     1     -10.009   7.872  73.581  1.00  0.00    -0.288 OA 
HETATM   23  C   UNL     1      -9.875   7.177  71.271  1.00  0.00    -0.178 A  
HETATM   24  H   UNL     1      -9.061   7.922  73.585  1.00  0.00     0.000 HD 
HETATM   25  C   UNL     1      -8.386   7.080  71.323  1.00  0.00    -0.114 C  
HETATM   26  O   UNL     1      -7.808   7.051  72.402  1.00  0.00    -0.094 OA 
HETATM   27  C   UNL     1      -7.623   6.863  70.062  1.00  0.00    -0.099 A  
HETATM   28  C   UNL     1      -8.321   6.600  68.880  1.00  0.00    -0.120 A  
HETATM   29  C   UNL     1      -7.592   6.148  67.766  1.00  0.00    -0.097 A  
HETATM   30  C   UNL     1      -6.198   6.221  67.708  1.00  0.00    -0.032 A  
HETATM   31  C   UNL     1      -5.510   6.565  68.869  1.00  0.00    -0.016 A  
HETATM   32  H   UNL     1      -4.541   7.132  71.147  1.00  0.00     0.000 HD 
HETATM   33  O   UNL     1      -5.491   7.145  71.160  1.00  0.00    -0.027 OA 
HETATM   34  C   UNL     1      -6.213   6.843  70.043  1.00  0.00    -0.031 A  
BRANCH  30  35
HETATM   35  C   UNL     1      -5.494   6.027  66.390  1.00  0.00    -0.009 C  
HETATM   36  O   UNL     1      -5.708   7.167  65.563  1.00  0.00    -0.031 OA 
HETATM   37  H   UNL     1      -5.264   7.045  64.732  1.00  0.00     0.000 HD 
ENDBRANCH  30  35
ENDBRANCH   6  16
ENDBRANCH   2   4
TORSDOF 3
ENDMDL
MODEL      140
REMARK 921   NORMALIZED FREE ENERGY PREDICTED BY IDOCK:    3.33 KCAL/MOL
REMARK 922        TOTAL FREE ENERGY PREDICTED BY IDOCK:    3.26 KCAL/MOL
REMARK 923 INTER-LIGAND FREE ENERGY PREDICTED BY IDOCK:   -4.00 KCAL/MOL
REMARK 924 INTRA-LIGAND FREE ENERGY PREDICTED BY IDOCK:    7.26 KCAL/MOL
REMARK 927      BINDING AFFINITY PREDICTED BY RF-SCORE:    0.00 PKD
ROOT
HETATM    1  O   UNL     1     -10.844   8.452  70.937  1.00  0.00    -0.221 OA 
HETATM    2  C   UNL     1      -9.845   7.572  70.446  1.00  0.00    -0.183 C  
HETATM    3  H   UNL     1     -10.855   8.519  71.884  1.00  0.00     0.000 HD 
ENDROOT
BRANCH   2   4
HETATM    4  C   UNL     1      -9.828   7.464  68.913  1.00  0.00    -0.157 C  
HETATM    5  O   UNL     1      -8.479   7.266  68.445  1.00  0.00    -0.124 OA 
HETATM    6  C   UNL     1      -7.932   5.926  68.370  1.00  0.00    -0.105 C  
HETATM    7  H   UNL     1     -11.910   6.340  66.659  1.00  0.00     0.000 HD 
HETATM    8  C   UNL     1      -8.957   4.970  67.697  1.00  0.00    -0.110 C  
HETATM    9  O   UNL     1     -11.262   6.935  67.018  1.00  0.00    -0.369 OA 
HETATM   10  O   UNL     1      -9.095   5.287  66.288  1.00  0.00    -0.130 OA 
HETATM   11  C   UNL     1     -10.365   5.058  68.318  1.00  0.00    -0.019 C  
HETATM   12  C   UNL     1     -10.880   6.499  68.330  1.00  0.00    -0.288 C  
HETATM   13  O   UNL     1     -10.396   4.505  69.636  1.00  0.00    -0.099 OA 
HETATM   14  H   UNL     1     -11.263   4.559  70.019  1.00  0.00     0.000 HD 
HETATM   15  H   UNL     1      -9.722   4.703  65.877  1.00  0.00     0.000 HD 
BRANCH   6  16
HETATM   16  C   UNL     1      -7.173   5.460  69.704  1.00  0.00    -0.064 C  
HETATM   17  C   UNL     1      -8.250   1.780  69.726  1.00  0.00    -0.064 A  
HETATM   18  C   UNL     1      -7.802   4.141  70.174  1.00  0.00    -0.051 A  
HETATM   19  C   UNL     1      -7.536   2.950  69.471  1.00  0.00    -0.044 A  
HETATM   20  C   UNL     1      -9.259   1.779  70.679  1.00  0.00    -0.161 A  
HETATM   21  C   UNL     1      -9.501   2.932  71.424  1.00  0.00    -0.146 A  
HETATM   22  O   UNL     1     -10.524   2.906  72.329  1.00  0.00    -0.099 OA 
HETATM   23  C   UNL     1      -8.740   4.100  71.221  1.00  0.00    -0.134 A  
HETATM   24  H   UNL     1     -10.689   3.692  72.836  1.00  0.00     0.000 HD 
HETATM   25  C   UNL     1      -8.874   5.273  72.133  1.00  0.00    -0.130 C  
HETATM   26  O   UNL     1      -9.492   5.167  73.186  1.00  0.00    -0.135 OA 
HETATM   27  C   UNL     1      -8.125   6.524  71.832  1.00  0.00    -0.104 A  
HETATM   28  C   UNL     1      -7.193   6.526  70.790  1.00  0.00    -0.071 A  
HETATM   29  C   UNL     1      -6.319   7.621  70.684  1.00  0.00    -0.038 A  
HETATM   30  C   UNL     1      -6.527   8.812  71.387  1.00  0.00    -0.071 A  
HETATM   31  C   UNL     1      -7.514   8.830  72.368  1.00  0.00     0.066 A  
HETATM   32  H   UNL     1      -9.314   8.532  74.136  1.00  0.00     0.000 HD 
HETATM   33  O   UNL     1      -9.211   7.748  73.608  1.00  0.00    -0.258 OA 
HETATM   34  C   UNL     1      -8.277   7.687  72.616  1.00  0.00    -0.119 A  
BRANCH  30  35
HETATM   35  C   UNL     1      -5.758  10.049  71.003  1.00  0.00    -0.083 C  
HETATM   36  O   UNL     1      -6.671  11.083  70.641  1.00  0.00    -0.486 OA 
HETATM   37  H   UNL     1      -6.186  11.864  70.399  1.00  0.00     0.000 HD 
ENDBRANCH  30  35
ENDBRANCH   6  16
ENDBRANCH   2   4
TORSDOF 3
ENDMDL
MODEL      141
REMARK 921   NORMALIZED FREE ENERGY PREDICTED BY IDOCK:    3.41 KCAL/MOL
REMARK 922        TOTAL FREE ENERGY PREDICTED BY IDOCK:    3.36 KCAL/MOL
REMARK 923 INTER-LIGAND FREE ENERGY PREDICTED BY IDOCK:   -4.37 KCAL/MOL
REMARK 924 INTRA-LIGAND FREE ENERGY PREDICTED BY IDOCK:    7.72 KCAL/MOL
REMARK 927      BINDING AFFINITY PREDICTED BY RF-SCORE:    0.00 PKD
ROOT
HETATM    1  O   UNL     1     -11.003  13.513  65.625  1.00  0.00    -0.287 OA 
HETATM    2  C   UNL     1     -10.282  14.585  66.212  1.00  0.00    -0.297 C  
HETATM    3  H   UNL     1     -10.582  12.669  65.737  1.00  0.00     0.000 HD 
ENDROOT
BRANCH   2   4
HETATM    4  C   UNL     1     -10.964  15.950  66.031  1.00  0.00    -0.139 C  
HETATM    5  O   UNL     1     -11.330  16.495  67.314  1.00  0.00     0.044 OA 
HETATM    6  C   UNL     1     -10.368  17.273  68.069  1.00  0.00    -0.353 C  
HETATM    7  H   UNL     1     -10.692  18.393  63.878  1.00  0.00     0.000 HD 
HETATM    8  C   UNL     1      -9.678  18.312  67.139  1.00  0.00    -0.304 C  
HETATM    9  O   UNL     1     -11.153  17.798  64.457  1.00  0.00    -0.652 OA 
HETATM   10  O   UNL     1     -10.619  19.346  66.751  1.00  0.00    -0.430 OA 
HETATM   11  C   UNL     1      -9.130  17.691  65.840  1.00  0.00     0.121 C  
HETATM   12  C   UNL     1     -10.216  16.917  65.091  1.00  0.00     0.296 C  
HETATM   13  O   UNL     1      -8.000  16.853  66.092  1.00  0.00    -0.320 OA 
HETATM   14  H   UNL     1      -7.661  16.471  65.291  1.00  0.00     0.000 HD 
HETATM   15  H   UNL     1     -10.198  19.981  66.183  1.00  0.00     0.000 HD 
BRANCH   6  16
HETATM   16  C   UNL     1      -9.478  16.401  69.078  1.00  0.00    -0.258 C  
HETATM   17  C   UNL     1      -6.132  18.217  68.615  1.00  0.00    -0.204 A  
HETATM   18  C   UNL     1      -8.000  16.644  68.742  1.00  0.00    -0.239 A  
HETATM   19  C   UNL     1      -7.396  17.869  69.089  1.00  0.00    -0.117 A  
HETATM   20  C   UNL     1      -5.450  17.355  67.769  1.00  0.00    -0.128 A  
HETATM   21  C   UNL     1      -6.005  16.115  67.457  1.00  0.00    -0.161 A  
HETATM   22  O   UNL     1      -5.321  15.307  66.593  1.00  0.00     0.703 OA 
HETATM   23  C   UNL     1      -7.251  15.726  67.984  1.00  0.00    -0.141 A  
HETATM   24  H   UNL     1      -5.700  14.462  66.381  1.00  0.00     0.000 HD 
HETATM   25  C   UNL     1      -7.764  14.336  67.798  1.00  0.00    -0.163 C  
HETATM   26  O   UNL     1      -7.026  13.461  67.365  1.00  0.00    -0.165 OA 
HETATM   27  C   UNL     1      -9.127  13.988  68.287  1.00  0.00    -0.191 A  
HETATM   28  C   UNL     1      -9.838  14.922  69.046  1.00  0.00    -0.220 A  
HETATM   29  C   UNL     1     -11.000  14.491  69.709  1.00  0.00    -0.187 A  
HETATM   30  C   UNL     1     -11.615  13.270  69.419  1.00  0.00    -0.364 A  
HETATM   31  C   UNL     1     -10.938  12.375  68.594  1.00  0.00    -0.283 A  
HETATM   32  H   UNL     1      -9.436  10.932  67.141  1.00  0.00     0.000 HD 
HETATM   33  O   UNL     1      -9.056  11.790  67.289  1.00  0.00    -0.163 OA 
HETATM   34  C   UNL     1      -9.690  12.714  68.067  1.00  0.00    -0.215 A  
BRANCH  30  35
HETATM   35  C   UNL     1     -13.011  13.000  69.916  1.00  0.00     0.788 C  
HETATM   36  O   UNL     1     -13.048  13.147  71.333  1.00  0.00    -0.337 OA 
HETATM   37  H   UNL     1     -13.929  12.977  71.647  1.00  0.00     0.000 HD 
ENDBRANCH  30  35
ENDBRANCH   6  16
ENDBRANCH   2   4
TORSDOF 3
ENDMDL
MODEL      142
REMARK 921   NORMALIZED FREE ENERGY PREDICTED BY IDOCK:    4.81 KCAL/MOL
REMARK 922        TOTAL FREE ENERGY PREDICTED BY IDOCK:    5.00 KCAL/MOL
REMARK 923 INTER-LIGAND FREE ENERGY PREDICTED BY IDOCK:   -3.62 KCAL/MOL
REMARK 924 INTRA-LIGAND FREE ENERGY PREDICTED BY IDOCK:    8.62 KCAL/MOL
REMARK 927      BINDING AFFINITY PREDICTED BY RF-SCORE:    0.00 PKD
ROOT
HETATM    1  O   UNL     1     -11.425   5.874  68.198  1.00  0.00    -0.088 OA 
HETATM    2  C   UNL     1     -10.338   6.388  68.952  1.00  0.00    -0.201 C  
HETATM    3  H   UNL     1     -11.436   4.926  68.151  1.00  0.00     0.000 HD 
ENDROOT
BRANCH   2   4
HETATM    4  C   UNL     1     -10.320   7.923  69.029  1.00  0.00    -0.214 C  
HETATM    5  O   UNL     1      -9.049   8.379  69.533  1.00  0.00    -0.151 OA 
HETATM    6  C   UNL     1      -7.944   8.588  68.619  1.00  0.00    -0.116 C  
HETATM    7  H   UNL     1     -11.710  10.331  67.313  1.00  0.00     0.000 HD 
HETATM    8  C   UNL     1      -8.428   9.384  67.374  1.00  0.00    -0.125 C  
HETATM    9  O   UNL     1     -11.402   9.895  68.099  1.00  0.00    -0.151 OA 
HETATM   10  O   UNL     1      -8.741  10.753  67.738  1.00  0.00    -0.128 OA 
HETATM   11  C   UNL     1      -9.695   8.788  66.729  1.00  0.00    -0.221 C  
HETATM   12  C   UNL     1     -10.820   8.631  67.753  1.00  0.00    -0.005 C  
HETATM   13  O   UNL     1      -9.423   7.540  66.088  1.00  0.00    -0.354 OA 
HETATM   14  H   UNL     1     -10.203   7.172  65.690  1.00  0.00     0.000 HD 
HETATM   15  H   UNL     1      -9.038  11.239  66.978  1.00  0.00     0.000 HD 
BRANCH   6  16
HETATM   16  C   UNL     1      -7.014   7.297  68.421  1.00  0.00    -0.079 C  
HETATM   17  C   UNL     1      -5.313   8.310  65.137  1.00  0.00    -0.035 A  
HETATM   18  C   UNL     1      -6.563   7.255  66.954  1.00  0.00    -0.059 A  
HETATM   19  C   UNL     1      -5.591   8.166  66.495  1.00  0.00    -0.032 A  
HETATM   20  C   UNL     1      -6.012   7.557  64.204  1.00  0.00    -0.048 A  
HETATM   21  C   UNL     1      -6.939   6.611  64.640  1.00  0.00    -0.054 A  
HETATM   22  O   UNL     1      -7.634   5.912  63.694  1.00  0.00    -0.068 OA 
HETATM   23  C   UNL     1      -7.179   6.411  66.013  1.00  0.00    -0.075 A  
HETATM   24  H   UNL     1      -8.265   5.269  63.992  1.00  0.00     0.000 HD 
HETATM   25  C   UNL     1      -8.033   5.283  66.488  1.00  0.00    -0.104 C  
HETATM   26  O   UNL     1      -8.370   4.397  65.711  1.00  0.00    -0.112 OA 
HETATM   27  C   UNL     1      -8.343   5.159  67.939  1.00  0.00    -0.097 A  
HETATM   28  C   UNL     1      -7.704   6.009  68.847  1.00  0.00    -0.092 A  
HETATM   29  C   UNL     1      -7.808   5.714  70.217  1.00  0.00    -0.098 A  
HETATM   30  C   UNL     1      -8.737   4.795  70.714  1.00  0.00    -0.134 A  
HETATM   31  C   UNL     1      -9.433   4.008  69.800  1.00  0.00    -0.265 A  
HETATM   32  H   UNL     1     -10.477   2.670  67.910  1.00  0.00     0.000 HD 
HETATM   33  O   UNL     1      -9.894   3.343  67.579  1.00  0.00    -0.078 OA 
HETATM   34  C   UNL     1      -9.208   4.160  68.430  1.00  0.00    -0.144 A  
BRANCH  30  35
HETATM   35  C   UNL     1      -9.027   4.750  72.191  1.00  0.00    -0.127 C  
HETATM   36  O   UNL     1     -10.142   3.896  72.432  1.00  0.00    -0.159 OA 
HETATM   37  H   UNL     1     -10.325   3.867  73.364  1.00  0.00     0.000 HD 
ENDBRANCH  30  35
ENDBRANCH   6  16
ENDBRANCH   2   4
TORSDOF 3
ENDMDL
MODEL      143
REMARK 921   NORMALIZED FREE ENERGY PREDICTED BY IDOCK:    5.27 KCAL/MOL
REMARK 922        TOTAL FREE ENERGY PREDICTED BY IDOCK:    5.54 KCAL/MOL
REMARK 923 INTER-LIGAND FREE ENERGY PREDICTED BY IDOCK:   -2.40 KCAL/MOL
REMARK 924 INTRA-LIGAND FREE ENERGY PREDICTED BY IDOCK:    7.94 KCAL/MOL
REMARK 927      BINDING AFFINITY PREDICTED BY RF-SCORE:    0.00 PKD
ROOT
HETATM    1  O   UNL     1     -11.629  16.539  69.844  1.00  0.00    -0.321 OA 
HETATM    2  C   UNL     1     -10.887  15.584  69.102  1.00  0.00    -0.251 C  
HETATM    3  H   UNL     1     -11.084  17.161  70.311  1.00  0.00     0.000 HD 
ENDROOT
BRANCH   2   4
HETATM    4  C   UNL     1     -11.770  14.578  68.347  1.00  0.00    -0.333 C  
HETATM    5  O   UNL     1     -11.601  14.741  66.925  1.00  0.00    -0.359 OA 
HETATM    6  C   UNL     1     -10.528  14.046  66.241  1.00  0.00    -0.286 C  
HETATM    7  H   UNL     1     -12.848  11.553  68.949  1.00  0.00     0.000 HD 
HETATM    8  C   UNL     1     -10.487  12.559  66.694  1.00  0.00    -0.233 C  
HETATM    9  O   UNL     1     -12.909  12.446  68.631  1.00  0.00     0.788 OA 
HETATM   10  O   UNL     1     -11.642  11.843  66.186  1.00  0.00    -0.415 OA 
HETATM   11  C   UNL     1     -10.491  12.392  68.226  1.00  0.00    -0.225 C  
HETATM   12  C   UNL     1     -11.670  13.129  68.863  1.00  0.00    -0.326 C  
HETATM   13  O   UNL     1      -9.257  12.823  68.806  1.00  0.00    -0.393 OA 
HETATM   14  H   UNL     1      -9.259  12.720  69.751  1.00  0.00     0.000 HD 
HETATM   15  H   UNL     1     -11.617  10.934  66.463  1.00  0.00     0.000 HD 
BRANCH   6  16
HETATM   16  C   UNL     1      -9.165  14.885  66.152  1.00  0.00    -0.268 C  
HETATM   17  C   UNL     1      -6.728  12.146  67.275  1.00  0.00    -0.144 A  
HETATM   18  C   UNL     1      -8.098  14.148  66.974  1.00  0.00    -0.044 A  
HETATM   19  C   UNL     1      -7.531  12.958  66.476  1.00  0.00     0.995 A  
HETATM   20  C   UNL     1      -6.486  12.497  68.596  1.00  0.00    -0.078 A  
HETATM   21  C   UNL     1      -6.993  13.697  69.092  1.00  0.00    -0.070 A  
HETATM   22  O   UNL     1      -6.765  13.994  70.406  1.00  0.00    -0.399 OA 
HETATM   23  C   UNL     1      -7.750  14.558  68.273  1.00  0.00    -0.126 A  
HETATM   24  H   UNL     1      -7.111  14.812  70.743  1.00  0.00     0.000 HD 
HETATM   25  C   UNL     1      -8.140  15.919  68.744  1.00  0.00    -0.190 C  
HETATM   26  O   UNL     1      -7.640  16.387  69.759  1.00  0.00     0.063 OA 
HETATM   27  C   UNL     1      -9.021  16.764  67.890  1.00  0.00    -0.219 A  
HETATM   28  C   UNL     1      -9.338  16.330  66.599  1.00  0.00    -0.272 A  
HETATM   29  C   UNL     1      -9.949  17.244  65.724  1.00  0.00    -0.105 A  
HETATM   30  C   UNL     1     -10.497  18.450  66.169  1.00  0.00    -0.422 A  
HETATM   31  C   UNL     1     -10.248  18.839  67.482  1.00  0.00    -0.444 A  
HETATM   32  H   UNL     1      -9.555  19.315  69.879  1.00  0.00     0.000 HD 
HETATM   33  O   UNL     1      -9.243  18.465  69.589  1.00  0.00     0.443 OA 
HETATM   34  C   UNL     1      -9.484  18.024  68.321  1.00  0.00    -0.302 A  
BRANCH  30  35
HETATM   35  C   UNL     1     -11.410  19.235  65.263  1.00  0.00     1.295 C  
HETATM   36  O   UNL     1     -10.713  20.370  64.753  1.00  0.00     0.241 OA 
HETATM   37  H   UNL     1     -11.289  20.865  64.181  1.00  0.00     0.000 HD 
ENDBRANCH  30  35
ENDBRANCH   6  16
ENDBRANCH   2   4
TORSDOF 3
ENDMDL
MODEL      144
REMARK 921   NORMALIZED FREE ENERGY PREDICTED BY IDOCK:    6.20 KCAL/MOL
REMARK 922        TOTAL FREE ENERGY PREDICTED BY IDOCK:    6.63 KCAL/MOL
REMARK 923 INTER-LIGAND FREE ENERGY PREDICTED BY IDOCK:   -2.67 KCAL/MOL
REMARK 924 INTRA-LIGAND FREE ENERGY PREDICTED BY IDOCK:    9.31 KCAL/MOL
REMARK 927      BINDING AFFINITY PREDICTED BY RF-SCORE:    0.00 PKD
ROOT
HETATM    1  O   UNL     1      -6.925   9.070  65.789  1.00  0.00    -0.078 OA 
HETATM    2  C   UNL     1      -7.460   8.619  67.023  1.00  0.00    -0.084 C  
HETATM    3  H   UNL     1      -7.163   8.521  65.051  1.00  0.00     0.000 HD 
ENDROOT
BRANCH   2   4
HETATM    4  C   UNL     1      -7.076   9.509  68.216  1.00  0.00    -0.075 C  
HETATM    5  O   UNL     1      -8.116  10.473  68.471  1.00  0.00    -0.108 OA 
HETATM    6  C   UNL     1      -9.235  10.119  69.321  1.00  0.00    -0.208 C  
HETATM    7  H   UNL     1      -5.339   9.072  70.950  1.00  0.00     0.000 HD 
HETATM    8  C   UNL     1      -8.721   9.421  70.612  1.00  0.00    -0.211 C  
HETATM    9  O   UNL     1      -5.649   9.548  70.188  1.00  0.00    -0.034 OA 
HETATM   10  O   UNL     1      -8.026  10.372  71.459  1.00  0.00     1.488 OA 
HETATM   11  C   UNL     1      -7.737   8.269  70.327  1.00  0.00    -0.084 C  
HETATM   12  C   UNL     1      -6.573   8.735  69.452  1.00  0.00    -0.045 C  
HETATM   13  O   UNL     1      -8.396   7.149  69.731  1.00  0.00    -0.129 OA 
HETATM   14  H   UNL     1      -7.790   6.439  69.555  1.00  0.00     0.000 HD 
HETATM   15  H   UNL     1      -7.712   9.946  72.248  1.00  0.00     0.000 HD 
BRANCH   6  16
HETATM   16  C   UNL     1     -10.481   9.496  68.527  1.00  0.00    -0.247 C  
HETATM   17  C   UNL     1     -11.752   7.098  71.237  1.00  0.00    -0.342 A  
HETATM   18  C   UNL     1     -10.889   8.192  69.228  1.00  0.00    -0.064 A  
HETATM   19  C   UNL     1     -11.559   8.244  70.466  1.00  0.00    -0.133 A  
HETATM   20  C   UNL     1     -11.265   5.877  70.794  1.00  0.00    -0.281 A  
HETATM   21  C   UNL     1     -10.648   5.794  69.547  1.00  0.00    -0.319 A  
HETATM   22  O   UNL     1     -10.149   4.583  69.158  1.00  0.00    -0.154 OA 
HETATM   23  C   UNL     1     -10.506   6.933  68.731  1.00  0.00    -0.223 A  
HETATM   24  H   UNL     1      -9.728   4.527  68.308  1.00  0.00     0.000 HD 
HETATM   25  C   UNL     1     -10.011   6.817  67.328  1.00  0.00    -0.157 C  
HETATM   26  O   UNL     1      -9.913   5.717  66.799  1.00  0.00    -0.148 OA 
HETATM   27  C   UNL     1      -9.784   8.052  66.527  1.00  0.00    -0.297 A  
HETATM   28  C   UNL     1     -10.185   9.286  67.049  1.00  0.00    -0.331 A  
HETATM   29  C   UNL     1     -10.201  10.396  66.188  1.00  0.00    -0.288 A  
HETATM   30  C   UNL     1      -9.576  10.379  64.938  1.00  0.00    -0.348 A  
HETATM   31  C   UNL     1      -9.103   9.161  64.458  1.00  0.00    -0.065 A  
HETATM   32  H   UNL     1      -8.423   6.798  63.821  1.00  0.00     0.000 HD 
HETATM   33  O   UNL     1      -8.788   6.831  64.698  1.00  0.00     0.286 OA 
HETATM   34  C   UNL     1      -9.242   8.003  65.226  1.00  0.00     0.393 A  
BRANCH  30  35
HETATM   35  C   UNL     1      -9.347  11.672  64.200  1.00  0.00     0.060 C  
HETATM   36  O   UNL     1      -9.519  11.459  62.801  1.00  0.00    -0.446 OA 
HETATM   37  H   UNL     1      -9.374  12.275  62.335  1.00  0.00     0.000 HD 
ENDBRANCH  30  35
ENDBRANCH   6  16
ENDBRANCH   2   4
TORSDOF 3
ENDMDL
MODEL      145
REMARK 921   NORMALIZED FREE ENERGY PREDICTED BY IDOCK:    7.75 KCAL/MOL
REMARK 922        TOTAL FREE ENERGY PREDICTED BY IDOCK:    8.46 KCAL/MOL
REMARK 923 INTER-LIGAND FREE ENERGY PREDICTED BY IDOCK:    7.45 KCAL/MOL
REMARK 924 INTRA-LIGAND FREE ENERGY PREDICTED BY IDOCK:    1.01 KCAL/MOL
REMARK 927      BINDING AFFINITY PREDICTED BY RF-SCORE:    0.00 PKD
ROOT
HETATM    1  O   UNL     1      -9.123  10.281  69.003  1.00  0.00    -0.163 OA 
HETATM    2  C   UNL     1     -10.520  10.336  68.760  1.00  0.00    -0.203 C  
HETATM    3  H   UNL     1      -8.903   9.969  69.873  1.00  0.00     0.000 HD 
ENDROOT
BRANCH   2   4
HETATM    4  C   UNL     1     -10.875  10.841  67.353  1.00  0.00    -0.290 C  
HETATM    5  O   UNL     1     -11.470  12.151  67.432  1.00  0.00    -0.305 OA 
HETATM    6  C   UNL     1     -10.622  13.327  67.449  1.00  0.00    -0.246 C  
HETATM    7  H   UNL     1      -9.607  10.426  64.370  1.00  0.00     0.000 HD 
HETATM    8  C   UNL     1      -9.536  13.216  66.342  1.00  0.00    -0.255 C  
HETATM    9  O   UNL     1     -10.305  10.520  65.008  1.00  0.00    -0.316 OA 
HETATM   10  O   UNL     1     -10.140  13.334  65.027  1.00  0.00    -0.451 OA 
HETATM   11  C   UNL     1      -8.779  11.874  66.370  1.00  0.00    -0.118 C  
HETATM   12  C   UNL     1      -9.743  10.688  66.317  1.00  0.00    -0.199 C  
HETATM   13  O   UNL     1      -7.924  11.775  67.512  1.00  0.00    -0.132 OA 
HETATM   14  H   UNL     1      -7.457  10.948  67.530  1.00  0.00     0.000 HD 
HETATM   15  H   UNL     1      -9.476  13.266  64.351  1.00  0.00     0.000 HD 
BRANCH   6  16
HETATM   16  C   UNL     1     -10.205  13.804  68.922  1.00  0.00    -0.111 C  
HETATM   17  C   UNL     1     -13.713  14.397  70.353  1.00  0.00     0.641 A  
HETATM   18  C   UNL     1     -11.407  14.524  69.548  1.00  0.00    -0.313 A  
HETATM   19  C   UNL     1     -12.520  13.777  69.983  1.00  0.00    -0.301 A  
HETATM   20  C   UNL     1     -13.825  15.779  70.281  1.00  0.00     1.404 A  
HETATM   21  C   UNL     1     -12.719  16.539  69.906  1.00  0.00     2.266 A  
HETATM   22  O   UNL     1     -12.875  17.893  69.812  1.00  0.00     8.761 OA 
HETATM   23  C   UNL     1     -11.490  15.927  69.594  1.00  0.00    -0.346 A  
HETATM   24  H   UNL     1     -12.122  18.411  69.556  1.00  0.00     0.000 HD 
HETATM   25  C   UNL     1     -10.260  16.742  69.368  1.00  0.00    -0.225 C  
HETATM   26  O   UNL     1     -10.253  17.935  69.647  1.00  0.00    -0.026 OA 
HETATM   27  C   UNL     1      -9.001  16.067  68.947  1.00  0.00    -0.239 A  
HETATM   28  C   UNL     1      -8.953  14.670  68.922  1.00  0.00    -0.136 A  
HETATM   29  C   UNL     1      -7.699  14.053  68.775  1.00  0.00    -0.112 A  
HETATM   30  C   UNL     1      -6.562  14.760  68.376  1.00  0.00    -0.101 A  
HETATM   31  C   UNL     1      -6.640  16.149  68.321  1.00  0.00    -0.127 A  
HETATM   32  H   UNL     1      -7.062  18.653  68.398  1.00  0.00     0.000 HD 
HETATM   33  O   UNL     1      -7.849  18.161  68.603  1.00  0.00    -0.299 OA 
HETATM   34  C   UNL     1      -7.834  16.798  68.643  1.00  0.00    -0.241 A  
BRANCH  30  35
HETATM   35  C   UNL     1      -5.335  14.011  67.928  1.00  0.00    -0.072 C  
HETATM   36  O   UNL     1      -5.724  12.798  67.287  1.00  0.00    -0.291 OA 
HETATM   37  H   UNL     1      -4.950  12.325  67.005  1.00  0.00     0.000 HD 
ENDBRANCH  30  35
ENDBRANCH   6  16
ENDBRANCH   2   4
TORSDOF 3
ENDMDL
MODEL      146
REMARK 921   NORMALIZED FREE ENERGY PREDICTED BY IDOCK:    8.16 KCAL/MOL
REMARK 922        TOTAL FREE ENERGY PREDICTED BY IDOCK:    8.94 KCAL/MOL
REMARK 923 INTER-LIGAND FREE ENERGY PREDICTED BY IDOCK:    3.88 KCAL/MOL
REMARK 924 INTRA-LIGAND FREE ENERGY PREDICTED BY IDOCK:    5.06 KCAL/MOL
REMARK 927      BINDING AFFINITY PREDICTED BY RF-SCORE:    0.00 PKD
ROOT
HETATM    1  O   UNL     1      -8.733   6.992  63.908  1.00  0.00    -0.186 OA 
HETATM    2  C   UNL     1      -9.481   8.189  63.763  1.00  0.00     2.512 C  
HETATM    3  H   UNL     1      -9.255   6.253  64.197  1.00  0.00     0.000 HD 
ENDROOT
BRANCH   2   4
HETATM    4  C   UNL     1      -8.635   9.384  63.295  1.00  0.00    -0.214 C  
HETATM    5  O   UNL     1      -9.264  10.620  63.687  1.00  0.00    -0.215 OA 
HETATM    6  C   UNL     1      -9.003  11.175  65.001  1.00  0.00    -0.068 C  
HETATM    7  H   UNL     1      -5.441   9.910  62.846  1.00  0.00     0.000 HD 
HETATM    8  C   UNL     1      -7.477  11.146  65.296  1.00  0.00     0.485 C  
HETATM    9  O   UNL     1      -6.367   9.980  62.643  1.00  0.00    -0.109 OA 
HETATM   10  O   UNL     1      -6.779  12.100  64.455  1.00  0.00     3.406 OA 
HETATM   11  C   UNL     1      -6.837   9.767  65.041  1.00  0.00    -0.115 C  
HETATM   12  C   UNL     1      -7.133   9.270  63.625  1.00  0.00    -0.094 C  
HETATM   13  O   UNL     1      -7.257   8.803  66.009  1.00  0.00    -0.085 OA 
HETATM   14  H   UNL     1      -6.863   7.953  65.852  1.00  0.00     0.000 HD 
HETATM   15  H   UNL     1      -5.847  12.082  64.635  1.00  0.00     0.000 HD 
BRANCH   6  16
HETATM   16  C   UNL     1     -10.037  10.691  66.126  1.00  0.00    -0.306 C  
HETATM   17  C   UNL     1     -12.394  13.715  66.084  1.00  0.00    -0.476 A  
HETATM   18  C   UNL     1     -10.823  11.917  66.610  1.00  0.00    -0.315 A  
HETATM   19  C   UNL     1     -11.814  12.484  65.784  1.00  0.00    -0.494 A  
HETATM   20  C   UNL     1     -11.986  14.416  67.210  1.00  0.00    -0.409 A  
HETATM   21  C   UNL     1     -11.047  13.849  68.070  1.00  0.00    -0.259 A  
HETATM   22  O   UNL     1     -10.643  14.581  69.150  1.00  0.00    -0.244 OA 
HETATM   23  C   UNL     1     -10.503  12.576  67.811  1.00  0.00    -0.230 A  
HETATM   24  H   UNL     1     -10.003  14.194  69.735  1.00  0.00     0.000 HD 
HETATM   25  C   UNL     1      -9.638  11.891  68.816  1.00  0.00    -0.012 C  
HETATM   26  O   UNL     1      -9.554  12.330  69.957  1.00  0.00     2.211 OA 
HETATM   27  C   UNL     1      -9.003  10.589  68.469  1.00  0.00    -0.147 A  
HETATM   28  C   UNL     1      -9.353   9.958  67.271  1.00  0.00    -0.167 A  
HETATM   29  C   UNL     1      -8.948   8.626  67.081  1.00  0.00    -0.148 A  
HETATM   30  C   UNL     1      -7.991   8.014  67.896  1.00  0.00    -0.128 A  
HETATM   31  C   UNL     1      -7.584   8.684  69.046  1.00  0.00    -0.090 A  
HETATM   32  H   UNL     1      -7.107  10.102  71.099  1.00  0.00     0.000 HD 
HETATM   33  O   UNL     1      -7.706  10.540  70.505  1.00  0.00     0.065 OA 
HETATM   34  C   UNL     1      -8.115   9.939  69.351  1.00  0.00    -0.139 A  
BRANCH  30  35
HETATM   35  C   UNL     1      -7.364   6.714  67.464  1.00  0.00    -0.095 C  
HETATM   36  O   UNL     1      -6.572   6.191  68.528  1.00  0.00    -0.053 OA 
HETATM   37  H   UNL     1      -6.177   5.371  68.255  1.00  0.00     0.000 HD 
ENDBRANCH  30  35
ENDBRANCH   6  16
ENDBRANCH   2   4
TORSDOF 3
ENDMDL
MODEL      147
REMARK 921   NORMALIZED FREE ENERGY PREDICTED BY IDOCK:    8.36 KCAL/MOL
REMARK 922        TOTAL FREE ENERGY PREDICTED BY IDOCK:    9.17 KCAL/MOL
REMARK 923 INTER-LIGAND FREE ENERGY PREDICTED BY IDOCK:    3.01 KCAL/MOL
REMARK 924 INTRA-LIGAND FREE ENERGY PREDICTED BY IDOCK:    6.16 KCAL/MOL
REMARK 927      BINDING AFFINITY PREDICTED BY RF-SCORE:    0.00 PKD
ROOT
HETATM    1  O   UNL     1     -10.299  18.514  69.651  1.00  0.00    -0.262 OA 
HETATM    2  C   UNL     1      -9.890  17.216  69.252  1.00  0.00    -0.100 C  
HETATM    3  H   UNL     1      -9.601  19.028  70.038  1.00  0.00     0.000 HD 
ENDROOT
BRANCH   2   4
HETATM    4  C   UNL     1     -11.021  16.385  68.626  1.00  0.00    -0.345 C  
HETATM    5  O   UNL     1     -10.475  15.239  67.944  1.00  0.00    -0.246 OA 
HETATM    6  C   UNL     1     -10.221  14.015  68.679  1.00  0.00    -0.233 C  
HETATM    7  H   UNL     1     -14.134  15.772  69.409  1.00  0.00     0.000 HD 
HETATM    8  C   UNL     1     -11.447  13.668  69.571  1.00  0.00    -0.263 C  
HETATM    9  O   UNL     1     -13.409  15.954  68.822  1.00  0.00     1.907 OA 
HETATM   10  O   UNL     1     -12.572  13.263  68.749  1.00  0.00     0.092 OA 
HETATM   11  C   UNL     1     -11.923  14.853  70.434  1.00  0.00    -0.314 C  
HETATM   12  C   UNL     1     -12.198  16.090  69.578  1.00  0.00     0.019 C  
HETATM   13  O   UNL     1     -10.989  15.158  71.472  1.00  0.00    -0.547 OA 
HETATM   14  H   UNL     1     -11.282  15.888  72.004  1.00  0.00     0.000 HD 
HETATM   15  H   UNL     1     -13.321  13.051  69.293  1.00  0.00     0.000 HD 
BRANCH   6  16
HETATM   16  C   UNL     1      -8.743  13.923  69.295  1.00  0.00     0.507 C  
HETATM   17  C   UNL     1      -7.612  17.525  68.621  1.00  0.00    -0.273 A  
HETATM   18  C   UNL     1      -7.926  15.103  68.751  1.00  0.00    -0.162 A  
HETATM   19  C   UNL     1      -8.169  16.404  69.235  1.00  0.00    -0.109 A  
HETATM   20  C   UNL     1      -6.811  17.371  67.498  1.00  0.00    -0.173 A  
HETATM   21  C   UNL     1      -6.514  16.090  67.036  1.00  0.00    -0.012 A  
HETATM   22  O   UNL     1      -5.752  15.978  65.908  1.00  0.00     1.729 OA 
HETATM   23  C   UNL     1      -7.018  14.949  67.689  1.00  0.00    -0.207 A  
HETATM   24  H   UNL     1      -5.550  15.105  65.593  1.00  0.00     0.000 HD 
HETATM   25  C   UNL     1      -6.560  13.580  67.308  1.00  0.00     0.196 C  
HETATM   26  O   UNL     1      -5.595  13.438  66.567  1.00  0.00     1.221 OA 
HETATM   27  C   UNL     1      -7.185  12.393  67.954  1.00  0.00    -0.110 A  
HETATM   28  C   UNL     1      -8.076  12.585  69.014  1.00  0.00     0.329 A  
HETATM   29  C   UNL     1      -8.454  11.463  69.773  1.00  0.00     1.197 A  
HETATM   30  C   UNL     1      -8.206  10.156  69.346  1.00  0.00    -0.171 A  
HETATM   31  C   UNL     1      -7.384   9.973  68.237  1.00  0.00    -0.078 A  
HETATM   32  H   UNL     1      -5.794   9.957  66.256  1.00  0.00     0.000 HD 
HETATM   33  O   UNL     1      -6.023  10.843  66.512  1.00  0.00    -0.090 OA 
HETATM   34  C   UNL     1      -6.846  11.078  67.574  1.00  0.00    -0.084 A  
BRANCH  30  35
HETATM   35  C   UNL     1      -8.902   9.004  70.023  1.00  0.00    -0.173 C  
HETATM   36  O   UNL     1      -9.702   9.496  71.096  1.00  0.00    -0.235 OA 
HETATM   37  H   UNL     1     -10.141   8.769  71.523  1.00  0.00     0.000 HD 
ENDBRANCH  30  35
ENDBRANCH   6  16
ENDBRANCH   2   4
TORSDOF 3
ENDMDL
MODEL      148
REMARK 921   NORMALIZED FREE ENERGY PREDICTED BY IDOCK:    9.30 KCAL/MOL
REMARK 922        TOTAL FREE ENERGY PREDICTED BY IDOCK:   10.28 KCAL/MOL
REMARK 923 INTER-LIGAND FREE ENERGY PREDICTED BY IDOCK:    1.64 KCAL/MOL
REMARK 924 INTRA-LIGAND FREE ENERGY PREDICTED BY IDOCK:    8.64 KCAL/MOL
REMARK 927      BINDING AFFINITY PREDICTED BY RF-SCORE:    0.00 PKD
ROOT
HETATM    1  O   UNL     1      -6.400  10.093  66.593  1.00  0.00    -0.067 OA 
HETATM    2  C   UNL     1      -7.198  10.550  67.674  1.00  0.00    -0.086 C  
HETATM    3  H   UNL     1      -5.468  10.123  66.774  1.00  0.00     0.000 HD 
ENDROOT
BRANCH   2   4
HETATM    4  C   UNL     1      -8.706  10.501  67.382  1.00  0.00    -0.125 C  
HETATM    5  O   UNL     1      -9.336  11.719  67.824  1.00  0.00    -0.171 OA 
HETATM    6  C   UNL     1      -9.382  12.868  66.943  1.00  0.00    -0.240 C  
HETATM    7  H   UNL     1     -10.560   9.122  65.071  1.00  0.00     0.000 HD 
HETATM    8  C   UNL     1      -9.832  12.429  65.520  1.00  0.00    -0.200 C  
HETATM    9  O   UNL     1     -10.340   9.399  65.953  1.00  0.00    -0.191 OA 
HETATM   10  O   UNL     1     -11.230  12.039  65.530  1.00  0.00    -0.313 OA 
HETATM   11  C   UNL     1      -9.033  11.230  64.975  1.00  0.00    -0.005 C  
HETATM   12  C   UNL     1      -9.063  10.052  65.950  1.00  0.00    -0.159 C  
HETATM   13  O   UNL     1      -7.685  11.590  64.666  1.00  0.00     0.470 OA 
HETATM   14  H   UNL     1      -7.192  10.851  64.330  1.00  0.00     0.000 HD 
HETATM   15  H   UNL     1     -11.505  11.771  64.661  1.00  0.00     0.000 HD 
BRANCH   6  16
HETATM   16  C   UNL     1      -8.133  13.860  67.106  1.00  0.00    -0.103 C  
HETATM   17  C   UNL     1      -5.741  11.481  68.930  1.00  0.00    -0.046 A  
HETATM   18  C   UNL     1      -7.211  13.291  68.194  1.00  0.00    -0.112 A  
HETATM   19  C   UNL     1      -6.420  12.158  67.918  1.00  0.00    -0.078 A  
HETATM   20  C   UNL     1      -5.851  11.913  70.245  1.00  0.00    -0.164 A  
HETATM   21  C   UNL     1      -6.584  13.062  70.532  1.00  0.00     0.766 A  
HETATM   22  O   UNL     1      -6.699  13.438  71.840  1.00  0.00     1.078 OA 
HETATM   23  C   UNL     1      -7.219  13.792  69.508  1.00  0.00     0.194 A  
HETATM   24  H   UNL     1      -7.199  14.222  72.035  1.00  0.00     0.000 HD 
HETATM   25  C   UNL     1      -7.851  15.115  69.786  1.00  0.00    -0.042 C  
HETATM   26  O   UNL     1      -7.652  15.680  70.854  1.00  0.00     1.541 OA 
HETATM   27  C   UNL     1      -8.596  15.812  68.701  1.00  0.00    -0.194 A  
HETATM   28  C   UNL     1      -8.558  15.291  67.404  1.00  0.00    -0.197 A  
HETATM   29  C   UNL     1      -9.045  16.089  66.355  1.00  0.00    -0.354 A  
HETATM   30  C   UNL     1      -9.807  17.238  66.583  1.00  0.00    -0.299 A  
HETATM   31  C   UNL     1      -9.911  17.707  67.890  1.00  0.00    -0.300 A  
HETATM   32  H   UNL     1      -9.846  18.360  70.343  1.00  0.00     0.000 HD 
HETATM   33  O   UNL     1      -9.386  17.543  70.189  1.00  0.00     1.430 OA 
HETATM   34  C   UNL     1      -9.279  17.025  68.931  1.00  0.00    -0.215 A  
BRANCH  30  35
HETATM   35  C   UNL     1     -10.564  17.870  65.444  1.00  0.00     0.116 C  
HETATM   36  O   UNL     1     -11.011  19.167  65.831  1.00  0.00    -0.289 OA 
HETATM   37  H   UNL     1     -11.489  19.566  65.113  1.00  0.00     0.000 HD 
ENDBRANCH  30  35
ENDBRANCH   6  16
ENDBRANCH   2   4
TORSDOF 3
ENDMDL
MODEL      149
REMARK 921   NORMALIZED FREE ENERGY PREDICTED BY IDOCK:   11.79 KCAL/MOL
REMARK 922        TOTAL FREE ENERGY PREDICTED BY IDOCK:   13.21 KCAL/MOL
REMARK 923 INTER-LIGAND FREE ENERGY PREDICTED BY IDOCK:   -0.77 KCAL/MOL
REMARK 924 INTRA-LIGAND FREE ENERGY PREDICTED BY IDOCK:   13.97 KCAL/MOL
REMARK 927      BINDING AFFINITY PREDICTED BY RF-SCORE:    0.00 PKD
ROOT
HETATM    1  O   UNL     1      -8.793  18.447  70.364  1.00  0.00     2.443 OA 
HETATM    2  C   UNL     1      -8.608  18.832  69.011  1.00  0.00    -0.098 C  
HETATM    3  H   UNL     1      -9.588  18.795  70.750  1.00  0.00     0.000 HD 
ENDROOT
BRANCH   2   4
HETATM    4  C   UNL     1      -7.322  18.267  68.386  1.00  0.00    -0.275 C  
HETATM    5  O   UNL     1      -7.597  17.009  67.739  1.00  0.00    -0.165 OA 
HETATM    6  C   UNL     1      -8.062  16.991  66.366  1.00  0.00    -0.300 C  
HETATM    7  H   UNL     1      -4.634  19.577  67.067  1.00  0.00     0.000 HD 
HETATM    8  C   UNL     1      -7.195  17.947  65.499  1.00  0.00     0.199 C  
HETATM    9  O   UNL     1      -5.128  18.951  67.585  1.00  0.00    -0.167 OA 
HETATM   10  O   UNL     1      -5.857  17.411  65.339  1.00  0.00     0.062 OA 
HETATM   11  C   UNL     1      -7.047  19.353  66.112  1.00  0.00    -0.258 C  
HETATM   12  C   UNL     1      -6.522  19.283  67.546  1.00  0.00    -0.204 C  
HETATM   13  O   UNL     1      -8.276  20.083  66.062  1.00  0.00    -0.449 OA 
HETATM   14  H   UNL     1      -8.184  20.949  66.440  1.00  0.00     0.000 HD 
HETATM   15  H   UNL     1      -5.326  17.995  64.809  1.00  0.00     0.000 HD 
BRANCH   6  16
HETATM   16  C   UNL     1      -9.659  17.022  66.223  1.00  0.00    -0.289 C  
HETATM   17  C   UNL     1     -10.370  20.130  68.352  1.00  0.00    -0.401 A  
HETATM   18  C   UNL     1     -10.221  17.909  67.342  1.00  0.00    -0.363 A  
HETATM   19  C   UNL     1     -10.074  19.308  67.266  1.00  0.00    -0.481 A  
HETATM   20  C   UNL     1     -10.806  19.571  69.545  1.00  0.00     1.309 A  
HETATM   21  C   UNL     1     -11.009  18.194  69.624  1.00  0.00     1.661 A  
HETATM   22  O   UNL     1     -11.405  17.673  70.824  1.00  0.00     0.893 OA 
HETATM   23  C   UNL     1     -10.777  17.362  68.512  1.00  0.00    -0.279 A  
HETATM   24  H   UNL     1     -11.543  16.735  70.877  1.00  0.00     0.000 HD 
HETATM   25  C   UNL     1     -11.163  15.920  68.538  1.00  0.00    -0.362 C  
HETATM   26  O   UNL     1     -11.868  15.487  69.441  1.00  0.00    -0.343 OA 
HETATM   27  C   UNL     1     -10.815  15.049  67.381  1.00  0.00    -0.305 A  
HETATM   28  C   UNL     1     -10.273  15.629  66.230  1.00  0.00    -0.312 A  
HETATM   29  C   UNL     1     -10.191  14.844  65.067  1.00  0.00    -0.365 A  
HETATM   30  C   UNL     1     -10.360  13.456  65.091  1.00  0.00    -0.349 A  
HETATM   31  C   UNL     1     -10.822  12.873  66.268  1.00  0.00    -0.295 A  
HETATM   32  H   UNL     1     -11.746  12.115  68.509  1.00  0.00     0.000 HD 
HETATM   33  O   UNL     1     -11.564  13.048  68.505  1.00  0.00    -0.283 OA 
HETATM   34  C   UNL     1     -11.085  13.665  67.387  1.00  0.00    -0.282 A  
BRANCH  30  35
HETATM   35  C   UNL     1      -9.952  12.634  63.897  1.00  0.00    -0.095 C  
HETATM   36  O   UNL     1     -11.107  12.034  63.315  1.00  0.00    -0.614 OA 
HETATM   37  H   UNL     1     -10.850  11.515  62.562  1.00  0.00     0.000 HD 
ENDBRANCH  30  35
ENDBRANCH   6  16
ENDBRANCH   2   4
TORSDOF 3
ENDMDL
MODEL      150
REMARK 921   NORMALIZED FREE ENERGY PREDICTED BY IDOCK:   12.34 KCAL/MOL
REMARK 922        TOTAL FREE ENERGY PREDICTED BY IDOCK:   13.85 KCAL/MOL
REMARK 923 INTER-LIGAND FREE ENERGY PREDICTED BY IDOCK:    8.39 KCAL/MOL
REMARK 924 INTRA-LIGAND FREE ENERGY PREDICTED BY IDOCK:    5.45 KCAL/MOL
REMARK 927      BINDING AFFINITY PREDICTED BY RF-SCORE:    0.00 PKD
ROOT
HETATM    1  O   UNL     1      -8.769  20.228  69.176  1.00  0.00     0.320 OA 
HETATM    2  C   UNL     1      -8.669  18.908  69.688  1.00  0.00     0.664 C  
HETATM    3  H   UNL     1      -7.935  20.589  68.899  1.00  0.00     0.000 HD 
ENDROOT
BRANCH   2   4
HETATM    4  C   UNL     1     -10.018  18.324  70.136  1.00  0.00     1.339 C  
HETATM    5  O   UNL     1     -10.725  17.784  69.002  1.00  0.00    -0.131 OA 
HETATM    6  C   UNL     1     -10.475  16.420  68.579  1.00  0.00    -0.291 C  
HETATM    7  H   UNL     1     -11.115  16.885  72.857  1.00  0.00     0.000 HD 
HETATM    8  C   UNL     1     -10.483  15.472  69.812  1.00  0.00    -0.301 C  
HETATM    9  O   UNL     1     -11.167  17.455  72.099  1.00  0.00     0.727 OA 
HETATM   10  O   UNL     1     -11.826  15.348  70.346  1.00  0.00    -0.281 OA 
HETATM   11  C   UNL     1      -9.584  15.966  70.962  1.00  0.00     2.342 C  
HETATM   12  C   UNL     1      -9.935  17.398  71.367  1.00  0.00     4.973 C  
HETATM   13  O   UNL     1      -8.197  15.864  70.628  1.00  0.00     1.603 OA 
HETATM   14  H   UNL     1      -7.643  16.169  71.337  1.00  0.00     0.000 HD 
HETATM   15  H   UNL     1     -11.831  14.769  71.099  1.00  0.00     0.000 HD 
BRANCH   6  16
HETATM   16  C   UNL     1      -9.312  16.285  67.484  1.00  0.00    -0.217 C  
HETATM   17  C   UNL     1     -11.502  15.758  64.380  1.00  0.00    -0.268 A  
HETATM   18  C   UNL     1      -9.911  15.628  66.232  1.00  0.00    -0.318 A  
HETATM   19  C   UNL     1     -10.768  16.370  65.396  1.00  0.00    -0.310 A  
HETATM   20  C   UNL     1     -11.407  14.387  64.189  1.00  0.00    -0.033 A  
HETATM   21  C   UNL     1     -10.524  13.643  64.969  1.00  0.00    -0.391 A  
HETATM   22  O   UNL     1     -10.482  12.291  64.777  1.00  0.00    -0.276 OA 
HETATM   23  C   UNL     1      -9.729  14.262  65.953  1.00  0.00    -0.289 A  
HETATM   24  H   UNL     1      -9.880  11.785  65.309  1.00  0.00     0.000 HD 
HETATM   25  C   UNL     1      -8.658  13.503  66.665  1.00  0.00     0.077 C  
HETATM   26  O   UNL     1      -8.318  12.397  66.265  1.00  0.00     0.112 OA 
HETATM   27  C   UNL     1      -7.902  14.163  67.766  1.00  0.00    -0.177 A  
HETATM   28  C   UNL     1      -8.102  15.526  68.008  1.00  0.00    -0.140 A  
HETATM   29  C   UNL     1      -7.205  16.184  68.867  1.00  0.00    -0.178 A  
HETATM   30  C   UNL     1      -6.316  15.489  69.692  1.00  0.00    -0.163 A  
HETATM   31  C   UNL     1      -6.182  14.117  69.502  1.00  0.00    -0.119 A  
HETATM   32  H   UNL     1      -6.095  11.659  68.867  1.00  0.00     0.000 HD 
HETATM   33  O   UNL     1      -6.746  12.127  68.356  1.00  0.00    -0.054 OA 
HETATM   34  C   UNL     1      -6.936  13.468  68.522  1.00  0.00    -0.102 A  
BRANCH  30  35
HETATM   35  C   UNL     1      -5.612  16.214  70.809  1.00  0.00     0.010 C  
HETATM   36  O   UNL     1      -5.634  15.410  71.986  1.00  0.00     0.265 OA 
HETATM   37  H   UNL     1      -5.190  15.867  72.691  1.00  0.00     0.000 HD 
ENDBRANCH  30  35
ENDBRANCH   6  16
ENDBRANCH   2   4
TORSDOF 3
ENDMDL
MODEL      151
REMARK 921   NORMALIZED FREE ENERGY PREDICTED BY IDOCK:   14.49 KCAL/MOL
REMARK 922        TOTAL FREE ENERGY PREDICTED BY IDOCK:   16.38 KCAL/MOL
REMARK 923 INTER-LIGAND FREE ENERGY PREDICTED BY IDOCK:    3.44 KCAL/MOL
REMARK 924 INTRA-LIGAND FREE ENERGY PREDICTED BY IDOCK:   12.94 KCAL/MOL
REMARK 927      BINDING AFFINITY PREDICTED BY RF-SCORE:    0.00 PKD
ROOT
HETATM    1  O   UNL     1      -8.890  12.360  67.272  1.00  0.00    -0.176 OA 
HETATM    2  C   UNL     1      -8.537  11.000  67.075  1.00  0.00    -0.140 C  
HETATM    3  H   UNL     1      -8.171  12.895  67.587  1.00  0.00     0.000 HD 
ENDROOT
BRANCH   2   4
HETATM    4  C   UNL     1      -9.700  10.135  66.564  1.00  0.00    -0.200 C  
HETATM    5  O   UNL     1      -9.224   8.821  66.213  1.00  0.00    -0.176 OA 
HETATM    6  C   UNL     1      -9.136   7.791  67.229  1.00  0.00    -0.131 C  
HETATM    7  H   UNL     1     -12.901   9.970  67.204  1.00  0.00     0.000 HD 
HETATM    8  C   UNL     1     -10.443   7.761  68.071  1.00  0.00    -0.185 C  
HETATM    9  O   UNL     1     -12.126   9.950  66.655  1.00  0.00     2.766 OA 
HETATM   10  O   UNL     1     -11.547   7.262  67.273  1.00  0.00    -0.212 OA 
HETATM   11  C   UNL     1     -10.857   9.150  68.595  1.00  0.00    -0.049 C  
HETATM   12  C   UNL     1     -10.958  10.167  67.457  1.00  0.00    -0.255 C  
HETATM   13  O   UNL     1      -9.965   9.619  69.609  1.00  0.00    -0.193 OA 
HETATM   14  H   UNL     1     -10.220  10.475  69.932  1.00  0.00     0.000 HD 
HETATM   15  H   UNL     1     -12.346   7.244  67.787  1.00  0.00     0.000 HD 
BRANCH   6  16
HETATM   16  C   UNL     1      -7.715   7.732  67.970  1.00  0.00    -0.126 C  
HETATM   17  C   UNL     1      -8.243   4.505  69.973  1.00  0.00    -0.069 A  
HETATM   18  C   UNL     1      -7.841   6.778  69.166  1.00  0.00    -0.111 A  
HETATM   19  C   UNL     1      -7.911   5.387  68.946  1.00  0.00    -0.094 A  
HETATM   20  C   UNL     1      -8.527   4.994  71.240  1.00  0.00    -0.124 A  
HETATM   21  C   UNL     1      -8.410   6.360  71.492  1.00  0.00    -0.125 A  
HETATM   22  O   UNL     1      -8.732   6.811  72.741  1.00  0.00    -0.122 OA 
HETATM   23  C   UNL     1      -8.011   7.253  70.478  1.00  0.00    -0.104 A  
HETATM   24  H   UNL     1      -8.652   7.742  72.912  1.00  0.00     0.000 HD 
HETATM   25  C   UNL     1      -7.713   8.682  70.786  1.00  0.00    -0.090 C  
HETATM   26  O   UNL     1      -7.612   9.053  71.949  1.00  0.00    -0.334 OA 
HETATM   27  C   UNL     1      -7.387   9.618  69.675  1.00  0.00    -0.093 A  
HETATM   28  C   UNL     1      -7.215   9.109  68.384  1.00  0.00    -0.077 A  
HETATM   29  C   UNL     1      -6.661   9.953  67.406  1.00  0.00    -0.074 A  
HETATM   30  C   UNL     1      -6.544  11.334  67.593  1.00  0.00    -0.072 A  
HETATM   31  C   UNL     1      -6.798  11.847  68.863  1.00  0.00    -0.103 A  
HETATM   32  H   UNL     1      -7.240  12.470  71.285  1.00  0.00     0.000 HD 
HETATM   33  O   UNL     1      -7.383  11.543  71.132  1.00  0.00     2.898 OA 
HETATM   34  C   UNL     1      -7.175  10.993  69.901  1.00  0.00     0.097 A  
BRANCH  30  35
HETATM   35  C   UNL     1      -6.247  12.224  66.415  1.00  0.00     1.043 C  
HETATM   36  O   UNL     1      -6.437  11.494  65.206  1.00  0.00     0.067 OA 
HETATM   37  H   UNL     1      -6.251  12.056  64.463  1.00  0.00     0.000 HD 
ENDBRANCH  30  35
ENDBRANCH   6  16
ENDBRANCH   2   4
TORSDOF 3
ENDMDL
MODEL      152
REMARK 921   NORMALIZED FREE ENERGY PREDICTED BY IDOCK:   15.79 KCAL/MOL
REMARK 922        TOTAL FREE ENERGY PREDICTED BY IDOCK:   17.90 KCAL/MOL
REMARK 923 INTER-LIGAND FREE ENERGY PREDICTED BY IDOCK:   -4.37 KCAL/MOL
REMARK 924 INTRA-LIGAND FREE ENERGY PREDICTED BY IDOCK:   22.27 KCAL/MOL
REMARK 927      BINDING AFFINITY PREDICTED BY RF-SCORE:    0.00 PKD
ROOT
HETATM    1  O   UNL     1     -10.862  11.570  67.906  1.00  0.00    -0.189 OA 
HETATM    2  C   UNL     1     -11.398  12.345  66.845  1.00  0.00    -0.333 C  
HETATM    3  H   UNL     1     -11.522  11.246  68.507  1.00  0.00     0.000 HD 
ENDROOT
BRANCH   2   4
HETATM    4  C   UNL     1     -10.330  12.869  65.872  1.00  0.00    -0.285 C  
HETATM    5  O   UNL     1      -9.178  12.003  65.888  1.00  0.00    -0.199 OA 
HETATM    6  C   UNL     1      -9.141  10.838  65.026  1.00  0.00    -0.203 C  
HETATM    7  H   UNL     1     -10.395  14.501  63.042  1.00  0.00     0.000 HD 
HETATM    8  C   UNL     1      -9.594  11.225  63.589  1.00  0.00    -0.274 C  
HETATM    9  O   UNL     1     -10.064  14.277  63.904  1.00  0.00     0.849 OA 
HETATM   10  O   UNL     1      -8.597  12.066  62.954  1.00  0.00    -0.332 OA 
HETATM   11  C   UNL     1     -10.923  12.004  63.563  1.00  0.00    -0.444 C  
HETATM   12  C   UNL     1     -10.867  13.233  64.473  1.00  0.00    -0.394 C  
HETATM   13  O   UNL     1     -12.030  11.171  63.914  1.00  0.00    -0.146 OA 
HETATM   14  H   UNL     1     -12.849  11.651  63.898  1.00  0.00     0.000 HD 
HETATM   15  H   UNL     1      -8.873  12.303  62.076  1.00  0.00     0.000 HD 
BRANCH   6  16
HETATM   16  C   UNL     1      -9.722   9.508  65.707  1.00  0.00    -0.357 C  
HETATM   17  C   UNL     1     -11.388  11.109  68.768  1.00  0.00    -0.342 A  
HETATM   18  C   UNL     1     -10.049   9.827  67.173  1.00  0.00    -0.267 A  
HETATM   19  C   UNL     1     -11.177  10.615  67.482  1.00  0.00    -0.326 A  
HETATM   20  C   UNL     1     -10.468  10.840  69.772  1.00  0.00    -0.130 A  
HETATM   21  C   UNL     1      -9.375  10.019  69.500  1.00  0.00    -0.229 A  
HETATM   22  O   UNL     1      -8.471   9.805  70.502  1.00  0.00    -0.260 OA 
HETATM   23  C   UNL     1      -9.187   9.460  68.221  1.00  0.00    -0.133 A  
HETATM   24  H   UNL     1      -7.726   9.245  70.317  1.00  0.00     0.000 HD 
HETATM   25  C   UNL     1      -8.124   8.442  67.976  1.00  0.00    -0.123 C  
HETATM   26  O   UNL     1      -7.535   7.928  68.918  1.00  0.00    -0.090 OA 
HETATM   27  C   UNL     1      -7.893   7.945  66.591  1.00  0.00    -0.102 A  
HETATM   28  C   UNL     1      -8.776   8.323  65.575  1.00  0.00    -0.173 A  
HETATM   29  C   UNL     1      -8.698   7.649  64.344  1.00  0.00     0.435 A  
HETATM   30  C   UNL     1      -7.614   6.834  64.008  1.00  0.00    -0.108 A  
HETATM   31  C   UNL     1      -6.690   6.527  65.004  1.00  0.00    -0.042 A  
HETATM   32  H   UNL     1      -5.232   6.081  67.035  1.00  0.00     0.000 HD 
HETATM   33  O   UNL     1      -5.935   6.688  67.238  1.00  0.00    -0.016 OA 
HETATM   34  C   UNL     1      -6.851   7.044  66.291  1.00  0.00    -0.061 A  
BRANCH  30  35
HETATM   35  C   UNL     1      -7.422   6.397  62.579  1.00  0.00    -0.064 C  
HETATM   36  O   UNL     1      -6.831   5.101  62.552  1.00  0.00    -0.029 OA 
HETATM   37  H   UNL     1      -6.710   4.825  61.651  1.00  0.00     0.000 HD 
ENDBRANCH  30  35
ENDBRANCH   6  16
ENDBRANCH   2   4
TORSDOF 3
ENDMDL
MODEL      153
REMARK 921   NORMALIZED FREE ENERGY PREDICTED BY IDOCK:   16.45 KCAL/MOL
REMARK 922        TOTAL FREE ENERGY PREDICTED BY IDOCK:   18.68 KCAL/MOL
REMARK 923 INTER-LIGAND FREE ENERGY PREDICTED BY IDOCK:   -4.79 KCAL/MOL
REMARK 924 INTRA-LIGAND FREE ENERGY PREDICTED BY IDOCK:   23.47 KCAL/MOL
REMARK 927      BINDING AFFINITY PREDICTED BY RF-SCORE:    0.00 PKD
ROOT
HETATM    1  O   UNL     1      -8.130   9.685  66.857  1.00  0.00    -0.112 OA 
HETATM    2  C   UNL     1      -9.007   9.289  65.814  1.00  0.00    -0.192 C  
HETATM    3  H   UNL     1      -7.324   9.182  66.884  1.00  0.00     0.000 HD 
ENDROOT
BRANCH   2   4
HETATM    4  C   UNL     1     -10.309  10.103  65.769  1.00  0.00    -0.146 C  
HETATM    5  O   UNL     1     -10.929  10.119  67.070  1.00  0.00    -0.209 OA 
HETATM    6  C   UNL     1     -10.541  11.122  68.042  1.00  0.00    -0.198 C  
HETATM    7  H   UNL     1     -11.350  12.690  64.065  1.00  0.00     0.000 HD 
HETATM    8  C   UNL     1     -10.499  12.524  67.370  1.00  0.00    -0.219 C  
HETATM    9  O   UNL     1     -11.430  11.844  64.489  1.00  0.00    -0.327 OA 
HETATM   10  O   UNL     1     -11.840  12.968  67.041  1.00  0.00    -0.367 OA 
HETATM   11  C   UNL     1      -9.684  12.544  66.062  1.00  0.00    -0.241 C  
HETATM   12  C   UNL     1     -10.177  11.478  65.082  1.00  0.00    -0.274 C  
HETATM   13  O   UNL     1      -8.285  12.387  66.310  1.00  0.00    -0.380 OA 
HETATM   14  H   UNL     1      -7.782  12.399  65.504  1.00  0.00     0.000 HD 
HETATM   15  H   UNL     1     -11.814  13.824  66.630  1.00  0.00     0.000 HD 
BRANCH   6  16
HETATM   16  C   UNL     1      -9.339  10.666  68.999  1.00  0.00    -0.191 C  
HETATM   17  C   UNL     1      -6.793  13.375  68.057  1.00  0.00    -0.132 A  
HETATM   18  C   UNL     1      -8.048  11.321  68.488  1.00  0.00    -0.148 A  
HETATM   19  C   UNL     1      -7.836  12.700  68.689  1.00  0.00    -0.043 A  
HETATM   20  C   UNL     1      -5.946  12.689  67.197  1.00  0.00     0.036 A  
HETATM   21  C   UNL     1      -6.105  11.316  67.027  1.00  0.00    -0.108 A  
HETATM   22  O   UNL     1      -5.277  10.680  66.146  1.00  0.00    -0.057 OA 
HETATM   23  C   UNL     1      -7.115  10.612  67.711  1.00  0.00    -0.083 A  
HETATM   24  H   UNL     1      -5.385   9.743  66.030  1.00  0.00     0.000 HD 
HETATM   25  C   UNL     1      -7.175   9.121  67.671  1.00  0.00    -0.083 C  
HETATM   26  O   UNL     1      -6.236   8.479  67.215  1.00  0.00    -0.054 OA 
HETATM   27  C   UNL     1      -8.311   8.416  68.328  1.00  0.00    -0.131 A  
HETATM   28  C   UNL     1      -9.214   9.153  69.100  1.00  0.00    -0.144 A  
HETATM   29  C   UNL     1     -10.118   8.448  69.914  1.00  0.00    -0.195 A  
HETATM   30  C   UNL     1     -10.338   7.075  69.770  1.00  0.00    -0.225 A  
HETATM   31  C   UNL     1      -9.485   6.360  68.933  1.00  0.00    -0.128 A  
HETATM   32  H   UNL     1      -7.732   5.320  67.417  1.00  0.00     0.000 HD 
HETATM   33  O   UNL     1      -7.633   6.264  67.468  1.00  0.00    -0.093 OA 
HETATM   34  C   UNL     1      -8.458   7.016  68.252  1.00  0.00    -0.123 A  
BRANCH  30  35
HETATM   35  C   UNL     1     -11.528   6.436  70.434  1.00  0.00    -0.393 C  
HETATM   36  O   UNL     1     -11.208   5.095  70.797  1.00  0.00     0.171 OA 
HETATM   37  H   UNL     1     -11.959   4.691  71.216  1.00  0.00     0.000 HD 
ENDBRANCH  30  35
ENDBRANCH   6  16
ENDBRANCH   2   4
TORSDOF 3
ENDMDL
MODEL      154
REMARK 921   NORMALIZED FREE ENERGY PREDICTED BY IDOCK:   18.80 KCAL/MOL
REMARK 922        TOTAL FREE ENERGY PREDICTED BY IDOCK:   21.45 KCAL/MOL
REMARK 923 INTER-LIGAND FREE ENERGY PREDICTED BY IDOCK:   21.48 KCAL/MOL
REMARK 924 INTRA-LIGAND FREE ENERGY PREDICTED BY IDOCK:   -0.03 KCAL/MOL
REMARK 927      BINDING AFFINITY PREDICTED BY RF-SCORE:    0.00 PKD
ROOT
HETATM    1  O   UNL     1     -10.280  16.879  64.412  1.00  0.00     0.653 OA 
HETATM    2  C   UNL     1      -9.435  17.914  64.890  1.00  0.00     3.437 C  
HETATM    3  H   UNL     1      -9.846  16.287  63.809  1.00  0.00     0.000 HD 
ENDROOT
BRANCH   2   4
HETATM    4  C   UNL     1     -10.137  18.872  65.867  1.00  0.00    -0.217 C  
HETATM    5  O   UNL     1     -10.927  18.124  66.812  1.00  0.00    -0.142 OA 
HETATM    6  C   UNL     1     -10.313  17.619  68.024  1.00  0.00    -0.375 C  
HETATM    7  H   UNL     1      -9.410  21.785  67.156  1.00  0.00     0.000 HD 
HETATM    8  C   UNL     1      -9.457  18.733  68.691  1.00  0.00    -0.368 C  
HETATM    9  O   UNL     1      -9.978  21.123  66.780  1.00  0.00     0.128 OA 
HETATM   10  O   UNL     1     -10.312  19.772  69.232  1.00  0.00    -0.636 OA 
HETATM   11  C   UNL     1      -8.483  19.415  67.711  1.00  0.00    -0.310 C  
HETATM   12  C   UNL     1      -9.215  19.947  66.477  1.00  0.00    -0.389 C  
HETATM   13  O   UNL     1      -7.422  18.538  67.325  1.00  0.00    -0.215 OA 
HETATM   14  H   UNL     1      -6.822  18.958  66.721  1.00  0.00     0.000 HD 
HETATM   15  H   UNL     1      -9.789  20.453  69.639  1.00  0.00     0.000 HD 
BRANCH   6  16
HETATM   16  C   UNL     1      -9.713  16.139  67.878  1.00  0.00    -0.225 C  
HETATM   17  C   UNL     1     -12.755  14.435  66.283  1.00  0.00     0.035 A  
HETATM   18  C   UNL     1     -10.883  15.167  67.675  1.00  0.00    -0.295 A  
HETATM   19  C   UNL     1     -11.560  15.137  66.440  1.00  0.00    -0.089 A  
HETATM   20  C   UNL     1     -13.309  13.762  67.363  1.00  0.00     4.001 A  
HETATM   21  C   UNL     1     -12.628  13.735  68.578  1.00  0.00     0.599 A  
HETATM   22  O   UNL     1     -13.219  13.092  69.629  1.00  0.00     0.904 OA 
HETATM   23  C   UNL     1     -11.387  14.384  68.729  1.00  0.00    -0.299 A  
HETATM   24  H   UNL     1     -12.755  13.074  70.457  1.00  0.00     0.000 HD 
HETATM   25  C   UNL     1     -10.573  14.208  69.968  1.00  0.00     0.441 C  
HETATM   26  O   UNL     1     -10.870  13.343  70.782  1.00  0.00     1.529 OA 
HETATM   27  C   UNL     1      -9.314  14.986  70.132  1.00  0.00     0.468 A  
HETATM   28  C   UNL     1      -8.837  15.746  69.059  1.00  0.00    -0.236 A  
HETATM   29  C   UNL     1      -7.532  16.260  69.140  1.00  0.00    -0.218 A  
HETATM   30  C   UNL     1      -6.811  16.283  70.337  1.00  0.00     0.932 A  
HETATM   31  C   UNL     1      -7.332  15.592  71.429  1.00  0.00     3.052 A  
HETATM   32  H   UNL     1      -8.484  14.185  73.202  1.00  0.00     0.000 HD 
HETATM   33  O   UNL     1      -9.000  14.231  72.404  1.00  0.00     6.053 OA 
HETATM   34  C   UNL     1      -8.549  14.917  71.315  1.00  0.00     3.687 A  
BRANCH  30  35
HETATM   35  C   UNL     1      -5.564  17.120  70.443  1.00  0.00    -0.187 C  
HETATM   36  O   UNL     1      -5.880  18.483  70.170  1.00  0.00    -0.240 OA 
HETATM   37  H   UNL     1      -5.093  19.011  70.236  1.00  0.00     0.000 HD 
ENDBRANCH  30  35
ENDBRANCH   6  16
ENDBRANCH   2   4
TORSDOF 3
ENDMDL
MODEL      155
REMARK 921   NORMALIZED FREE ENERGY PREDICTED BY IDOCK:   19.02 KCAL/MOL
REMARK 922        TOTAL FREE ENERGY PREDICTED BY IDOCK:   21.71 KCAL/MOL
REMARK 923 INTER-LIGAND FREE ENERGY PREDICTED BY IDOCK:    3.20 KCAL/MOL
REMARK 924 INTRA-LIGAND FREE ENERGY PREDICTED BY IDOCK:   18.51 KCAL/MOL
REMARK 927      BINDING AFFINITY PREDICTED BY RF-SCORE:    0.00 PKD
ROOT
HETATM    1  O   UNL     1      -8.139  16.318  69.216  1.00  0.00    -0.237 OA 
HETATM    2  C   UNL     1      -9.082  15.286  69.463  1.00  0.00    -0.187 C  
HETATM    3  H   UNL     1      -7.268  15.993  69.022  1.00  0.00     0.000 HD 
ENDROOT
BRANCH   2   4
HETATM    4  C   UNL     1     -10.493  15.811  69.776  1.00  0.00    -0.317 C  
HETATM    5  O   UNL     1     -10.933  16.703  68.734  1.00  0.00    -0.328 OA 
HETATM    6  C   UNL     1     -11.584  16.169  67.555  1.00  0.00     0.227 C  
HETATM    7  H   UNL     1     -13.110  14.603  71.316  1.00  0.00     0.000 HD 
HETATM    8  C   UNL     1     -12.669  15.134  67.970  1.00  0.00     1.322 C  
HETATM    9  O   UNL     1     -12.487  15.275  71.065  1.00  0.00    -0.321 OA 
HETATM   10  O   UNL     1     -13.783  15.801  68.617  1.00  0.00     2.861 OA 
HETATM   11  C   UNL     1     -12.146  14.072  68.956  1.00  0.00    -0.323 C  
HETATM   12  C   UNL     1     -11.503  14.719  70.183  1.00  0.00    -0.266 C  
HETATM   13  O   UNL     1     -11.230  13.173  68.325  1.00  0.00    -0.244 OA 
HETATM   14  H   UNL     1     -10.907  12.518  68.932  1.00  0.00     0.000 HD 
HETATM   15  H   UNL     1     -14.445  15.170  68.872  1.00  0.00     0.000 HD 
BRANCH   6  16
HETATM   16  C   UNL     1     -10.576  15.820  66.358  1.00  0.00    -0.307 C  
HETATM   17  C   UNL     1     -13.147  15.364  63.550  1.00  0.00     2.279 A  
HETATM   18  C   UNL     1     -11.383  15.162  65.231  1.00  0.00    -0.318 A  
HETATM   19  C   UNL     1     -12.238  15.947  64.432  1.00  0.00     0.202 A  
HETATM   20  C   UNL     1     -13.232  13.982  63.457  1.00  0.00     2.171 A  
HETATM   21  C   UNL     1     -12.358  13.189  64.198  1.00  0.00    -0.348 A  
HETATM   22  O   UNL     1     -12.493  11.832  64.108  1.00  0.00    -0.270 OA 
HETATM   23  C   UNL     1     -11.391  13.768  65.042  1.00  0.00    -0.334 A  
HETATM   24  H   UNL     1     -11.898  11.292  64.613  1.00  0.00     0.000 HD 
HETATM   25  C   UNL     1     -10.341  12.932  65.695  1.00  0.00    -0.282 C  
HETATM   26  O   UNL     1     -10.178  11.769  65.350  1.00  0.00    -0.242 OA 
HETATM   27  C   UNL     1      -9.396  13.565  66.657  1.00  0.00    -0.254 A  
HETATM   28  C   UNL     1      -9.409  14.954  66.811  1.00  0.00    -0.270 A  
HETATM   29  C   UNL     1      -8.352  15.553  67.518  1.00  0.00    -0.190 A  
HETATM   30  C   UNL     1      -7.461  14.810  68.297  1.00  0.00    -0.115 A  
HETATM   31  C   UNL     1      -7.508  13.421  68.202  1.00  0.00    -0.133 A  
HETATM   32  H   UNL     1      -7.775  10.935  67.756  1.00  0.00     0.000 HD 
HETATM   33  O   UNL     1      -8.421  11.446  67.281  1.00  0.00    -0.139 OA 
HETATM   34  C   UNL     1      -8.437  12.807  67.360  1.00  0.00    -0.191 A  
BRANCH  30  35
HETATM   35  C   UNL     1      -6.558  15.514  69.275  1.00  0.00    -0.147 C  
HETATM   36  O   UNL     1      -5.215  15.476  68.797  1.00  0.00    -0.097 OA 
HETATM   37  H   UNL     1      -4.645  15.920  69.414  1.00  0.00     0.000 HD 
ENDBRANCH  30  35
ENDBRANCH   6  16
ENDBRANCH   2   4
TORSDOF 3
ENDMDL
MODEL      156
REMARK 921   NORMALIZED FREE ENERGY PREDICTED BY IDOCK:   19.52 KCAL/MOL
REMARK 922        TOTAL FREE ENERGY PREDICTED BY IDOCK:   22.29 KCAL/MOL
REMARK 923 INTER-LIGAND FREE ENERGY PREDICTED BY IDOCK:    0.89 KCAL/MOL
REMARK 924 INTRA-LIGAND FREE ENERGY PREDICTED BY IDOCK:   21.39 KCAL/MOL
REMARK 927      BINDING AFFINITY PREDICTED BY RF-SCORE:    0.00 PKD
ROOT
HETATM    1  O   UNL     1     -12.029  15.434  67.279  1.00  0.00    -0.128 OA 
HETATM    2  C   UNL     1     -11.417  16.067  66.165  1.00  0.00     0.458 C  
HETATM    3  H   UNL     1     -12.483  14.631  67.053  1.00  0.00     0.000 HD 
ENDROOT
BRANCH   2   4
HETATM    4  C   UNL     1     -10.682  17.366  66.530  1.00  0.00    -0.086 C  
HETATM    5  O   UNL     1     -10.473  17.434  67.954  1.00  0.00    -0.353 OA 
HETATM    6  C   UNL     1      -9.303  16.813  68.543  1.00  0.00    -0.246 C  
HETATM    7  H   UNL     1      -8.471  19.257  65.040  1.00  0.00     0.000 HD 
HETATM    8  C   UNL     1      -8.036  17.185  67.723  1.00  0.00    -0.184 C  
HETATM    9  O   UNL     1      -9.236  19.076  65.574  1.00  0.00    -0.128 OA 
HETATM   10  O   UNL     1      -7.714  18.589  67.896  1.00  0.00    -0.243 OA 
HETATM   11  C   UNL     1      -8.201  16.945  66.210  1.00  0.00    -0.309 C  
HETATM   12  C   UNL     1      -9.439  17.659  65.664  1.00  0.00     0.433 C  
HETATM   13  O   UNL     1      -8.250  15.550  65.900  1.00  0.00    -0.032 OA 
HETATM   14  H   UNL     1      -8.352  15.401  64.967  1.00  0.00     0.000 HD 
HETATM   15  H   UNL     1      -6.940  18.817  67.395  1.00  0.00     0.000 HD 
BRANCH   6  16
HETATM   16  C   UNL     1      -9.535  15.293  68.996  1.00  0.00    -0.232 C  
HETATM   17  C   UNL     1      -8.586  13.560  65.710  1.00  0.00     1.459 A  
HETATM   18  C   UNL     1      -9.650  14.431  67.731  1.00  0.00    -0.216 A  
HETATM   19  C   UNL     1      -8.499  14.148  66.971  1.00  0.00    -0.178 A  
HETATM   20  C   UNL     1      -9.830  13.257  65.173  1.00  0.00    -0.078 A  
HETATM   21  C   UNL     1     -10.978  13.479  65.931  1.00  0.00    -0.278 A  
HETATM   22  O   UNL     1     -12.187  13.201  65.358  1.00  0.00    -0.408 OA 
HETATM   23  C   UNL     1     -10.896  14.010  67.233  1.00  0.00    -0.288 A  
HETATM   24  H   UNL     1     -12.969  13.353  65.875  1.00  0.00     0.000 HD 
HETATM   25  C   UNL     1     -12.101  14.082  68.111  1.00  0.00    -0.272 C  
HETATM   26  O   UNL     1     -13.129  13.497  67.794  1.00  0.00     1.402 OA 
HETATM   27  C   UNL     1     -11.997  14.737  69.444  1.00  0.00    -0.339 A  
HETATM   28  C   UNL     1     -10.740  15.134  69.912  1.00  0.00    -0.274 A  
HETATM   29  C   UNL     1     -10.624  15.510  71.261  1.00  0.00     0.288 A  
HETATM   30  C   UNL     1     -11.740  15.771  72.061  1.00  0.00    -0.572 A  
HETATM   31  C   UNL     1     -12.997  15.451  71.557  1.00  0.00    -0.521 A  
HETATM   32  H   UNL     1     -15.130  14.690  70.407  1.00  0.00     0.000 HD 
HETATM   33  O   UNL     1     -14.373  14.578  69.844  1.00  0.00     2.473 OA 
HETATM   34  C   UNL     1     -13.121  14.902  70.279  1.00  0.00    -0.073 A  
BRANCH  30  35
HETATM   35  C   UNL     1     -11.563  16.471  73.384  1.00  0.00     0.278 C  
HETATM   36  O   UNL     1     -12.841  16.814  73.915  1.00  0.00    -0.460 OA 
HETATM   37  H   UNL     1     -12.730  17.255  74.749  1.00  0.00     0.000 HD 
ENDBRANCH  30  35
ENDBRANCH   6  16
ENDBRANCH   2   4
TORSDOF 3
ENDMDL
MODEL      157
REMARK 921   NORMALIZED FREE ENERGY PREDICTED BY IDOCK:   20.00 KCAL/MOL
REMARK 922        TOTAL FREE ENERGY PREDICTED BY IDOCK:   22.86 KCAL/MOL
REMARK 923 INTER-LIGAND FREE ENERGY PREDICTED BY IDOCK:    9.34 KCAL/MOL
REMARK 924 INTRA-LIGAND FREE ENERGY PREDICTED BY IDOCK:   13.52 KCAL/MOL
REMARK 927      BINDING AFFINITY PREDICTED BY RF-SCORE:    0.00 PKD
ROOT
HETATM    1  O   UNL     1      -9.003   8.688  64.638  1.00  0.00    -0.418 OA 
HETATM    2  C   UNL     1     -10.036   9.548  64.182  1.00  0.00     1.100 C  
HETATM    3  H   UNL     1      -9.320   7.849  64.948  1.00  0.00     0.000 HD 
ENDROOT
BRANCH   2   4
HETATM    4  C   UNL     1      -9.522  10.907  63.680  1.00  0.00    -0.285 C  
HETATM    5  O   UNL     1     -10.486  11.938  63.968  1.00  0.00    -0.306 OA 
HETATM    6  C   UNL     1     -10.466  12.604  65.256  1.00  0.00    -0.289 C  
HETATM    7  H   UNL     1      -6.571  12.272  63.346  1.00  0.00     0.000 HD 
HETATM    8  C   UNL     1      -9.011  13.010  65.622  1.00  0.00     0.730 C  
HETATM    9  O   UNL     1      -7.467  12.074  63.097  1.00  0.00     2.050 OA 
HETATM   10  O   UNL     1      -8.551  14.080  64.755  1.00  0.00     2.766 OA 
HETATM   11  C   UNL     1      -8.005  11.852  65.480  1.00  0.00     1.152 C  
HETATM   12  C   UNL     1      -8.068  11.227  64.085  1.00  0.00     0.812 C  
HETATM   13  O   UNL     1      -8.204  10.855  66.485  1.00  0.00    -0.145 OA 
HETATM   14  H   UNL     1      -7.584  10.140  66.398  1.00  0.00     0.000 HD 
HETATM   15  H   UNL     1      -7.661  14.328  64.979  1.00  0.00     0.000 HD 
BRANCH   6  16
HETATM   16  C   UNL     1     -11.395  11.906  66.361  1.00  0.00    -0.400 C  
HETATM   17  C   UNL     1     -12.949  15.063  67.886  1.00  0.00     2.225 A  
HETATM   18  C   UNL     1     -11.784  12.970  67.397  1.00  0.00    -0.427 A  
HETATM   19  C   UNL     1     -12.730  13.959  67.063  1.00  0.00     0.310 A  
HETATM   20  C   UNL     1     -12.215  15.211  69.054  1.00  0.00    -0.158 A  
HETATM   21  C   UNL     1     -11.314  14.217  69.430  1.00  0.00    -0.282 A  
HETATM   22  O   UNL     1     -10.583  14.413  70.568  1.00  0.00    -0.252 OA 
HETATM   23  C   UNL     1     -11.133  13.066  68.640  1.00  0.00    -0.305 A  
HETATM   24  H   UNL     1      -9.969  13.736  70.824  1.00  0.00     0.000 HD 
HETATM   25  C   UNL     1     -10.307  11.922  69.126  1.00  0.00     0.061 C  
HETATM   26  O   UNL     1      -9.942  11.879  70.295  1.00  0.00     2.145 OA 
HETATM   27  C   UNL     1     -10.059  10.762  68.225  1.00  0.00    -0.187 A  
HETATM   28  C   UNL     1     -10.731  10.696  67.001  1.00  0.00    -0.317 A  
HETATM   29  C   UNL     1     -10.687   9.487  66.286  1.00  0.00     0.133 A  
HETATM   30  C   UNL     1      -9.786   8.466  66.601  1.00  0.00    -0.320 A  
HETATM   31  C   UNL     1      -9.056   8.577  67.782  1.00  0.00    -0.143 A  
HETATM   32  H   UNL     1      -7.941   9.019  70.021  1.00  0.00     0.000 HD 
HETATM   33  O   UNL     1      -8.506   9.740  69.765  1.00  0.00    -0.160 OA 
HETATM   34  C   UNL     1      -9.222   9.694  68.605  1.00  0.00    -0.136 A  
BRANCH  30  35
HETATM   35  C   UNL     1      -9.559   7.342  65.625  1.00  0.00     0.614 C  
HETATM   36  O   UNL     1     -10.482   6.288  65.889  1.00  0.00    -0.233 OA 
HETATM   37  H   UNL     1     -10.339   5.579  65.273  1.00  0.00     0.000 HD 
ENDBRANCH  30  35
ENDBRANCH   6  16
ENDBRANCH   2   4
TORSDOF 3
ENDMDL
MODEL      158
REMARK 921   NORMALIZED FREE ENERGY PREDICTED BY IDOCK:   20.39 KCAL/MOL
REMARK 922        TOTAL FREE ENERGY PREDICTED BY IDOCK:   23.31 KCAL/MOL
REMARK 923 INTER-LIGAND FREE ENERGY PREDICTED BY IDOCK:   22.25 KCAL/MOL
REMARK 924 INTRA-LIGAND FREE ENERGY PREDICTED BY IDOCK:    1.06 KCAL/MOL
REMARK 927      BINDING AFFINITY PREDICTED BY RF-SCORE:    0.00 PKD
ROOT
HETATM    1  O   UNL     1     -10.116  17.708  64.809  1.00  0.00     0.788 OA 
HETATM    2  C   UNL     1      -8.716  17.844  64.623  1.00  0.00     5.922 C  
HETATM    3  H   UNL     1     -10.582  17.478  64.013  1.00  0.00     0.000 HD 
ENDROOT
BRANCH   2   4
HETATM    4  C   UNL     1      -7.963  18.216  65.910  1.00  0.00    -0.014 C  
HETATM    5  O   UNL     1      -8.623  17.640  67.055  1.00  0.00    -0.225 OA 
HETATM    6  C   UNL     1      -8.303  16.288  67.467  1.00  0.00    -0.158 C  
HETATM    7  H   UNL     1      -4.836  18.791  66.665  1.00  0.00     0.000 HD 
HETATM    8  C   UNL     1      -6.761  16.091  67.489  1.00  0.00    -0.175 C  
HETATM    9  O   UNL     1      -5.775  18.928  66.706  1.00  0.00    -0.154 OA 
HETATM   10  O   UNL     1      -6.169  16.853  68.573  1.00  0.00    -0.140 OA 
HETATM   11  C   UNL     1      -6.073  16.549  66.189  1.00  0.00     1.120 C  
HETATM   12  C   UNL     1      -6.438  17.993  65.844  1.00  0.00    -0.270 C  
HETATM   13  O   UNL     1      -6.380  15.679  65.096  1.00  0.00     6.720 OA 
HETATM   14  H   UNL     1      -5.956  15.961  64.294  1.00  0.00     0.000 HD 
HETATM   15  H   UNL     1      -5.226  16.733  68.587  1.00  0.00     0.000 HD 
BRANCH   6  16
HETATM   16  C   UNL     1      -9.235  15.168  66.797  1.00  0.00    -0.277 C  
HETATM   17  C   UNL     1     -12.591  17.011  67.002  1.00  0.00     4.638 A  
HETATM   18  C   UNL     1     -10.692  15.479  67.163  1.00  0.00    -0.315 A  
HETATM   19  C   UNL     1     -11.353  16.560  66.546  1.00  0.00     0.575 A  
HETATM   20  C   UNL     1     -13.189  16.402  68.096  1.00  0.00     4.490 A  
HETATM   21  C   UNL     1     -12.578  15.298  68.686  1.00  0.00     0.566 A  
HETATM   22  O   UNL     1     -13.178  14.745  69.783  1.00  0.00    -0.337 OA 
HETATM   23  C   UNL     1     -11.360  14.792  68.192  1.00  0.00    -0.324 A  
HETATM   24  H   UNL     1     -12.761  13.993  70.185  1.00  0.00     0.000 HD 
HETATM   25  C   UNL     1     -10.796  13.509  68.705  1.00  0.00    -0.259 C  
HETATM   26  O   UNL     1     -11.478  12.775  69.411  1.00  0.00    -0.271 OA 
HETATM   27  C   UNL     1      -9.460  13.055  68.229  1.00  0.00    -0.208 A  
HETATM   28  C   UNL     1      -8.830  13.757  67.197  1.00  0.00    -0.240 A  
HETATM   29  C   UNL     1      -7.705  13.173  66.589  1.00  0.00     0.666 A  
HETATM   30  C   UNL     1      -7.037  12.081  67.150  1.00  0.00    -0.130 A  
HETATM   31  C   UNL     1      -7.629  11.436  68.232  1.00  0.00    -0.113 A  
HETATM   32  H   UNL     1      -8.986  10.423  70.125  1.00  0.00     0.000 HD 
HETATM   33  O   UNL     1      -9.400  11.206  69.781  1.00  0.00     0.473 OA 
HETATM   34  C   UNL     1      -8.847  11.892  68.740  1.00  0.00     0.054 A  
BRANCH  30  35
HETATM   35  C   UNL     1      -5.671  11.700  66.642  1.00  0.00    -0.115 C  
HETATM   36  O   UNL     1      -5.168  10.605  67.403  1.00  0.00    -0.039 OA 
HETATM   37  H   UNL     1      -4.307  10.364  67.082  1.00  0.00     0.000 HD 
ENDBRANCH  30  35
ENDBRANCH   6  16
ENDBRANCH   2   4
TORSDOF 3
ENDMDL
MODEL      159
REMARK 921   NORMALIZED FREE ENERGY PREDICTED BY IDOCK:   20.65 KCAL/MOL
REMARK 922        TOTAL FREE ENERGY PREDICTED BY IDOCK:   23.62 KCAL/MOL
REMARK 923 INTER-LIGAND FREE ENERGY PREDICTED BY IDOCK:    0.29 KCAL/MOL
REMARK 924 INTRA-LIGAND FREE ENERGY PREDICTED BY IDOCK:   23.33 KCAL/MOL
REMARK 927      BINDING AFFINITY PREDICTED BY RF-SCORE:    0.00 PKD
ROOT
HETATM    1  O   UNL     1      -8.638   9.354  66.823  1.00  0.00    -0.125 OA 
HETATM    2  C   UNL     1      -8.856   8.707  68.067  1.00  0.00    -0.141 C  
HETATM    3  H   UNL     1      -9.350   9.235  66.206  1.00  0.00     0.000 HD 
ENDROOT
BRANCH   2   4
HETATM    4  C   UNL     1      -7.703   8.901  69.065  1.00  0.00    -0.090 C  
HETATM    5  O   UNL     1      -6.597   9.565  68.423  1.00  0.00    -0.053 OA 
HETATM    6  C   UNL     1      -6.560  11.013  68.368  1.00  0.00    -0.058 C  
HETATM    7  H   UNL     1      -7.508   9.388  72.291  1.00  0.00     0.000 HD 
HETATM    8  C   UNL     1      -6.900  11.607  69.764  1.00  0.00     0.053 C  
HETATM    9  O   UNL     1      -7.245   9.026  71.453  1.00  0.00    -0.175 OA 
HETATM   10  O   UNL     1      -5.825  11.342  70.702  1.00  0.00    -0.222 OA 
HETATM   11  C   UNL     1      -8.186  11.018  70.375  1.00  0.00     2.308 C  
HETATM   12  C   UNL     1      -8.130   9.490  70.425  1.00  0.00    -0.183 C  
HETATM   13  O   UNL     1      -9.352  11.454  69.672  1.00  0.00    -0.060 OA 
HETATM   14  H   UNL     1     -10.145  11.091  70.049  1.00  0.00     0.000 HD 
HETATM   15  H   UNL     1      -6.033  11.704  71.556  1.00  0.00     0.000 HD 
BRANCH   6  16
HETATM   16  C   UNL     1      -7.246  11.630  67.057  1.00  0.00    -0.143 C  
HETATM   17  C   UNL     1      -9.581  14.151  68.760  1.00  0.00    -0.122 A  
HETATM   18  C   UNL     1      -8.535  12.345  67.485  1.00  0.00    -0.175 A  
HETATM   19  C   UNL     1      -8.459  13.578  68.164  1.00  0.00    -0.172 A  
HETATM   20  C   UNL     1     -10.803  13.495  68.705  1.00  0.00    -0.279 A  
HETATM   21  C   UNL     1     -10.912  12.302  67.993  1.00  0.00    -0.225 A  
HETATM   22  O   UNL     1     -12.122  11.667  67.990  1.00  0.00    -0.597 OA 
HETATM   23  C   UNL     1      -9.799  11.749  67.331  1.00  0.00    -0.189 A  
HETATM   24  H   UNL     1     -12.196  10.854  67.505  1.00  0.00     0.000 HD 
HETATM   25  C   UNL     1      -9.951  10.574  66.424  1.00  0.00    -0.218 C  
HETATM   26  O   UNL     1     -11.067  10.200  66.082  1.00  0.00     0.210 OA 
HETATM   27  C   UNL     1      -8.739   9.957  65.816  1.00  0.00    -0.157 A  
HETATM   28  C   UNL     1      -7.500  10.583  65.982  1.00  0.00    -0.137 A  
HETATM   29  C   UNL     1      -6.422  10.137  65.199  1.00  0.00    -0.121 A  
HETATM   30  C   UNL     1      -6.466   8.936  64.485  1.00  0.00    -0.071 A  
HETATM   31  C   UNL     1      -7.686   8.272  64.392  1.00  0.00    -0.125 A  
HETATM   32  H   UNL     1     -10.050   7.344  64.331  1.00  0.00     0.000 HD 
HETATM   33  O   UNL     1      -9.996   8.125  64.870  1.00  0.00     1.748 OA 
HETATM   34  C   UNL     1      -8.819   8.798  65.017  1.00  0.00    -0.107 A  
BRANCH  30  35
HETATM   35  C   UNL     1      -5.194   8.351  63.929  1.00  0.00    -0.049 C  
HETATM   36  O   UNL     1      -5.498   7.183  63.170  1.00  0.00    -0.032 OA 
HETATM   37  H   UNL     1      -4.696   6.815  62.819  1.00  0.00     0.000 HD 
ENDBRANCH  30  35
ENDBRANCH   6  16
ENDBRANCH   2   4
TORSDOF 3
ENDMDL
MODEL      160
REMARK 921   NORMALIZED FREE ENERGY PREDICTED BY IDOCK:   22.46 KCAL/MOL
REMARK 922        TOTAL FREE ENERGY PREDICTED BY IDOCK:   25.75 KCAL/MOL
REMARK 923 INTER-LIGAND FREE ENERGY PREDICTED BY IDOCK:   25.99 KCAL/MOL
REMARK 924 INTRA-LIGAND FREE ENERGY PREDICTED BY IDOCK:   -0.24 KCAL/MOL
REMARK 927      BINDING AFFINITY PREDICTED BY RF-SCORE:    0.00 PKD
ROOT
HETATM    1  O   UNL     1      -9.125  21.293  69.291  1.00  0.00     2.442 OA 
HETATM    2  C   UNL     1      -8.395  20.137  68.909  1.00  0.00     0.276 C  
HETATM    3  H   UNL     1      -9.212  21.391  70.231  1.00  0.00     0.000 HD 
ENDROOT
BRANCH   2   4
HETATM    4  C   UNL     1      -8.254  19.980  67.387  1.00  0.00    -0.332 C  
HETATM    5  O   UNL     1      -8.051  18.594  67.048  1.00  0.00    -0.242 OA 
HETATM    6  C   UNL     1      -9.194  17.724  66.856  1.00  0.00    -0.258 C  
HETATM    7  H   UNL     1      -9.473  21.541  64.787  1.00  0.00     0.000 HD 
HETATM    8  C   UNL     1     -10.248  18.424  65.952  1.00  0.00    -0.233 C  
HETATM    9  O   UNL     1      -8.805  21.091  65.292  1.00  0.00     1.229 OA 
HETATM   10  O   UNL     1      -9.756  18.532  64.591  1.00  0.00     2.712 OA 
HETATM   11  C   UNL     1     -10.595  19.850  66.420  1.00  0.00    -0.420 C  
HETATM   12  C   UNL     1      -9.338  20.710  66.568  1.00  0.00    -0.021 C  
HETATM   13  O   UNL     1     -11.340  19.838  67.641  1.00  0.00    -0.017 OA 
HETATM   14  H   UNL     1     -11.554  20.717  67.930  1.00  0.00     0.000 HD 
HETATM   15  H   UNL     1     -10.400  18.960  64.039  1.00  0.00     0.000 HD 
BRANCH   6  16
HETATM   16  C   UNL     1      -9.669  16.972  68.190  1.00  0.00    -0.268 C  
HETATM   17  C   UNL     1      -6.257  16.628  69.905  1.00  0.00    -0.155 A  
HETATM   18  C   UNL     1      -8.436  16.328  68.839  1.00  0.00    -0.253 A  
HETATM   19  C   UNL     1      -7.489  17.137  69.496  1.00  0.00     0.232 A  
HETATM   20  C   UNL     1      -5.938  15.302  69.651  1.00  0.00    -0.123 A  
HETATM   21  C   UNL     1      -6.882  14.471  69.051  1.00  0.00    -0.109 A  
HETATM   22  O   UNL     1      -6.521  13.180  68.785  1.00  0.00    -0.083 OA 
HETATM   23  C   UNL     1      -8.154  14.958  68.694  1.00  0.00    -0.151 A  
HETATM   24  H   UNL     1      -7.164  12.614  68.375  1.00  0.00     0.000 HD 
HETATM   25  C   UNL     1      -9.225  14.034  68.219  1.00  0.00    -0.200 C  
HETATM   26  O   UNL     1      -9.083  12.821  68.324  1.00  0.00    -0.199 OA 
HETATM   27  C   UNL     1     -10.526  14.595  67.759  1.00  0.00    -0.246 A  
HETATM   28  C   UNL     1     -10.775  15.961  67.928  1.00  0.00    -0.312 A  
HETATM   29  C   UNL     1     -12.088  16.423  67.730  1.00  0.00     1.074 A  
HETATM   30  C   UNL     1     -13.068  15.644  67.110  1.00  0.00     3.705 A  
HETATM   31  C   UNL     1     -12.783  14.302  66.869  1.00  0.00     0.399 A  
HETATM   32  H   UNL     1     -12.008  11.895  66.636  1.00  0.00     0.000 HD 
HETATM   33  O   UNL     1     -11.323  12.448  66.996  1.00  0.00    -0.287 OA 
HETATM   34  C   UNL     1     -11.541  13.774  67.227  1.00  0.00    -0.361 A  
BRANCH  30  35
HETATM   35  C   UNL     1     -14.346  16.287  66.639  1.00  0.00    10.198 C  
HETATM   36  O   UNL     1     -14.410  17.628  67.118  1.00  0.00     7.994 OA 
HETATM   37  H   UNL     1     -15.216  18.033  66.821  1.00  0.00     0.000 HD 
ENDBRANCH  30  35
ENDBRANCH   6  16
ENDBRANCH   2   4
TORSDOF 3
ENDMDL
MODEL      161
REMARK 921   NORMALIZED FREE ENERGY PREDICTED BY IDOCK:   23.75 KCAL/MOL
REMARK 922        TOTAL FREE ENERGY PREDICTED BY IDOCK:   27.26 KCAL/MOL
REMARK 923 INTER-LIGAND FREE ENERGY PREDICTED BY IDOCK:    2.59 KCAL/MOL
REMARK 924 INTRA-LIGAND FREE ENERGY PREDICTED BY IDOCK:   24.67 KCAL/MOL
REMARK 927      BINDING AFFINITY PREDICTED BY RF-SCORE:    0.00 PKD
ROOT
HETATM    1  O   UNL     1      -8.830  15.915  67.476  1.00  0.00    -0.185 OA 
HETATM    2  C   UNL     1      -9.132  16.447  66.196  1.00  0.00    -0.326 C  
HETATM    3  H   UNL     1      -8.041  15.387  67.488  1.00  0.00     0.000 HD 
ENDROOT
BRANCH   2   4
HETATM    4  C   UNL     1     -10.409  17.302  66.177  1.00  0.00    -0.317 C  
HETATM    5  O   UNL     1     -11.069  17.236  67.456  1.00  0.00    -0.169 OA 
HETATM    6  C   UNL     1     -10.685  18.148  68.515  1.00  0.00     0.015 C  
HETATM    7  H   UNL     1     -11.322  20.044  64.651  1.00  0.00     0.000 HD 
HETATM    8  C   UNL     1     -10.581  19.596  67.956  1.00  0.00    -0.324 C  
HETATM    9  O   UNL     1     -11.440  19.170  65.004  1.00  0.00     0.428 OA 
HETATM   10  O   UNL     1     -11.898  20.105  67.624  1.00  0.00     1.075 OA 
HETATM   11  C   UNL     1      -9.725  19.692  66.679  1.00  0.00    -0.390 C  
HETATM   12  C   UNL     1     -10.217  18.722  65.604  1.00  0.00     0.063 C  
HETATM   13  O   UNL     1      -8.339  19.475  66.955  1.00  0.00    -0.267 OA 
HETATM   14  H   UNL     1      -7.811  19.534  66.167  1.00  0.00     0.000 HD 
HETATM   15  H   UNL     1     -11.836  20.990  67.282  1.00  0.00     0.000 HD 
BRANCH   6  16
HETATM   16  C   UNL     1      -9.526  17.583  69.469  1.00  0.00     0.412 C  
HETATM   17  C   UNL     1      -7.684  20.876  70.152  1.00  0.00     2.850 A  
HETATM   18  C   UNL     1      -8.401  18.626  69.520  1.00  0.00     0.504 A  
HETATM   19  C   UNL     1      -8.582  19.815  70.254  1.00  0.00     1.350 A  
HETATM   20  C   UNL     1      -6.593  20.779  69.300  1.00  0.00     0.251 A  
HETATM   21  C   UNL     1      -6.366  19.592  68.607  1.00  0.00    -0.269 A  
HETATM   22  O   UNL     1      -5.302  19.544  67.751  1.00  0.00    -0.174 OA 
HETATM   23  C   UNL     1      -7.230  18.490  68.754  1.00  0.00    -0.316 A  
HETATM   24  H   UNL     1      -5.148  18.735  67.278  1.00  0.00     0.000 HD 
HETATM   25  C   UNL     1      -6.893  17.164  68.156  1.00  0.00    -0.176 C  
HETATM   26  O   UNL     1      -5.773  16.959  67.705  1.00  0.00    -0.117 OA 
HETATM   27  C   UNL     1      -7.875  16.048  68.250  1.00  0.00    -0.144 A  
HETATM   28  C   UNL     1      -9.023  16.216  69.029  1.00  0.00    -0.247 A  
HETATM   29  C   UNL     1      -9.802  15.081  69.315  1.00  0.00    -0.200 A  
HETATM   30  C   UNL     1      -9.636  13.872  68.633  1.00  0.00    -0.142 A  
HETATM   31  C   UNL     1      -8.534  13.739  67.792  1.00  0.00    -0.181 A  
HETATM   32  H   UNL     1      -6.404  13.769  66.409  1.00  0.00     0.000 HD 
HETATM   33  O   UNL     1      -6.561  14.609  66.824  1.00  0.00     0.326 OA 
HETATM   34  C   UNL     1      -7.641  14.801  67.635  1.00  0.00    -0.174 A  
BRANCH  30  35
HETATM   35  C   UNL     1     -10.688  12.800  68.746  1.00  0.00    -0.214 C  
HETATM   36  O   UNL     1     -11.967  13.354  68.448  1.00  0.00    -0.348 OA 
HETATM   37  H   UNL     1     -12.631  12.678  68.520  1.00  0.00     0.000 HD 
ENDBRANCH  30  35
ENDBRANCH   6  16
ENDBRANCH   2   4
TORSDOF 3
ENDMDL
MODEL      162
REMARK 921   NORMALIZED FREE ENERGY PREDICTED BY IDOCK:   25.95 KCAL/MOL
REMARK 922        TOTAL FREE ENERGY PREDICTED BY IDOCK:   29.85 KCAL/MOL
REMARK 923 INTER-LIGAND FREE ENERGY PREDICTED BY IDOCK:   10.57 KCAL/MOL
REMARK 924 INTRA-LIGAND FREE ENERGY PREDICTED BY IDOCK:   19.28 KCAL/MOL
REMARK 927      BINDING AFFINITY PREDICTED BY RF-SCORE:    0.00 PKD
ROOT
HETATM    1  O   UNL     1      -9.466  12.808  65.762  1.00  0.00    -0.441 OA 
HETATM    2  C   UNL     1      -8.626  12.601  64.636  1.00  0.00     2.584 C  
HETATM    3  H   UNL     1      -9.409  13.687  66.118  1.00  0.00     0.000 HD 
ENDROOT
BRANCH   2   4
HETATM    4  C   UNL     1      -8.719  11.180  64.059  1.00  0.00     0.188 C  
HETATM    5  O   UNL     1      -8.216  10.224  65.012  1.00  0.00    -0.148 OA 
HETATM    6  C   UNL     1      -9.100   9.681  66.025  1.00  0.00    -0.171 C  
HETATM    7  H   UNL     1     -10.751   9.660  62.000  1.00  0.00     0.000 HD 
HETATM    8  C   UNL     1     -10.446   9.247  65.378  1.00  0.00     1.272 C  
HETATM    9  O   UNL     1      -9.909   9.872  62.385  1.00  0.00    -0.012 OA 
HETATM   10  O   UNL     1     -10.249   8.082  64.536  1.00  0.00     2.985 OA 
HETATM   11  C   UNL     1     -11.073  10.341  64.493  1.00  0.00     1.832 C  
HETATM   12  C   UNL     1     -10.086  10.835  63.433  1.00  0.00    -0.284 C  
HETATM   13  O   UNL     1     -11.559  11.436  65.273  1.00  0.00    -0.033 OA 
HETATM   14  H   UNL     1     -11.946  12.111  64.728  1.00  0.00     0.000 HD 
HETATM   15  H   UNL     1     -11.071   7.816  64.140  1.00  0.00     0.000 HD 
BRANCH   6  16
HETATM   16  C   UNL     1      -9.113  10.520  67.391  1.00  0.00    -0.147 C  
HETATM   17  C   UNL     1      -8.184   7.696  69.812  1.00  0.00    -0.131 A  
HETATM   18  C   UNL     1      -9.208   9.528  68.559  1.00  0.00    -0.131 A  
HETATM   19  C   UNL     1      -8.084   8.755  68.912  1.00  0.00    -0.114 A  
HETATM   20  C   UNL     1      -9.415   7.375  70.368  1.00  0.00    -0.165 A  
HETATM   21  C   UNL     1     -10.527   8.160  70.074  1.00  0.00    -0.231 A  
HETATM   22  O   UNL     1     -11.729   7.794  70.611  1.00  0.00    -0.391 OA 
HETATM   23  C   UNL     1     -10.424   9.273  69.217  1.00  0.00    -0.228 A  
HETATM   24  H   UNL     1     -12.487   8.330  70.410  1.00  0.00     0.000 HD 
HETATM   25  C   UNL     1     -11.566  10.218  69.043  1.00  0.00    -0.081 C  
HETATM   26  O   UNL     1     -12.534  10.157  69.790  1.00  0.00    -0.004 OA 
HETATM   27  C   UNL     1     -11.453  11.328  68.057  1.00  0.00    -0.369 A  
HETATM   28  C   UNL     1     -10.225  11.559  67.428  1.00  0.00    -0.228 A  
HETATM   29  C   UNL     1     -10.065  12.753  66.705  1.00  0.00    -0.248 A  
HETATM   30  C   UNL     1     -11.148  13.566  66.359  1.00  0.00    -0.311 A  
HETATM   31  C   UNL     1     -12.388  13.282  66.924  1.00  0.00    -0.220 A  
HETATM   32  H   UNL     1     -14.485  12.570  68.168  1.00  0.00     0.000 HD 
HETATM   33  O   UNL     1     -13.759  11.982  68.345  1.00  0.00     5.542 OA 
HETATM   34  C   UNL     1     -12.530  12.200  67.795  1.00  0.00     1.161 A  
BRANCH  30  35
HETATM   35  C   UNL     1     -10.970  14.649  65.326  1.00  0.00    -0.367 C  
HETATM   36  O   UNL     1     -10.444  14.082  64.128  1.00  0.00    -0.542 OA 
HETATM   37  H   UNL     1     -10.332  14.764  63.477  1.00  0.00     0.000 HD 
ENDBRANCH  30  35
ENDBRANCH   6  16
ENDBRANCH   2   4
TORSDOF 3
ENDMDL
MODEL      163
REMARK 921   NORMALIZED FREE ENERGY PREDICTED BY IDOCK:   26.60 KCAL/MOL
REMARK 922        TOTAL FREE ENERGY PREDICTED BY IDOCK:   30.61 KCAL/MOL
REMARK 923 INTER-LIGAND FREE ENERGY PREDICTED BY IDOCK:   14.73 KCAL/MOL
REMARK 924 INTRA-LIGAND FREE ENERGY PREDICTED BY IDOCK:   15.88 KCAL/MOL
REMARK 927      BINDING AFFINITY PREDICTED BY RF-SCORE:    0.00 PKD
ROOT
HETATM    1  O   UNL     1      -8.925  16.349  70.029  1.00  0.00     0.597 OA 
HETATM    2  C   UNL     1     -10.175  16.093  69.408  1.00  0.00    -0.266 C  
HETATM    3  H   UNL     1      -8.836  15.938  70.880  1.00  0.00     0.000 HD 
ENDROOT
BRANCH   2   4
HETATM    4  C   UNL     1     -10.319  16.759  68.030  1.00  0.00    -0.317 C  
HETATM    5  O   UNL     1      -9.229  16.365  67.173  1.00  0.00    -0.208 OA 
HETATM    6  C   UNL     1      -9.326  15.144  66.398  1.00  0.00    -0.301 C  
HETATM    7  H   UNL     1     -12.843  17.697  66.177  1.00  0.00     0.000 HD 
HETATM    8  C   UNL     1     -10.712  15.070  65.696  1.00  0.00    -0.354 C  
HETATM    9  O   UNL     1     -11.976  17.769  66.560  1.00  0.00     2.456 OA 
HETATM   10  O   UNL     1     -10.801  16.066  64.645  1.00  0.00    -0.761 OA 
HETATM   11  C   UNL     1     -11.891  15.320  66.656  1.00  0.00     0.157 C  
HETATM   12  C   UNL     1     -11.726  16.641  67.409  1.00  0.00     0.803 C  
HETATM   13  O   UNL     1     -12.063  14.237  67.574  1.00  0.00    -0.505 OA 
HETATM   14  H   UNL     1     -12.790  14.391  68.166  1.00  0.00     0.000 HD 
HETATM   15  H   UNL     1     -11.648  16.021  64.216  1.00  0.00     0.000 HD 
BRANCH   6  16
HETATM   16  C   UNL     1      -8.749  13.851  67.150  1.00  0.00    -0.233 C  
HETATM   17  C   UNL     1     -11.020  11.200  65.564  1.00  0.00    -0.143 A  
HETATM   18  C   UNL     1      -9.783  12.724  67.022  1.00  0.00    -0.224 A  
HETATM   19  C   UNL     1      -9.953  12.069  65.786  1.00  0.00    -0.266 A  
HETATM   20  C   UNL     1     -11.951  10.977  66.569  1.00  0.00     1.428 A  
HETATM   21  C   UNL     1     -11.771  11.573  67.816  1.00  0.00    -0.227 A  
HETATM   22  O   UNL     1     -12.726  11.360  68.771  1.00  0.00    -0.096 OA 
HETATM   23  C   UNL     1     -10.661  12.401  68.072  1.00  0.00    -0.238 A  
HETATM   24  H   UNL     1     -12.603  11.766  69.620  1.00  0.00     0.000 HD 
HETATM   25  C   UNL     1     -10.370  12.893  69.450  1.00  0.00     0.488 C  
HETATM   26  O   UNL     1     -10.968  12.424  70.410  1.00  0.00     0.822 OA 
HETATM   27  C   UNL     1      -9.243  13.843  69.665  1.00  0.00     1.130 A  
HETATM   28  C   UNL     1      -8.385  14.134  68.601  1.00  0.00    -0.123 A  
HETATM   29  C   UNL     1      -7.191  14.820  68.881  1.00  0.00    -0.126 A  
HETATM   30  C   UNL     1      -6.967  15.459  70.104  1.00  0.00     0.070 A  
HETATM   31  C   UNL     1      -7.872  15.231  71.138  1.00  0.00     2.750 A  
HETATM   32  H   UNL     1      -9.633  14.561  72.840  1.00  0.00     0.000 HD 
HETATM   33  O   UNL     1      -9.814  14.186  71.986  1.00  0.00     5.027 OA 
HETATM   34  C   UNL     1      -8.975  14.400  70.933  1.00  0.00     3.627 A  
BRANCH  30  35
HETATM   35  C   UNL     1      -5.828  16.436  70.239  1.00  0.00    -0.118 C  
HETATM   36  O   UNL     1      -5.233  16.653  68.962  1.00  0.00    -0.118 OA 
HETATM   37  H   UNL     1      -4.515  17.270  69.047  1.00  0.00     0.000 HD 
ENDBRANCH  30  35
ENDBRANCH   6  16
ENDBRANCH   2   4
TORSDOF 3
ENDMDL
MODEL      164
REMARK 921   NORMALIZED FREE ENERGY PREDICTED BY IDOCK:   27.83 KCAL/MOL
REMARK 922        TOTAL FREE ENERGY PREDICTED BY IDOCK:   32.06 KCAL/MOL
REMARK 923 INTER-LIGAND FREE ENERGY PREDICTED BY IDOCK:    9.47 KCAL/MOL
REMARK 924 INTRA-LIGAND FREE ENERGY PREDICTED BY IDOCK:   22.59 KCAL/MOL
REMARK 927      BINDING AFFINITY PREDICTED BY RF-SCORE:    0.00 PKD
ROOT
HETATM    1  O   UNL     1     -10.473  10.526  69.910  1.00  0.00    -0.361 OA 
HETATM    2  C   UNL     1     -11.323  10.686  71.036  1.00  0.00     0.148 C  
HETATM    3  H   UNL     1      -9.856  11.240  69.799  1.00  0.00     0.000 HD 
ENDROOT
BRANCH   2   4
HETATM    4  C   UNL     1     -12.320   9.530  71.215  1.00  0.00    -0.345 C  
HETATM    5  O   UNL     1     -11.724   8.290  70.789  1.00  0.00    -0.277 OA 
HETATM    6  C   UNL     1     -10.928   7.515  71.720  1.00  0.00    -0.234 C  
HETATM    7  H   UNL     1     -14.738   8.881  73.316  1.00  0.00     0.000 HD 
HETATM    8  C   UNL     1     -11.668   7.399  73.083  1.00  0.00     0.212 C  
HETATM    9  O   UNL     1     -14.312   8.903  72.467  1.00  0.00    -0.579 OA 
HETATM   10  O   UNL     1     -12.838   6.551  72.953  1.00  0.00     0.157 OA 
HETATM   11  C   UNL     1     -12.155   8.757  73.625  1.00  0.00     3.494 C  
HETATM   12  C   UNL     1     -13.011   9.494  72.594  1.00  0.00    -0.070 C  
HETATM   13  O   UNL     1     -11.063   9.577  74.048  1.00  0.00     6.411 OA 
HETATM   14  H   UNL     1     -11.362  10.415  74.382  1.00  0.00     0.000 HD 
HETATM   15  H   UNL     1     -13.290   6.480  73.786  1.00  0.00     0.000 HD 
BRANCH   6  16
HETATM   16  C   UNL     1      -9.366   7.876  71.695  1.00  0.00    -0.189 C  
HETATM   17  C   UNL     1      -9.591  11.290  69.964  1.00  0.00     1.512 A  
HETATM   18  C   UNL     1      -9.151   8.988  70.659  1.00  0.00    -0.280 A  
HETATM   19  C   UNL     1      -9.567  10.303  70.948  1.00  0.00     1.326 A  
HETATM   20  C   UNL     1      -9.216  10.981  68.664  1.00  0.00    -0.186 A  
HETATM   21  C   UNL     1      -8.750   9.701  68.370  1.00  0.00    -0.120 A  
HETATM   22  O   UNL     1      -8.422   9.421  67.073  1.00  0.00    -0.125 OA 
HETATM   23  C   UNL     1      -8.658   8.714  69.371  1.00  0.00    -0.127 A  
HETATM   24  H   UNL     1      -8.105   8.549  66.873  1.00  0.00     0.000 HD 
HETATM   25  C   UNL     1      -7.995   7.405  69.101  1.00  0.00    -0.118 C  
HETATM   26  O   UNL     1      -7.344   7.244  68.076  1.00  0.00    -0.091 OA 
HETATM   27  C   UNL     1      -8.001   6.351  70.153  1.00  0.00    -0.112 A  
HETATM   28  C   UNL     1      -8.490   6.662  71.426  1.00  0.00    -0.124 A  
HETATM   29  C   UNL     1      -8.254   5.748  72.467  1.00  0.00    -0.117 A  
HETATM   30  C   UNL     1      -7.812   4.443  72.229  1.00  0.00    -0.091 A  
HETATM   31  C   UNL     1      -7.404   4.115  70.939  1.00  0.00    -0.041 A  
HETATM   32  H   UNL     1      -6.655   3.842  68.528  1.00  0.00     0.000 HD 
HETATM   33  O   UNL     1      -7.020   4.705  68.683  1.00  0.00    -0.050 OA 
HETATM   34  C   UNL     1      -7.459   5.070  69.922  1.00  0.00    -0.060 A  
BRANCH  30  35
HETATM   35  C   UNL     1      -7.881   3.419  73.331  1.00  0.00    -0.070 C  
HETATM   36  O   UNL     1      -7.046   2.310  73.004  1.00  0.00    -0.026 OA 
HETATM   37  H   UNL     1      -7.089   1.664  73.699  1.00  0.00     0.000 HD 
ENDBRANCH  30  35
ENDBRANCH   6  16
ENDBRANCH   2   4
TORSDOF 3
ENDMDL
MODEL      165
REMARK 921   NORMALIZED FREE ENERGY PREDICTED BY IDOCK:   30.37 KCAL/MOL
REMARK 922        TOTAL FREE ENERGY PREDICTED BY IDOCK:   35.04 KCAL/MOL
REMARK 923 INTER-LIGAND FREE ENERGY PREDICTED BY IDOCK:   24.42 KCAL/MOL
REMARK 924 INTRA-LIGAND FREE ENERGY PREDICTED BY IDOCK:   10.62 KCAL/MOL
REMARK 927      BINDING AFFINITY PREDICTED BY RF-SCORE:    0.00 PKD
ROOT
HETATM    1  O   UNL     1      -7.683  19.913  69.543  1.00  0.00    -0.119 OA 
HETATM    2  C   UNL     1      -8.606  20.809  70.142  1.00  0.00     2.595 C  
HETATM    3  H   UNL     1      -6.861  20.324  69.302  1.00  0.00     0.000 HD 
ENDROOT
BRANCH   2   4
HETATM    4  C   UNL     1      -9.936  20.144  70.533  1.00  0.00     1.216 C  
HETATM    5  O   UNL     1     -10.539  19.526  69.379  1.00  0.00     0.197 OA 
HETATM    6  C   UNL     1     -10.172  18.173  69.012  1.00  0.00    -0.221 C  
HETATM    7  H   UNL     1     -11.086  18.705  73.232  1.00  0.00     0.000 HD 
HETATM    8  C   UNL     1     -10.185  17.259  70.270  1.00  0.00     1.006 C  
HETATM    9  O   UNL     1     -11.132  19.249  72.455  1.00  0.00     3.387 OA 
HETATM   10  O   UNL     1     -11.545  17.056  70.733  1.00  0.00    -0.118 OA 
HETATM   11  C   UNL     1      -9.389  17.845  71.452  1.00  0.00     7.907 C  
HETATM   12  C   UNL     1      -9.860  19.260  71.794  1.00  0.00     3.862 C  
HETATM   13  O   UNL     1      -7.982  17.832  71.199  1.00  0.00     5.910 OA 
HETATM   14  H   UNL     1      -7.491  18.193  71.927  1.00  0.00     0.000 HD 
HETATM   15  H   UNL     1     -11.554  16.498  71.502  1.00  0.00     0.000 HD 
BRANCH   6  16
HETATM   16  C   UNL     1      -8.942  18.090  67.987  1.00  0.00    -0.274 C  
HETATM   17  C   UNL     1     -10.898  17.208  64.808  1.00  0.00     0.396 A  
HETATM   18  C   UNL     1      -9.409  17.319  66.744  1.00  0.00    -0.272 A  
HETATM   19  C   UNL     1     -10.281  17.936  65.825  1.00  0.00    -0.135 A  
HETATM   20  C   UNL     1     -10.671  15.844  64.698  1.00  0.00    -0.105 A  
HETATM   21  C   UNL     1      -9.771  15.225  65.563  1.00  0.00    -0.278 A  
HETATM   22  O   UNL     1      -9.598  13.874  65.448  1.00  0.00    -0.536 OA 
HETATM   23  C   UNL     1      -9.090  15.963  66.551  1.00  0.00    -0.320 A  
HETATM   24  H   UNL     1      -8.984  13.453  66.038  1.00  0.00     0.000 HD 
HETATM   25  C   UNL     1      -7.998  15.343  67.357  1.00  0.00    -0.188 C  
HETATM   26  O   UNL     1      -7.539  14.253  67.037  1.00  0.00    -0.054 OA 
HETATM   27  C   UNL     1      -7.367  16.123  68.457  1.00  0.00    -0.161 A  
HETATM   28  C   UNL     1      -7.700  17.472  68.613  1.00  0.00    -0.275 A  
HETATM   29  C   UNL     1      -6.915  18.253  69.479  1.00  0.00     0.003 A  
HETATM   30  C   UNL     1      -6.016  17.685  70.386  1.00  0.00     0.084 A  
HETATM   31  C   UNL     1      -5.749  16.323  70.279  1.00  0.00    -0.151 A  
HETATM   32  H   UNL     1      -5.408  13.855  69.786  1.00  0.00     0.000 HD 
HETATM   33  O   UNL     1      -6.069  14.235  69.218  1.00  0.00    -0.091 OA 
HETATM   34  C   UNL     1      -6.387  15.559  69.299  1.00  0.00    -0.132 A  
BRANCH  30  35
HETATM   35  C   UNL     1      -5.443  18.526  71.496  1.00  0.00    -0.056 C  
HETATM   36  O   UNL     1      -6.158  18.273  72.703  1.00  0.00     1.345 OA 
HETATM   37  H   UNL     1      -5.798  18.803  73.404  1.00  0.00     0.000 HD 
ENDBRANCH  30  35
ENDBRANCH   6  16
ENDBRANCH   2   4
TORSDOF 3
ENDMDL
MODEL      166
REMARK 921   NORMALIZED FREE ENERGY PREDICTED BY IDOCK:   32.31 KCAL/MOL
REMARK 922        TOTAL FREE ENERGY PREDICTED BY IDOCK:   37.33 KCAL/MOL
REMARK 923 INTER-LIGAND FREE ENERGY PREDICTED BY IDOCK:   26.74 KCAL/MOL
REMARK 924 INTRA-LIGAND FREE ENERGY PREDICTED BY IDOCK:   10.59 KCAL/MOL
REMARK 927      BINDING AFFINITY PREDICTED BY RF-SCORE:    0.00 PKD
ROOT
HETATM    1  O   UNL     1     -12.286  12.607  67.847  1.00  0.00    -0.311 OA 
HETATM    2  C   UNL     1     -11.000  12.624  68.447  1.00  0.00    -0.257 C  
HETATM    3  H   UNL     1     -12.984  12.844  68.445  1.00  0.00     0.000 HD 
ENDROOT
BRANCH   2   4
HETATM    4  C   UNL     1      -9.870  12.242  67.478  1.00  0.00    -0.193 C  
HETATM    5  O   UNL     1      -9.605  13.330  66.571  1.00  0.00    -0.258 OA 
HETATM    6  C   UNL     1      -8.682  14.380  66.955  1.00  0.00    -0.223 C  
HETATM    7  H   UNL     1      -7.213  10.348  67.670  1.00  0.00     0.000 HD 
HETATM    8  C   UNL     1      -7.390  13.758  67.556  1.00  0.00    -0.162 C  
HETATM    9  O   UNL     1      -7.978  10.726  67.252  1.00  0.00    -0.113 OA 
HETATM   10  O   UNL     1      -6.623  13.088  66.522  1.00  0.00     0.088 OA 
HETATM   11  C   UNL     1      -7.673  12.715  68.654  1.00  0.00    -0.066 C  
HETATM   12  C   UNL     1      -8.628  11.628  68.157  1.00  0.00    -0.158 C  
HETATM   13  O   UNL     1      -8.184  13.326  69.842  1.00  0.00     0.981 OA 
HETATM   14  H   UNL     1      -8.359  12.683  70.519  1.00  0.00     0.000 HD 
HETATM   15  H   UNL     1      -5.834  12.707  66.889  1.00  0.00     0.000 HD 
BRANCH   6  16
HETATM   16  C   UNL     1      -9.382  15.619  67.694  1.00  0.00    -0.206 C  
HETATM   17  C   UNL     1      -6.816  16.144  70.495  1.00  0.00     1.082 A  
HETATM   18  C   UNL     1      -8.784  15.733  69.103  1.00  0.00    -0.253 A  
HETATM   19  C   UNL     1      -7.475  16.227  69.269  1.00  0.00    -0.217 A  
HETATM   20  C   UNL     1      -7.446  15.549  71.580  1.00  0.00     3.671 A  
HETATM   21  C   UNL     1      -8.760  15.104  71.451  1.00  0.00     3.943 A  
HETATM   22  O   UNL     1      -9.337  14.493  72.529  1.00  0.00     4.474 OA 
HETATM   23  C   UNL     1      -9.458  15.243  70.236  1.00  0.00     0.458 A  
HETATM   24  H   UNL     1     -10.232  14.189  72.441  1.00  0.00     0.000 HD 
HETATM   25  C   UNL     1     -10.915  14.933  70.146  1.00  0.00    -0.180 C  
HETATM   26  O   UNL     1     -11.569  14.749  71.165  1.00  0.00    -0.315 OA 
HETATM   27  C   UNL     1     -11.598  15.000  68.824  1.00  0.00    -0.357 A  
HETATM   28  C   UNL     1     -10.899  15.502  67.722  1.00  0.00    -0.309 A  
HETATM   29  C   UNL     1     -11.626  15.797  66.555  1.00  0.00     0.389 A  
HETATM   30  C   UNL     1     -12.937  15.354  66.361  1.00  0.00     2.334 A  
HETATM   31  C   UNL     1     -13.601  14.778  67.441  1.00  0.00     5.808 A  
HETATM   32  H   UNL     1     -14.570  13.856  69.600  1.00  0.00     0.000 HD 
HETATM   33  O   UNL     1     -13.657  14.098  69.704  1.00  0.00     1.444 OA 
HETATM   34  C   UNL     1     -12.952  14.641  68.670  1.00  0.00     1.551 A  
BRANCH  30  35
HETATM   35  C   UNL     1     -13.552  15.419  64.988  1.00  0.00     2.281 C  
HETATM   36  O   UNL     1     -13.989  14.119  64.599  1.00  0.00     1.817 OA 
HETATM   37  H   UNL     1     -14.376  14.160  63.733  1.00  0.00     0.000 HD 
ENDBRANCH  30  35
ENDBRANCH   6  16
ENDBRANCH   2   4
TORSDOF 3
ENDMDL
MODEL      167
REMARK 921   NORMALIZED FREE ENERGY PREDICTED BY IDOCK:   35.79 KCAL/MOL
REMARK 922        TOTAL FREE ENERGY PREDICTED BY IDOCK:   41.41 KCAL/MOL
REMARK 923 INTER-LIGAND FREE ENERGY PREDICTED BY IDOCK:   21.34 KCAL/MOL
REMARK 924 INTRA-LIGAND FREE ENERGY PREDICTED BY IDOCK:   20.07 KCAL/MOL
REMARK 927      BINDING AFFINITY PREDICTED BY RF-SCORE:    0.00 PKD
ROOT
HETATM    1  O   UNL     1      -8.043  10.034  66.243  1.00  0.00    -0.113 OA 
HETATM    2  C   UNL     1      -9.360  10.141  65.727  1.00  0.00    -0.188 C  
HETATM    3  H   UNL     1      -7.396   9.813  65.583  1.00  0.00     0.000 HD 
ENDROOT
BRANCH   2   4
HETATM    4  C   UNL     1     -10.406  10.499  66.795  1.00  0.00    -0.245 C  
HETATM    5  O   UNL     1      -9.953  10.074  68.095  1.00  0.00    -0.147 OA 
HETATM    6  C   UNL     1      -9.106  10.946  68.884  1.00  0.00    -0.144 C  
HETATM    7  H   UNL     1     -12.591  12.901  67.163  1.00  0.00     0.000 HD 
HETATM    8  C   UNL     1      -9.682  12.391  68.881  1.00  0.00     0.166 C  
HETATM    9  O   UNL     1     -12.270  12.008  67.212  1.00  0.00    -0.496 OA 
HETATM   10  O   UNL     1     -10.914  12.446  69.644  1.00  0.00    -0.461 OA 
HETATM   11  C   UNL     1     -10.004  12.911  67.467  1.00  0.00    -0.215 C  
HETATM   12  C   UNL     1     -10.926  11.949  66.716  1.00  0.00    -0.292 C  
HETATM   13  O   UNL     1      -8.815  13.158  66.712  1.00  0.00    -0.325 OA 
HETATM   14  H   UNL     1      -9.014  13.478  65.840  1.00  0.00     0.000 HD 
HETATM   15  H   UNL     1     -11.267  13.328  69.642  1.00  0.00     0.000 HD 
BRANCH   6  16
HETATM   16  C   UNL     1      -7.537  10.719  68.642  1.00  0.00    -0.106 C  
HETATM   17  C   UNL     1      -6.338  11.064  72.268  1.00  0.00     2.852 A  
HETATM   18  C   UNL     1      -6.784  11.247  69.871  1.00  0.00    -0.067 A  
HETATM   19  C   UNL     1      -6.819  10.520  71.078  1.00  0.00     0.842 A  
HETATM   20  C   UNL     1      -5.826  12.354  72.282  1.00  0.00     1.645 A  
HETATM   21  C   UNL     1      -5.733  13.069  71.089  1.00  0.00    -0.025 A  
HETATM   22  O   UNL     1      -5.257  14.349  71.146  1.00  0.00    -0.119 OA 
HETATM   23  C   UNL     1      -6.154  12.505  69.870  1.00  0.00    -0.130 A  
HETATM   24  H   UNL     1      -5.194  14.836  70.333  1.00  0.00     0.000 HD 
HETATM   25  C   UNL     1      -5.892  13.194  68.573  1.00  0.00    -0.081 C  
HETATM   26  O   UNL     1      -5.133  14.154  68.528  1.00  0.00    -0.083 OA 
HETATM   27  C   UNL     1      -6.436  12.614  67.313  1.00  0.00    -0.102 A  
HETATM   28  C   UNL     1      -7.047  11.357  67.350  1.00  0.00    -0.114 A  
HETATM   29  C   UNL     1      -7.320  10.717  66.129  1.00  0.00    -0.127 A  
HETATM   30  C   UNL     1      -7.268  11.391  64.905  1.00  0.00     1.382 A  
HETATM   31  C   UNL     1      -6.734  12.677  64.888  1.00  0.00     8.167 A  
HETATM   32  H   UNL     1      -5.642  14.954  65.158  1.00  0.00     0.000 HD 
HETATM   33  O   UNL     1      -5.743  14.515  65.995  1.00  0.00     4.570 OA 
HETATM   34  C   UNL     1      -6.285  13.266  66.072  1.00  0.00     5.181 A  
BRANCH  30  35
HETATM   35  C   UNL     1      -7.871  10.759  63.678  1.00  0.00     0.215 C  
HETATM   36  O   UNL     1      -7.131   9.591  63.332  1.00  0.00    -0.096 OA 
HETATM   37  H   UNL     1      -7.511   9.192  62.558  1.00  0.00     0.000 HD 
ENDBRANCH  30  35
ENDBRANCH   6  16
ENDBRANCH   2   4
TORSDOF 3
ENDMDL
MODEL      168
REMARK 921   NORMALIZED FREE ENERGY PREDICTED BY IDOCK:   36.63 KCAL/MOL
REMARK 922        TOTAL FREE ENERGY PREDICTED BY IDOCK:   42.40 KCAL/MOL
REMARK 923 INTER-LIGAND FREE ENERGY PREDICTED BY IDOCK:   32.72 KCAL/MOL
REMARK 924 INTRA-LIGAND FREE ENERGY PREDICTED BY IDOCK:    9.68 KCAL/MOL
REMARK 927      BINDING AFFINITY PREDICTED BY RF-SCORE:    0.00 PKD
ROOT
HETATM    1  O   UNL     1     -10.083  11.336  69.685  1.00  0.00    -0.411 OA 
HETATM    2  C   UNL     1     -10.090  12.708  69.320  1.00  0.00     0.504 C  
HETATM    3  H   UNL     1      -9.745  11.180  70.559  1.00  0.00     0.000 HD 
ENDROOT
BRANCH   2   4
HETATM    4  C   UNL     1     -10.637  12.960  67.907  1.00  0.00    -0.222 C  
HETATM    5  O   UNL     1      -9.754  13.839  67.182  1.00  0.00    -0.232 OA 
HETATM    6  C   UNL     1      -8.626  13.290  66.457  1.00  0.00     0.189 C  
HETATM    7  H   UNL     1     -12.386  11.213  65.769  1.00  0.00     0.000 HD 
HETATM    8  C   UNL     1      -9.079  12.058  65.623  1.00  0.00     0.078 C  
HETATM    9  O   UNL     1     -12.121  11.999  66.233  1.00  0.00    -0.596 OA 
HETATM   10  O   UNL     1      -9.930  12.476  64.525  1.00  0.00    -0.472 OA 
HETATM   11  C   UNL     1      -9.878  11.030  66.447  1.00  0.00    -0.212 C  
HETATM   12  C   UNL     1     -11.067  11.685  67.153  1.00  0.00    -0.299 C  
HETATM   13  O   UNL     1      -9.047  10.350  67.391  1.00  0.00    -0.135 OA 
HETATM   14  H   UNL     1      -9.539   9.716  67.899  1.00  0.00     0.000 HD 
HETATM   15  H   UNL     1     -10.208  11.724  64.016  1.00  0.00     0.000 HD 
BRANCH   6  16
HETATM   16  C   UNL     1      -7.278  13.208  67.321  1.00  0.00    -0.045 C  
HETATM   17  C   UNL     1      -5.465  10.495  65.307  1.00  0.00    -0.139 A  
HETATM   18  C   UNL     1      -6.575  11.886  66.984  1.00  0.00    -0.128 A  
HETATM   19  C   UNL     1      -5.923  11.737  65.743  1.00  0.00     1.210 A  
HETATM   20  C   UNL     1      -5.662   9.370  66.095  1.00  0.00    -0.053 A  
HETATM   21  C   UNL     1      -6.256   9.504  67.348  1.00  0.00    -0.060 A  
HETATM   22  O   UNL     1      -6.466   8.370  68.082  1.00  0.00    -0.054 OA 
HETATM   23  C   UNL     1      -6.662  10.764  67.827  1.00  0.00    -0.068 A  
HETATM   24  H   UNL     1      -6.871   8.462  68.936  1.00  0.00     0.000 HD 
HETATM   25  C   UNL     1      -7.131  10.937  69.233  1.00  0.00    -0.124 C  
HETATM   26  O   UNL     1      -6.979  10.036  70.049  1.00  0.00    -0.099 OA 
HETATM   27  C   UNL     1      -7.643  12.264  69.676  1.00  0.00     0.862 A  
HETATM   28  C   UNL     1      -7.531  13.360  68.814  1.00  0.00    -0.061 A  
HETATM   29  C   UNL     1      -7.778  14.641  69.336  1.00  0.00    -0.051 A  
HETATM   30  C   UNL     1      -8.394  14.836  70.575  1.00  0.00     1.571 A  
HETATM   31  C   UNL     1      -8.580  13.727  71.396  1.00  0.00     8.498 A  
HETATM   32  H   UNL     1      -8.705  11.547  72.694  1.00  0.00     0.000 HD 
HETATM   33  O   UNL     1      -8.349  11.413  71.823  1.00  0.00     9.127 OA 
HETATM   34  C   UNL     1      -8.172  12.461  70.968  1.00  0.00     9.371 A  
BRANCH  30  35
HETATM   35  C   UNL     1      -8.921  16.198  70.942  1.00  0.00     3.493 C  
HETATM   36  O   UNL     1      -8.381  17.173  70.053  1.00  0.00     1.280 OA 
HETATM   37  H   UNL     1      -8.713  18.033  70.284  1.00  0.00     0.000 HD 
ENDBRANCH  30  35
ENDBRANCH   6  16
ENDBRANCH   2   4
TORSDOF 3
ENDMDL
MODEL      169
REMARK 921   NORMALIZED FREE ENERGY PREDICTED BY IDOCK:   36.83 KCAL/MOL
REMARK 922        TOTAL FREE ENERGY PREDICTED BY IDOCK:   42.64 KCAL/MOL
REMARK 923 INTER-LIGAND FREE ENERGY PREDICTED BY IDOCK:   42.00 KCAL/MOL
REMARK 924 INTRA-LIGAND FREE ENERGY PREDICTED BY IDOCK:    0.63 KCAL/MOL
REMARK 927      BINDING AFFINITY PREDICTED BY RF-SCORE:    0.00 PKD
ROOT
HETATM    1  O   UNL     1      -9.216   8.861  70.126  1.00  0.00    -0.161 OA 
HETATM    2  C   UNL     1      -7.880   8.661  69.694  1.00  0.00    -0.094 C  
HETATM    3  H   UNL     1      -9.815   8.190  69.823  1.00  0.00     0.000 HD 
ENDROOT
BRANCH   2   4
HETATM    4  C   UNL     1      -6.910   9.748  70.186  1.00  0.00    -0.109 C  
HETATM    5  O   UNL     1      -6.386  10.489  69.066  1.00  0.00    -0.043 OA 
HETATM    6  C   UNL     1      -7.120  11.626  68.546  1.00  0.00    -0.089 C  
HETATM    7  H   UNL     1      -6.690  11.590  72.876  1.00  0.00     0.000 HD 
HETATM    8  C   UNL     1      -7.584  12.538  69.717  1.00  0.00     1.212 C  
HETATM    9  O   UNL     1      -6.358  11.064  72.158  1.00  0.00     1.274 OA 
HETATM   10  O   UNL     1      -6.446  13.202  70.323  1.00  0.00    -0.375 OA 
HETATM   11  C   UNL     1      -8.304  11.764  70.839  1.00  0.00     7.493 C  
HETATM   12  C   UNL     1      -7.450  10.603  71.351  1.00  0.00     3.440 C  
HETATM   13  O   UNL     1      -9.587  11.294  70.417  1.00  0.00     1.267 OA 
HETATM   14  H   UNL     1     -10.030  10.817  71.108  1.00  0.00     0.000 HD 
HETATM   15  H   UNL     1      -6.730  13.759  71.039  1.00  0.00     0.000 HD 
BRANCH   6  16
HETATM   16  C   UNL     1      -8.151  11.252  67.377  1.00  0.00    -0.135 C  
HETATM   17  C   UNL     1      -6.457   8.053  66.113  1.00  0.00    -0.046 A  
HETATM   18  C   UNL     1      -7.460  10.259  66.432  1.00  0.00    -0.114 A  
HETATM   19  C   UNL     1      -7.266   8.925  66.840  1.00  0.00    -0.082 A  
HETATM   20  C   UNL     1      -5.811   8.499  64.969  1.00  0.00    -0.048 A  
HETATM   21  C   UNL     1      -6.034   9.799  64.518  1.00  0.00    -0.094 A  
HETATM   22  O   UNL     1      -5.355  10.216  63.408  1.00  0.00    -0.094 OA 
HETATM   23  C   UNL     1      -6.901  10.668  65.208  1.00  0.00     0.022 A  
HETATM   24  H   UNL     1      -5.506  11.102  63.101  1.00  0.00     0.000 HD 
HETATM   25  C   UNL     1      -7.279  11.992  64.633  1.00  0.00     4.201 C  
HETATM   26  O   UNL     1      -7.008  12.258  63.468  1.00  0.00     4.161 OA 
HETATM   27  C   UNL     1      -8.121  12.924  65.434  1.00  0.00     3.188 A  
HETATM   28  C   UNL     1      -8.669  12.480  66.641  1.00  0.00    -0.101 A  
HETATM   29  C   UNL     1      -9.658  13.271  67.250  1.00  0.00    -0.234 A  
HETATM   30  C   UNL     1      -9.906  14.589  66.857  1.00  0.00    -0.265 A  
HETATM   31  C   UNL     1      -9.292  15.054  65.697  1.00  0.00    -0.055 A  
HETATM   32  H   UNL     1      -8.104  15.583  63.515  1.00  0.00     0.000 HD 
HETATM   33  O   UNL     1      -7.888  14.711  63.827  1.00  0.00    13.517 OA 
HETATM   34  C   UNL     1      -8.441  14.217  64.971  1.00  0.00     4.902 A  
BRANCH  30  35
HETATM   35  C   UNL     1     -10.738  15.487  67.735  1.00  0.00    -0.297 C  
HETATM   36  O   UNL     1      -9.916  16.518  68.276  1.00  0.00    -0.236 OA 
HETATM   37  H   UNL     1     -10.441  17.085  68.830  1.00  0.00     0.000 HD 
ENDBRANCH  30  35
ENDBRANCH   6  16
ENDBRANCH   2   4
TORSDOF 3
ENDMDL
MODEL      170
REMARK 921   NORMALIZED FREE ENERGY PREDICTED BY IDOCK:   41.50 KCAL/MOL
REMARK 922        TOTAL FREE ENERGY PREDICTED BY IDOCK:   48.13 KCAL/MOL
REMARK 923 INTER-LIGAND FREE ENERGY PREDICTED BY IDOCK:   47.10 KCAL/MOL
REMARK 924 INTRA-LIGAND FREE ENERGY PREDICTED BY IDOCK:    1.03 KCAL/MOL
REMARK 927      BINDING AFFINITY PREDICTED BY RF-SCORE:    0.00 PKD
ROOT
HETATM    1  O   UNL     1      -6.457  15.170  69.354  1.00  0.00    -0.116 OA 
HETATM    2  C   UNL     1      -6.206  16.169  68.379  1.00  0.00    -0.113 C  
HETATM    3  H   UNL     1      -6.015  14.348  69.175  1.00  0.00     0.000 HD 
ENDROOT
BRANCH   2   4
HETATM    4  C   UNL     1      -6.921  17.499  68.670  1.00  0.00    -0.232 C  
HETATM    5  O   UNL     1      -8.110  17.608  67.863  1.00  0.00    -0.222 OA 
HETATM    6  C   UNL     1      -9.356  17.037  68.334  1.00  0.00    -0.266 C  
HETATM    7  H   UNL     1      -7.237  19.417  71.296  1.00  0.00     0.000 HD 
HETATM    8  C   UNL     1      -9.590  17.426  69.822  1.00  0.00     0.754 C  
HETATM    9  O   UNL     1      -7.123  19.227  70.372  1.00  0.00     0.376 OA 
HETATM   10  O   UNL     1      -9.881  18.843  69.934  1.00  0.00     0.175 OA 
HETATM   11  C   UNL     1      -8.370  17.144  70.720  1.00  0.00     5.297 C  
HETATM   12  C   UNL     1      -7.107  17.807  70.169  1.00  0.00     1.239 C  
HETATM   13  O   UNL     1      -8.162  15.741  70.901  1.00  0.00     1.958 OA 
HETATM   14  H   UNL     1      -7.410  15.567  71.455  1.00  0.00     0.000 HD 
HETATM   15  H   UNL     1     -10.023  19.081  70.843  1.00  0.00     0.000 HD 
BRANCH   6  16
HETATM   16  C   UNL     1      -9.593  15.522  67.866  1.00  0.00    -0.206 C  
HETATM   17  C   UNL     1      -9.555  16.078  64.072  1.00  0.00     6.199 A  
HETATM   18  C   UNL     1     -10.059  15.542  66.404  1.00  0.00    -0.301 A  
HETATM   19  C   UNL     1      -9.137  15.834  65.380  1.00  0.00     0.558 A  
HETATM   20  C   UNL     1     -10.907  16.051  63.762  1.00  0.00     2.269 A  
HETATM   21  C   UNL     1     -11.831  15.711  64.748  1.00  0.00    -0.047 A  
HETATM   22  O   UNL     1     -13.157  15.728  64.417  1.00  0.00     0.119 OA 
HETATM   23  C   UNL     1     -11.414  15.398  66.056  1.00  0.00    -0.002 A  
HETATM   24  H   UNL     1     -13.786  15.497  65.089  1.00  0.00     0.000 HD 
HETATM   25  C   UNL     1     -12.377  14.862  67.063  1.00  0.00     0.341 C  
HETATM   26  O   UNL     1     -13.493  14.495  66.713  1.00  0.00     1.801 OA 
HETATM   27  C   UNL     1     -11.922  14.633  68.462  1.00  0.00    -0.298 A  
HETATM   28  C   UNL     1     -10.565  14.777  68.769  1.00  0.00    -0.251 A  
HETATM   29  C   UNL     1     -10.115  14.313  70.017  1.00  0.00     0.762 A  
HETATM   30  C   UNL     1     -10.996  13.982  71.051  1.00  0.00     1.388 A  
HETATM   31  C   UNL     1     -12.356  13.922  70.760  1.00  0.00    -0.449 A  
HETATM   32  H   UNL     1     -14.747  13.812  69.910  1.00  0.00     0.000 HD 
HETATM   33  O   UNL     1     -14.148  14.102  69.230  1.00  0.00     4.267 OA 
HETATM   34  C   UNL     1     -12.810  14.204  69.470  1.00  0.00     0.471 A  
BRANCH  30  35
HETATM   35  C   UNL     1     -10.469  13.801  72.451  1.00  0.00     7.201 C  
HETATM   36  O   UNL     1     -10.140  12.430  72.662  1.00  0.00    14.427 OA 
HETATM   37  H   UNL     1      -9.808  12.315  73.545  1.00  0.00     0.000 HD 
ENDBRANCH  30  35
ENDBRANCH   6  16
ENDBRANCH   2   4
TORSDOF 3
ENDMDL
MODEL      171
REMARK 921   NORMALIZED FREE ENERGY PREDICTED BY IDOCK:   42.10 KCAL/MOL
REMARK 922        TOTAL FREE ENERGY PREDICTED BY IDOCK:   48.83 KCAL/MOL
REMARK 923 INTER-LIGAND FREE ENERGY PREDICTED BY IDOCK:   16.54 KCAL/MOL
REMARK 924 INTRA-LIGAND FREE ENERGY PREDICTED BY IDOCK:   32.30 KCAL/MOL
REMARK 927      BINDING AFFINITY PREDICTED BY RF-SCORE:    0.00 PKD
ROOT
HETATM    1  O   UNL     1      -8.366  15.787  67.803  1.00  0.00    -0.150 OA 
HETATM    2  C   UNL     1      -9.034  16.979  67.423  1.00  0.00    -0.211 C  
HETATM    3  H   UNL     1      -7.583  15.615  67.293  1.00  0.00     0.000 HD 
ENDROOT
BRANCH   2   4
HETATM    4  C   UNL     1     -10.301  17.258  68.248  1.00  0.00    -0.361 C  
HETATM    5  O   UNL     1     -10.854  16.022  68.740  1.00  0.00    -0.265 OA 
HETATM    6  C   UNL     1     -10.375  15.464  69.989  1.00  0.00    -0.272 C  
HETATM    7  H   UNL     1     -11.310  19.709  70.160  1.00  0.00     0.000 HD 
HETATM    8  C   UNL     1     -10.305  16.575  71.074  1.00  0.00     1.605 C  
HETATM    9  O   UNL     1     -11.407  19.020  69.513  1.00  0.00     2.696 OA 
HETATM   10  O   UNL     1     -11.640  16.993  71.458  1.00  0.00    -0.377 OA 
HETATM   11  C   UNL     1      -9.556  17.836  70.602  1.00  0.00     3.543 C  
HETATM   12  C   UNL     1     -10.143  18.377  69.298  1.00  0.00    -0.015 C  
HETATM   13  O   UNL     1      -8.154  17.594  70.458  1.00  0.00     3.132 OA 
HETATM   14  H   UNL     1      -7.692  18.371  70.167  1.00  0.00     0.000 HD 
HETATM   15  H   UNL     1     -11.597  17.672  72.121  1.00  0.00     0.000 HD 
BRANCH   6  16
HETATM   16  C   UNL     1      -9.148  14.447  69.816  1.00  0.00     0.746 C  
HETATM   17  C   UNL     1      -6.572  16.891  68.368  1.00  0.00    -0.155 A  
HETATM   18  C   UNL     1      -8.140  15.076  68.844  1.00  0.00    -0.176 A  
HETATM   19  C   UNL     1      -7.336  16.152  69.270  1.00  0.00    -0.231 A  
HETATM   20  C   UNL     1      -6.607  16.580  67.015  1.00  0.00    -0.234 A  
HETATM   21  C   UNL     1      -7.353  15.487  66.581  1.00  0.00     0.359 A  
HETATM   22  O   UNL     1      -7.393  15.232  65.239  1.00  0.00     4.836 OA 
HETATM   23  C   UNL     1      -8.076  14.693  67.492  1.00  0.00    -0.200 A  
HETATM   24  H   UNL     1      -7.902  14.486  64.943  1.00  0.00     0.000 HD 
HETATM   25  C   UNL     1      -8.727  13.422  67.057  1.00  0.00    -0.187 C  
HETATM   26  O   UNL     1      -8.475  12.947  65.957  1.00  0.00     0.508 OA 
HETATM   27  C   UNL     1      -9.563  12.659  68.026  1.00  0.00    -0.213 A  
HETATM   28  C   UNL     1      -9.595  13.063  69.364  1.00  0.00     1.025 A  
HETATM   29  C   UNL     1     -10.173  12.194  70.305  1.00  0.00     2.788 A  
HETATM   30  C   UNL     1     -10.952  11.097  69.927  1.00  0.00    -0.162 A  
HETATM   31  C   UNL     1     -10.983  10.748  68.579  1.00  0.00    -0.291 A  
HETATM   32  H   UNL     1     -10.776  10.311  66.086  1.00  0.00     0.000 HD 
HETATM   33  O   UNL     1     -10.303  11.095  66.342  1.00  0.00    -0.236 OA 
HETATM   34  C   UNL     1     -10.263  11.496  67.645  1.00  0.00    -0.184 A  
BRANCH  30  35
HETATM   35  C   UNL     1     -11.801  10.395  70.954  1.00  0.00    -0.377 C  
HETATM   36  O   UNL     1     -12.791  11.293  71.449  1.00  0.00    -0.406 OA 
HETATM   37  H   UNL     1     -13.326  10.850  72.097  1.00  0.00     0.000 HD 
ENDBRANCH  30  35
ENDBRANCH   6  16
ENDBRANCH   2   4
TORSDOF 3
ENDMDL
MODEL      172
REMARK 921   NORMALIZED FREE ENERGY PREDICTED BY IDOCK:   58.53 KCAL/MOL
REMARK 922        TOTAL FREE ENERGY PREDICTED BY IDOCK:   68.14 KCAL/MOL
REMARK 923 INTER-LIGAND FREE ENERGY PREDICTED BY IDOCK:   55.81 KCAL/MOL
REMARK 924 INTRA-LIGAND FREE ENERGY PREDICTED BY IDOCK:   12.33 KCAL/MOL
REMARK 927      BINDING AFFINITY PREDICTED BY RF-SCORE:    0.00 PKD
ROOT
HETATM    1  O   UNL     1      -7.751  12.179  67.031  1.00  0.00    -0.224 OA 
HETATM    2  C   UNL     1      -8.965  12.911  67.083  1.00  0.00    -0.219 C  
HETATM    3  H   UNL     1      -7.581  11.674  67.817  1.00  0.00     0.000 HD 
ENDROOT
BRANCH   2   4
HETATM    4  C   UNL     1      -9.241  13.727  65.810  1.00  0.00     0.310 C  
HETATM    5  O   UNL     1     -10.653  13.738  65.524  1.00  0.00    -0.286 OA 
HETATM    6  C   UNL     1     -11.505  14.737  66.138  1.00  0.00    -0.311 C  
HETATM    7  H   UNL     1      -7.849  16.321  64.391  1.00  0.00     0.000 HD 
HETATM    8  C   UNL     1     -10.848  16.142  66.019  1.00  0.00    -0.154 C  
HETATM    9  O   UNL     1      -8.277  15.473  64.414  1.00  0.00     6.611 OA 
HETATM   10  O   UNL     1     -10.856  16.588  64.638  1.00  0.00    -0.774 OA 
HETATM   11  C   UNL     1      -9.381  16.166  66.491  1.00  0.00    -0.268 C  
HETATM   12  C   UNL     1      -8.547  15.104  65.773  1.00  0.00     1.030 C  
HETATM   13  O   UNL     1      -9.282  16.007  67.909  1.00  0.00    -0.195 OA 
HETATM   14  H   UNL     1      -8.378  16.022  68.201  1.00  0.00     0.000 HD 
HETATM   15  H   UNL     1     -10.454  17.446  64.565  1.00  0.00     0.000 HD 
BRANCH   6  16
HETATM   16  C   UNL     1     -12.141  14.277  67.536  1.00  0.00    -0.347 C  
HETATM   17  C   UNL     1     -14.331  17.351  68.214  1.00  0.00    10.111 A  
HETATM   18  C   UNL     1     -12.710  15.521  68.233  1.00  0.00     1.356 A  
HETATM   19  C   UNL     1     -13.899  16.107  67.756  1.00  0.00     7.715 A  
HETATM   20  C   UNL     1     -13.575  18.045  69.148  1.00  0.00    15.171 A  
HETATM   21  C   UNL     1     -12.424  17.459  69.673  1.00  0.00     5.999 A  
HETATM   22  O   UNL     1     -11.686  18.185  70.564  1.00  0.00     3.477 OA 
HETATM   23  C   UNL     1     -12.015  16.174  69.266  1.00  0.00    -0.086 A  
HETATM   24  H   UNL     1     -10.902  17.786  70.921  1.00  0.00     0.000 HD 
HETATM   25  C   UNL     1     -10.891  15.473  69.953  1.00  0.00    -0.302 C  
HETATM   26  O   UNL     1     -10.442  15.912  71.005  1.00  0.00     0.171 OA 
HETATM   27  C   UNL     1     -10.423  14.157  69.435  1.00  0.00    -0.000 A  
HETATM   28  C   UNL     1     -11.145  13.532  68.413  1.00  0.00    -0.298 A  
HETATM   29  C   UNL     1     -10.847  12.191  68.116  1.00  0.00    -0.256 A  
HETATM   30  C   UNL     1      -9.694  11.560  68.593  1.00  0.00    -0.172 A  
HETATM   31  C   UNL     1      -8.932  12.224  69.551  1.00  0.00     1.515 A  
HETATM   32  H   UNL     1      -7.804  13.634  71.336  1.00  0.00     0.000 HD 
HETATM   33  O   UNL     1      -8.551  14.084  70.958  1.00  0.00     3.880 OA 
HETATM   34  C   UNL     1      -9.315  13.490  69.997  1.00  0.00     2.709 A  
BRANCH  30  35
HETATM   35  C   UNL     1      -9.261  10.247  67.997  1.00  0.00    -0.135 C  
HETATM   36  O   UNL     1     -10.341   9.679  67.260  1.00  0.00    -0.217 OA 
HETATM   37  H   UNL     1     -10.068   8.850  66.884  1.00  0.00     0.000 HD 
ENDBRANCH  30  35
ENDBRANCH   6  16
ENDBRANCH   2   4
TORSDOF 3
ENDMDL
MODEL      173
REMARK 921   NORMALIZED FREE ENERGY PREDICTED BY IDOCK:   59.03 KCAL/MOL
REMARK 922        TOTAL FREE ENERGY PREDICTED BY IDOCK:   68.73 KCAL/MOL
REMARK 923 INTER-LIGAND FREE ENERGY PREDICTED BY IDOCK:   50.73 KCAL/MOL
REMARK 924 INTRA-LIGAND FREE ENERGY PREDICTED BY IDOCK:   17.99 KCAL/MOL
REMARK 927      BINDING AFFINITY PREDICTED BY RF-SCORE:    0.00 PKD
ROOT
HETATM    1  O   UNL     1      -7.989  16.874  68.965  1.00  0.00    -0.236 OA 
HETATM    2  C   UNL     1      -9.093  15.990  69.074  1.00  0.00    -0.242 C  
HETATM    3  H   UNL     1      -7.186  16.444  68.694  1.00  0.00     0.000 HD 
ENDROOT
BRANCH   2   4
HETATM    4  C   UNL     1     -10.391  16.686  69.513  1.00  0.00    -0.245 C  
HETATM    5  O   UNL     1     -10.590  17.891  68.748  1.00  0.00    -0.274 OA 
HETATM    6  C   UNL     1     -11.263  17.829  67.466  1.00  0.00     0.303 C  
HETATM    7  H   UNL     1     -13.277  15.667  70.660  1.00  0.00     0.000 HD 
HETATM    8  C   UNL     1     -12.549  16.962  67.583  1.00  0.00     3.446 C  
HETATM    9  O   UNL     1     -12.523  16.242  70.602  1.00  0.00    -0.081 OA 
HETATM   10  O   UNL     1     -13.549  17.645  68.382  1.00  0.00     5.288 OA 
HETATM   11  C   UNL     1     -12.298  15.594  68.247  1.00  0.00     0.583 C  
HETATM   12  C   UNL     1     -11.615  15.751  69.606  1.00  0.00    -0.358 C  
HETATM   13  O   UNL     1     -11.538  14.728  67.401  1.00  0.00    -0.353 OA 
HETATM   14  H   UNL     1     -11.383  13.885  67.810  1.00  0.00     0.000 HD 
HETATM   15  H   UNL     1     -14.334  17.115  68.454  1.00  0.00     0.000 HD 
BRANCH   6  16
HETATM   16  C   UNL     1     -10.273  17.613  66.224  1.00  0.00    -0.362 C  
HETATM   17  C   UNL     1     -12.646  18.671  63.404  1.00  0.00    18.124 A  
HETATM   18  C   UNL     1     -11.120  17.543  64.946  1.00  0.00     0.763 A  
HETATM   19  C   UNL     1     -11.699  18.718  64.426  1.00  0.00     6.030 A  
HETATM   20  C   UNL     1     -13.048  17.446  62.889  1.00  0.00    15.857 A  
HETATM   21  C   UNL     1     -12.448  16.277  63.351  1.00  0.00     3.710 A  
HETATM   22  O   UNL     1     -12.893  15.087  62.847  1.00  0.00     0.555 OA 
HETATM   23  C   UNL     1     -11.443  16.318  64.336  1.00  0.00    -0.114 A  
HETATM   24  H   UNL     1     -12.484  14.290  63.163  1.00  0.00     0.000 HD 
HETATM   25  C   UNL     1     -10.676  15.091  64.703  1.00  0.00    -0.217 C  
HETATM   26  O   UNL     1     -10.765  14.081  64.016  1.00  0.00    -0.015 OA 
HETATM   27  C   UNL     1      -9.687  15.151  65.816  1.00  0.00    -0.379 A  
HETATM   28  C   UNL     1      -9.384  16.389  66.391  1.00  0.00    -0.322 A  
HETATM   29  C   UNL     1      -8.275  16.466  67.251  1.00  0.00    -0.193 A  
HETATM   30  C   UNL     1      -7.651  15.327  67.767  1.00  0.00    -0.171 A  
HETATM   31  C   UNL     1      -8.016  14.087  67.248  1.00  0.00    -0.157 A  
HETATM   32  H   UNL     1      -8.827  11.997  66.055  1.00  0.00     0.000 HD 
HETATM   33  O   UNL     1      -9.294  12.769  65.759  1.00  0.00    -0.084 OA 
HETATM   34  C   UNL     1      -8.994  14.004  66.255  1.00  0.00     0.086 A  
BRANCH  30  35
HETATM   35  C   UNL     1      -6.688  15.459  68.917  1.00  0.00    -0.113 C  
HETATM   36  O   UNL     1      -5.359  15.231  68.455  1.00  0.00    -0.093 OA 
HETATM   37  H   UNL     1      -4.751  15.315  69.180  1.00  0.00     0.000 HD 
ENDBRANCH  30  35
ENDBRANCH   6  16
ENDBRANCH   2   4
TORSDOF 3
ENDMDL
MODEL      174
REMARK 921   NORMALIZED FREE ENERGY PREDICTED BY IDOCK:   62.13 KCAL/MOL
REMARK 922        TOTAL FREE ENERGY PREDICTED BY IDOCK:   72.37 KCAL/MOL
REMARK 923 INTER-LIGAND FREE ENERGY PREDICTED BY IDOCK:   69.85 KCAL/MOL
REMARK 924 INTRA-LIGAND FREE ENERGY PREDICTED BY IDOCK:    2.52 KCAL/MOL
REMARK 927      BINDING AFFINITY PREDICTED BY RF-SCORE:    0.00 PKD
ROOT
HETATM    1  O   UNL     1      -9.336   9.111  70.346  1.00  0.00    -0.194 OA 
HETATM    2  C   UNL     1      -7.961   9.212  70.009  1.00  0.00    -0.113 C  
HETATM    3  H   UNL     1      -9.856   8.675  69.681  1.00  0.00     0.000 HD 
ENDROOT
BRANCH   2   4
HETATM    4  C   UNL     1      -7.120   9.916  71.086  1.00  0.00     0.417 C  
HETATM    5  O   UNL     1      -6.726  11.225  70.629  1.00  0.00    -0.081 OA 
HETATM    6  C   UNL     1      -7.610  12.355  70.830  1.00  0.00     5.748 C  
HETATM    7  H   UNL     1      -7.048   9.864  74.352  1.00  0.00     0.000 HD 
HETATM    8  C   UNL     1      -8.149  12.355  72.289  1.00  0.00    17.505 C  
HETATM    9  O   UNL     1      -6.675   9.896  73.479  1.00  0.00     0.737 OA 
HETATM   10  O   UNL     1      -7.084  12.673  73.222  1.00  0.00     6.016 OA 
HETATM   11  C   UNL     1      -8.732  10.995  72.719  1.00  0.00    16.010 C  
HETATM   12  C   UNL     1      -7.725   9.864  72.503  1.00  0.00     3.347 C  
HETATM   13  O   UNL     1      -9.959  10.710  72.042  1.00  0.00     4.014 OA 
HETATM   14  H   UNL     1     -10.319   9.872  72.307  1.00  0.00     0.000 HD 
HETATM   15  H   UNL     1      -7.413  12.673  74.113  1.00  0.00     0.000 HD 
BRANCH   6  16
HETATM   16  C   UNL     1      -8.622  12.612  69.613  1.00  0.00     1.946 C  
HETATM   17  C   UNL     1      -7.066  10.216  67.055  1.00  0.00    -0.090 A  
HETATM   18  C   UNL     1      -7.957  12.105  68.326  1.00  0.00    -0.163 A  
HETATM   19  C   UNL     1      -7.848  10.720  68.093  1.00  0.00    -0.112 A  
HETATM   20  C   UNL     1      -6.360  11.086  66.236  1.00  0.00    -0.119 A  
HETATM   21  C   UNL     1      -6.496  12.461  66.415  1.00  0.00     1.260 A  
HETATM   22  O   UNL     1      -5.760  13.287  65.614  1.00  0.00     4.640 OA 
HETATM   23  C   UNL     1      -7.336  12.982  67.418  1.00  0.00    -0.122 A  
HETATM   24  H   UNL     1      -5.852  14.224  65.736  1.00  0.00     0.000 HD 
HETATM   25  C   UNL     1      -7.623  14.445  67.497  1.00  0.00    -0.193 C  
HETATM   26  O   UNL     1      -7.300  15.186  66.577  1.00  0.00     0.215 OA 
HETATM   27  C   UNL     1      -8.438  14.971  68.628  1.00  0.00    -0.168 A  
HETATM   28  C   UNL     1      -9.048  14.069  69.505  1.00  0.00     0.784 A  
HETATM   29  C   UNL     1     -10.011  14.564  70.400  1.00  0.00     1.055 A  
HETATM   30  C   UNL     1     -10.174  15.932  70.639  1.00  0.00     0.451 A  
HETATM   31  C   UNL     1      -9.498  16.826  69.814  1.00  0.00     0.556 A  
HETATM   32  H   UNL     1      -8.213  18.200  68.107  1.00  0.00     0.000 HD 
HETATM   33  O   UNL     1      -8.055  17.270  67.995  1.00  0.00    -0.208 OA 
HETATM   34  C   UNL     1      -8.671  16.352  68.794  1.00  0.00    -0.246 A  
BRANCH  30  35
HETATM   35  C   UNL     1     -10.983  16.392  71.824  1.00  0.00     0.842 C  
HETATM   36  O   UNL     1     -10.121  16.997  72.784  1.00  0.00     6.122 OA 
HETATM   37  H   UNL     1     -10.631  17.288  73.531  1.00  0.00     0.000 HD 
ENDBRANCH  30  35
ENDBRANCH   6  16
ENDBRANCH   2   4
TORSDOF 3
ENDMDL
MODEL      175
REMARK 921   NORMALIZED FREE ENERGY PREDICTED BY IDOCK:   64.25 KCAL/MOL
REMARK 922        TOTAL FREE ENERGY PREDICTED BY IDOCK:   74.87 KCAL/MOL
REMARK 923 INTER-LIGAND FREE ENERGY PREDICTED BY IDOCK:   73.63 KCAL/MOL
REMARK 924 INTRA-LIGAND FREE ENERGY PREDICTED BY IDOCK:    1.24 KCAL/MOL
REMARK 927      BINDING AFFINITY PREDICTED BY RF-SCORE:    0.00 PKD
ROOT
HETATM    1  O   UNL     1      -9.787  19.799  66.708  1.00  0.00    -0.352 OA 
HETATM    2  C   UNL     1     -10.412  20.564  67.727  1.00  0.00     0.031 C  
HETATM    3  H   UNL     1      -8.850  19.941  66.651  1.00  0.00     0.000 HD 
ENDROOT
BRANCH   2   4
HETATM    4  C   UNL     1     -11.929  20.333  67.820  1.00  0.00     3.031 C  
HETATM    5  O   UNL     1     -12.303  19.181  67.039  1.00  0.00     2.710 OA 
HETATM    6  C   UNL     1     -12.243  17.859  67.630  1.00  0.00     3.471 C  
HETATM    7  H   UNL     1     -14.201  20.849  70.111  1.00  0.00     0.000 HD 
HETATM    8  C   UNL     1     -12.896  17.878  69.042  1.00  0.00     9.372 C  
HETATM    9  O   UNL     1     -13.853  20.824  69.227  1.00  0.00     5.772 OA 
HETATM   10  O   UNL     1     -14.331  18.062  68.933  1.00  0.00     9.847 OA 
HETATM   11  C   UNL     1     -12.363  19.011  69.940  1.00  0.00    13.424 C  
HETATM   12  C   UNL     1     -12.493  20.373  69.255  1.00  0.00     7.420 C  
HETATM   13  O   UNL     1     -11.010  18.777  70.338  1.00  0.00     1.403 OA 
HETATM   14  H   UNL     1     -10.682  19.475  70.892  1.00  0.00     0.000 HD 
HETATM   15  H   UNL     1     -14.730  18.074  69.795  1.00  0.00     0.000 HD 
BRANCH   6  16
HETATM   16  C   UNL     1     -10.838  17.117  67.418  1.00  0.00    -0.164 C  
HETATM   17  C   UNL     1     -10.774  17.085  63.585  1.00  0.00     5.489 A  
HETATM   18  C   UNL     1     -10.790  16.588  65.978  1.00  0.00    -0.069 A  
HETATM   19  C   UNL     1     -10.606  17.487  64.909  1.00  0.00     0.805 A  
HETATM   20  C   UNL     1     -11.146  15.779  63.300  1.00  0.00     3.900 A  
HETATM   21  C   UNL     1     -11.280  14.861  64.340  1.00  0.00    -0.160 A  
HETATM   22  O   UNL     1     -11.681  13.592  64.026  1.00  0.00    -0.508 OA 
HETATM   23  C   UNL     1     -11.048  15.239  65.676  1.00  0.00    -0.308 A  
HETATM   24  H   UNL     1     -11.773  12.967  64.735  1.00  0.00     0.000 HD 
HETATM   25  C   UNL     1     -11.015  14.223  66.768  1.00  0.00    -0.304 C  
HETATM   26  O   UNL     1     -10.986  13.028  66.497  1.00  0.00    -0.279 OA 
HETATM   27  C   UNL     1     -10.862  14.670  68.181  1.00  0.00    -0.256 A  
HETATM   28  C   UNL     1     -10.597  16.018  68.443  1.00  0.00    -0.270 A  
HETATM   29  C   UNL     1     -10.204  16.375  69.744  1.00  0.00    -0.142 A  
HETATM   30  C   UNL     1     -10.340  15.504  70.830  1.00  0.00     0.209 A  
HETATM   31  C   UNL     1     -10.686  14.181  70.569  1.00  0.00     0.840 A  
HETATM   32  H   UNL     1     -11.240  11.832  69.778  1.00  0.00     0.000 HD 
HETATM   33  O   UNL     1     -11.212  12.446  69.053  1.00  0.00    -0.248 OA 
HETATM   34  C   UNL     1     -10.905  13.759  69.256  1.00  0.00    -0.103 A  
BRANCH  30  35
HETATM   35  C   UNL     1     -10.208  16.034  72.233  1.00  0.00     3.857 C  
HETATM   36  O   UNL     1     -10.072  17.453  72.196  1.00  0.00     5.207 OA 
HETATM   37  H   UNL     1      -9.989  17.787  73.081  1.00  0.00     0.000 HD 
ENDBRANCH  30  35
ENDBRANCH   6  16
ENDBRANCH   2   4
TORSDOF 3
ENDMDL
MODEL      176
REMARK 921   NORMALIZED FREE ENERGY PREDICTED BY IDOCK:   75.89 KCAL/MOL
REMARK 922        TOTAL FREE ENERGY PREDICTED BY IDOCK:   88.54 KCAL/MOL
REMARK 923 INTER-LIGAND FREE ENERGY PREDICTED BY IDOCK:   63.79 KCAL/MOL
REMARK 924 INTRA-LIGAND FREE ENERGY PREDICTED BY IDOCK:   24.75 KCAL/MOL
REMARK 927      BINDING AFFINITY PREDICTED BY RF-SCORE:    0.00 PKD
ROOT
HETATM    1  O   UNL     1      -9.587  17.897  68.782  1.00  0.00    -0.310 OA 
HETATM    2  C   UNL     1      -8.196  17.960  69.056  1.00  0.00    -0.029 C  
HETATM    3  H   UNL     1      -9.784  17.653  67.885  1.00  0.00     0.000 HD 
ENDROOT
BRANCH   2   4
HETATM    4  C   UNL     1      -7.878  18.353  70.507  1.00  0.00     3.259 C  
HETATM    5  O   UNL     1      -9.059  18.872  71.151  1.00  0.00     4.017 OA 
HETATM    6  C   UNL     1      -9.991  17.963  71.787  1.00  0.00     6.265 C  
HETATM    7  H   UNL     1      -5.818  17.252  72.793  1.00  0.00     0.000 HD 
HETATM    8  C   UNL     1      -9.218  16.938  72.665  1.00  0.00    13.684 C  
HETATM    9  O   UNL     1      -6.294  17.913  72.302  1.00  0.00     2.515 OA 
HETATM   10  O   UNL     1      -8.645  17.596  73.824  1.00  0.00    12.465 OA 
HETATM   11  C   UNL     1      -8.058  16.253  71.917  1.00  0.00     9.505 C  
HETATM   12  C   UNL     1      -7.106  17.281  71.303  1.00  0.00     5.011 C  
HETATM   13  O   UNL     1      -8.536  15.352  70.915  1.00  0.00     1.095 OA 
HETATM   14  H   UNL     1      -7.821  14.930  70.453  1.00  0.00     0.000 HD 
HETATM   15  H   UNL     1      -8.172  16.970  74.361  1.00  0.00     0.000 HD 
BRANCH   6  16
HETATM   16  C   UNL     1     -11.161  17.451  70.818  1.00  0.00     1.573 C  
HETATM   17  C   UNL     1     -13.829  16.716  73.473  1.00  0.00     1.045 A  
HETATM   18  C   UNL     1     -12.180  16.679  71.668  1.00  0.00     0.604 A  
HETATM   19  C   UNL     1     -13.046  17.381  72.530  1.00  0.00     5.460 A  
HETATM   20  C   UNL     1     -13.751  15.335  73.587  1.00  0.00     0.798 A  
HETATM   21  C   UNL     1     -12.942  14.618  72.708  1.00  0.00    -0.470 A  
HETATM   22  O   UNL     1     -12.863  13.264  72.871  1.00  0.00    -0.166 OA 
HETATM   23  C   UNL     1     -12.198  15.274  71.708  1.00  0.00    -0.430 A  
HETATM   24  H   UNL     1     -12.312  12.775  72.272  1.00  0.00     0.000 HD 
HETATM   25  C   UNL     1     -11.475  14.500  70.656  1.00  0.00    -0.163 C  
HETATM   26  O   UNL     1     -11.681  13.300  70.524  1.00  0.00    -0.194 OA 
HETATM   27  C   UNL     1     -10.621  15.223  69.673  1.00  0.00    -0.285 A  
HETATM   28  C   UNL     1     -10.636  16.621  69.656  1.00  0.00    -0.274 A  
HETATM   29  C   UNL     1     -10.033  17.277  68.569  1.00  0.00    -0.320 A  
HETATM   30  C   UNL     1      -9.192  16.614  67.671  1.00  0.00    -0.208 A  
HETATM   31  C   UNL     1      -9.117  15.225  67.746  1.00  0.00    -0.182 A  
HETATM   32  H   UNL     1      -9.252  12.710  68.072  1.00  0.00     0.000 HD 
HETATM   33  O   UNL     1      -9.769  13.173  68.721  1.00  0.00    -0.103 OA 
HETATM   34  C   UNL     1      -9.855  14.535  68.710  1.00  0.00    -0.220 A  
BRANCH  30  35
HETATM   35  C   UNL     1      -8.329  17.411  66.728  1.00  0.00    -0.248 C  
HETATM   36  O   UNL     1      -7.709  16.533  65.792  1.00  0.00     0.098 OA 
HETATM   37  H   UNL     1      -7.165  17.035  65.197  1.00  0.00     0.000 HD 
ENDBRANCH  30  35
ENDBRANCH   6  16
ENDBRANCH   2   4
TORSDOF 3
ENDMDL
MODEL      177
REMARK 921   NORMALIZED FREE ENERGY PREDICTED BY IDOCK:   78.66 KCAL/MOL
REMARK 922        TOTAL FREE ENERGY PREDICTED BY IDOCK:   91.80 KCAL/MOL
REMARK 923 INTER-LIGAND FREE ENERGY PREDICTED BY IDOCK:   83.71 KCAL/MOL
REMARK 924 INTRA-LIGAND FREE ENERGY PREDICTED BY IDOCK:    8.09 KCAL/MOL
REMARK 927      BINDING AFFINITY PREDICTED BY RF-SCORE:    0.00 PKD
ROOT
HETATM    1  O   UNL     1      -6.916  10.052  70.587  1.00  0.00    -0.260 OA 
HETATM    2  C   UNL     1      -7.585   9.220  69.652  1.00  0.00    -0.084 C  
HETATM    3  H   UNL     1      -6.213   9.611  71.050  1.00  0.00     0.000 HD 
ENDROOT
BRANCH   2   4
HETATM    4  C   UNL     1      -8.720   9.935  68.903  1.00  0.00    -0.140 C  
HETATM    5  O   UNL     1      -9.339   9.034  67.964  1.00  0.00    -0.141 OA 
HETATM    6  C   UNL     1     -10.412   8.163  68.400  1.00  0.00    -0.161 C  
HETATM    7  H   UNL     1     -10.840  12.307  69.655  1.00  0.00     0.000 HD 
HETATM    8  C   UNL     1     -11.442   8.969  69.241  1.00  0.00     0.463 C  
HETATM    9  O   UNL     1     -10.241  11.827  69.094  1.00  0.00    -0.083 OA 
HETATM   10  O   UNL     1     -12.171   9.896  68.395  1.00  0.00     0.169 OA 
HETATM   11  C   UNL     1     -10.790   9.801  70.362  1.00  0.00    -0.311 C  
HETATM   12  C   UNL     1      -9.693  10.714  69.813  1.00  0.00     0.149 C  
HETATM   13  O   UNL     1     -10.275   8.968  71.404  1.00  0.00    -0.275 OA 
HETATM   14  H   UNL     1      -9.873   9.481  72.096  1.00  0.00     0.000 HD 
HETATM   15  H   UNL     1     -12.800  10.389  68.908  1.00  0.00     0.000 HD 
BRANCH   6  16
HETATM   16  C   UNL     1      -9.913   6.731  68.920  1.00  0.00    -0.159 C  
HETATM   17  C   UNL     1     -11.962   4.512  66.557  1.00  0.00     6.193 A  
HETATM   18  C   UNL     1     -10.915   5.673  68.437  1.00  0.00    -0.038 A  
HETATM   19  C   UNL     1     -10.936   5.299  67.079  1.00  0.00     0.173 A  
HETATM   20  C   UNL     1     -13.000   4.096  67.379  1.00  0.00    21.840 A  
HETATM   21  C   UNL     1     -12.970   4.410  68.736  1.00  0.00    22.780 A  
HETATM   22  O   UNL     1     -14.026   4.013  69.508  1.00  0.00    23.104 OA 
HETATM   23  C   UNL     1     -11.904   5.147  69.287  1.00  0.00     4.802 A  
HETATM   24  H   UNL     1     -14.005   4.228  70.433  1.00  0.00     0.000 HD 
HETATM   25  C   UNL     1     -11.778   5.330  70.763  1.00  0.00     1.701 C  
HETATM   26  O   UNL     1     -12.479   4.677  71.526  1.00  0.00     3.447 OA 
HETATM   27  C   UNL     1     -10.693   6.195  71.303  1.00  0.00    -0.310 A  
HETATM   28  C   UNL     1      -9.720   6.693  70.430  1.00  0.00    -0.186 A  
HETATM   29  C   UNL     1      -8.573   7.285  70.984  1.00  0.00    -0.128 A  
HETATM   30  C   UNL     1      -8.497   7.645  72.333  1.00  0.00    -0.151 A  
HETATM   31  C   UNL     1      -9.512   7.217  73.184  1.00  0.00    -0.204 A  
HETATM   32  H   UNL     1     -11.452   6.228  74.492  1.00  0.00     0.000 HD 
HETATM   33  O   UNL     1     -11.530   6.045  73.563  1.00  0.00     0.128 OA 
HETATM   34  C   UNL     1     -10.577   6.466  72.682  1.00  0.00    -0.224 A  
BRANCH  30  35
HETATM   35  C   UNL     1      -7.391   8.554  72.802  1.00  0.00    -0.003 C  
HETATM   36  O   UNL     1      -7.747   9.910  72.545  1.00  0.00     1.620 OA 
HETATM   37  H   UNL     1      -7.049  10.483  72.841  1.00  0.00     0.000 HD 
ENDBRANCH  30  35
ENDBRANCH   6  16
ENDBRANCH   2   4
TORSDOF 3
ENDMDL
