MODEL        1
REMARK 921   NORMALIZED FREE ENERGY PREDICTED BY IDOCK:   -6.71 KCAL/MOL
REMARK 922        TOTAL FREE ENERGY PREDICTED BY IDOCK:  -11.98 KCAL/MOL
REMARK 923 INTER-LIGAND FREE ENERGY PREDICTED BY IDOCK:  -10.63 KCAL/MOL
REMARK 924 INTRA-LIGAND FREE ENERGY PREDICTED BY IDOCK:   -1.34 KCAL/MOL
REMARK 927      BINDING AFFINITY PREDICTED BY RF-SCORE:    0.00 PKD
ROOT
HETATM    1  F   UNL     1     -11.589   4.929  73.803  1.00  0.00    -0.327 F  
HETATM    2  C   UNL     1     -11.316   5.540  72.643  1.00  0.00    -0.291 A  
HETATM    3  C   UNL     1     -10.068   5.368  72.055  1.00  0.00    -0.240 A  
HETATM    4  C   UNL     1      -9.769   6.028  70.860  1.00  0.00    -0.207 A  
HETATM    5  C   UNL     1     -10.719   6.864  70.242  1.00  0.00    -0.274 A  
HETATM    6  C   UNL     1     -11.988   6.988  70.840  1.00  0.00    -0.409 A  
HETATM    7  C   UNL     1     -12.282   6.335  72.042  1.00  0.00    -0.270 A  
ENDROOT
BRANCH   5   8
HETATM    8  C   UNL     1     -10.361   7.612  68.945  1.00  0.00    -0.212 C  
BRANCH   8   9
HETATM    9  N   UNL     1      -9.361   8.693  69.178  1.00  0.00    -0.152 NA 
HETATM   10  C   UNL     1      -9.805   9.698  70.197  1.00  0.00    -0.262 C  
HETATM   11  C   UNL     1     -10.793  10.806  69.726  1.00  0.00    -0.226 C  
HETATM   12  C   UNL     1      -8.989   9.443  67.947  1.00  0.00    -0.123 C  
HETATM   13  C   UNL     1     -10.041  10.454  67.439  1.00  0.00    -0.196 C  
HETATM   14  N   UNL     1     -10.281  11.437  68.502  1.00  0.00    -0.202 NA 
BRANCH  14  15
HETATM   15  C   UNL     1     -11.043  12.540  68.116  1.00  0.00    -0.243 A  
HETATM   16  N   UNL     1     -11.526  12.576  66.883  1.00  0.00    -0.332 NA 
HETATM   17  C   UNL     1     -12.215  13.653  66.549  1.00  0.00    -0.404 A  
HETATM   18  N   UNL     1     -11.243  13.510  69.006  1.00  0.00    -0.261 NA 
HETATM   19  N   UNL     1     -12.403  14.692  67.347  1.00  0.00    -0.057 NA 
HETATM   20  C   UNL     1     -11.934  14.563  68.580  1.00  0.00    -0.285 A  
BRANCH  17  21
HETATM   21  N   UNL     1     -12.852  13.702  65.323  1.00  0.00    -0.723 NA 
HETATM   22  H   UNL     1     -13.832  13.437  65.222  1.00  0.00     0.000 HD 
BRANCH  21  23
HETATM   23  C   UNL     1     -12.074  14.144  64.195  1.00  0.00    -0.406 C  
BRANCH  23  24
HETATM   24  C   UNL     1     -11.868  12.938  63.333  1.00  0.00    -0.576 C  
HETATM   25  C   UNL     1     -12.641  11.843  63.343  1.00  0.00    -0.555 C  
ENDBRANCH  23  24
ENDBRANCH  21  23
ENDBRANCH  17  21
BRANCH  20  26
HETATM   26  N   UNL     1     -12.308  15.566  69.456  1.00  0.00    -0.583 NA 
HETATM   27  H   UNL     1     -13.108  16.163  69.244  1.00  0.00     0.000 HD 
BRANCH  26  28
HETATM   28  C   UNL     1     -11.555  15.760  70.670  1.00  0.00    -0.390 C  
BRANCH  28  29
HETATM   29  C   UNL     1     -12.469  15.490  71.837  1.00  0.00    -0.475 C  
HETATM   30  C   UNL     1     -13.791  15.287  71.747  1.00  0.00    -0.622 C  
ENDBRANCH  28  29
ENDBRANCH  26  28
ENDBRANCH  20  26
ENDBRANCH  14  15
ENDBRANCH   8   9
BRANCH   8  31
HETATM   31  C   UNL     1      -9.956   6.594  67.851  1.00  0.00    -0.152 A  
HETATM   32  C   UNL     1      -9.158   4.670  65.962  1.00  0.00    -0.131 A  
HETATM   33  C   UNL     1     -10.502   4.977  66.109  1.00  0.00    -0.334 A  
HETATM   34  F   UNL     1      -8.784   3.720  65.093  1.00  0.00    -0.109 F  
HETATM   35  C   UNL     1      -8.595   6.295  67.649  1.00  0.00    -0.114 A  
HETATM   36  C   UNL     1     -10.899   5.944  67.038  1.00  0.00    -0.379 A  
HETATM   37  C   UNL     1      -8.198   5.332  66.713  1.00  0.00    -0.108 A  
ENDBRANCH   8  31
ENDBRANCH   5   8
TORSDOF 10
ENDMDL
MODEL        2
REMARK 921   NORMALIZED FREE ENERGY PREDICTED BY IDOCK:   -6.56 KCAL/MOL
REMARK 922        TOTAL FREE ENERGY PREDICTED BY IDOCK:  -11.74 KCAL/MOL
REMARK 923 INTER-LIGAND FREE ENERGY PREDICTED BY IDOCK:  -10.26 KCAL/MOL
REMARK 924 INTRA-LIGAND FREE ENERGY PREDICTED BY IDOCK:   -1.48 KCAL/MOL
REMARK 927      BINDING AFFINITY PREDICTED BY RF-SCORE:    0.00 PKD
ROOT
HETATM    1  F   UNL     1      -6.337   6.699  64.922  1.00  0.00    -0.035 F  
HETATM    2  C   UNL     1      -7.131   7.363  65.771  1.00  0.00    -0.065 A  
HETATM    3  C   UNL     1      -8.481   7.509  65.475  1.00  0.00    -0.129 A  
HETATM    4  C   UNL     1      -9.307   8.227  66.344  1.00  0.00    -0.274 A  
HETATM    5  C   UNL     1      -8.788   8.801  67.520  1.00  0.00    -0.139 A  
HETATM    6  C   UNL     1      -7.425   8.602  67.815  1.00  0.00    -0.097 A  
HETATM    7  C   UNL     1      -6.598   7.893  66.938  1.00  0.00    -0.059 A  
ENDROOT
BRANCH   5   8
HETATM    8  C   UNL     1      -9.704   9.619  68.450  1.00  0.00    -0.150 C  
BRANCH   8   9
HETATM    9  N   UNL     1     -10.845  10.234  67.714  1.00  0.00    -0.273 NA 
HETATM   10  C   UNL     1     -10.421  11.310  66.761  1.00  0.00    -0.248 C  
HETATM   11  C   UNL     1     -10.131  12.720  67.355  1.00  0.00    -0.219 C  
HETATM   12  C   UNL     1     -11.889  10.815  68.602  1.00  0.00    -0.138 C  
HETATM   13  C   UNL     1     -11.526  12.160  69.268  1.00  0.00    -0.302 C  
HETATM   14  N   UNL     1     -11.253  13.136  68.208  1.00  0.00    -0.257 NA 
BRANCH  14  15
HETATM   15  C   UNL     1     -11.123  14.455  68.647  1.00  0.00    -0.251 A  
HETATM   16  N   UNL     1     -10.624  15.353  67.811  1.00  0.00    -0.267 NA 
HETATM   17  C   UNL     1     -10.488  16.583  68.277  1.00  0.00    -0.313 A  
HETATM   18  N   UNL     1     -11.501  14.746  69.889  1.00  0.00    -0.269 NA 
HETATM   19  N   UNL     1     -10.773  16.942  69.518  1.00  0.00    -0.293 NA 
HETATM   20  C   UNL     1     -11.315  16.003  70.280  1.00  0.00    -0.382 A  
BRANCH  17  21
HETATM   21  N   UNL     1     -10.091  17.596  67.424  1.00  0.00    -0.318 NA 
HETATM   22  H   UNL     1     -10.057  17.457  66.414  1.00  0.00     0.000 HD 
BRANCH  21  23
HETATM   23  C   UNL     1      -9.730  18.855  68.021  1.00  0.00    -0.337 C  
BRANCH  23  24
HETATM   24  C   UNL     1     -10.303  19.916  67.136  1.00  0.00    -0.581 C  
HETATM   25  C   UNL     1     -10.660  19.741  65.855  1.00  0.00    -0.557 C  
ENDBRANCH  23  24
ENDBRANCH  21  23
ENDBRANCH  17  21
BRANCH  20  26
HETATM   26  N   UNL     1     -11.788  16.442  71.503  1.00  0.00    -0.663 NA 
HETATM   27  H   UNL     1     -11.989  17.431  71.652  1.00  0.00     0.000 HD 
BRANCH  26  28
HETATM   28  C   UNL     1     -11.994  15.488  72.564  1.00  0.00    -0.455 C  
BRANCH  28  29
HETATM   29  C   UNL     1     -13.478  15.285  72.731  1.00  0.00    -0.619 C  
HETATM   30  C   UNL     1     -14.170  14.241  72.252  1.00  0.00    -0.587 C  
ENDBRANCH  28  29
ENDBRANCH  26  28
ENDBRANCH  20  26
ENDBRANCH  14  15
ENDBRANCH   8   9
BRANCH   8  31
HETATM   31  C   UNL     1     -10.120   8.753  69.665  1.00  0.00    -0.204 A  
HETATM   32  C   UNL     1     -10.944   7.293  71.921  1.00  0.00    -0.230 A  
HETATM   33  C   UNL     1     -11.253   6.833  70.651  1.00  0.00    -0.361 A  
HETATM   34  F   UNL     1     -11.377   6.619  72.996  1.00  0.00    -0.257 F  
HETATM   35  C   UNL     1      -9.782   9.174  70.965  1.00  0.00    -0.359 A  
HETATM   36  C   UNL     1     -10.832   7.551  69.527  1.00  0.00    -0.184 A  
HETATM   37  C   UNL     1     -10.198   8.450  72.089  1.00  0.00    -0.390 A  
ENDBRANCH   8  31
ENDBRANCH   5   8
TORSDOF 10
ENDMDL
MODEL        3
REMARK 921   NORMALIZED FREE ENERGY PREDICTED BY IDOCK:   -6.55 KCAL/MOL
REMARK 922        TOTAL FREE ENERGY PREDICTED BY IDOCK:  -11.72 KCAL/MOL
REMARK 923 INTER-LIGAND FREE ENERGY PREDICTED BY IDOCK:  -10.29 KCAL/MOL
REMARK 924 INTRA-LIGAND FREE ENERGY PREDICTED BY IDOCK:   -1.42 KCAL/MOL
REMARK 927      BINDING AFFINITY PREDICTED BY RF-SCORE:    0.00 PKD
ROOT
HETATM    1  F   UNL     1     -11.531   4.963  73.790  1.00  0.00    -0.361 F  
HETATM    2  C   UNL     1     -11.218   5.521  72.614  1.00  0.00    -0.295 A  
HETATM    3  C   UNL     1      -9.958   5.307  72.069  1.00  0.00    -0.238 A  
HETATM    4  C   UNL     1      -9.616   5.912  70.856  1.00  0.00    -0.202 A  
HETATM    5  C   UNL     1     -10.537   6.734  70.177  1.00  0.00    -0.254 A  
HETATM    6  C   UNL     1     -11.820   6.900  70.734  1.00  0.00    -0.427 A  
HETATM    7  C   UNL     1     -12.156   6.302  71.953  1.00  0.00    -0.311 A  
ENDROOT
BRANCH   5   8
HETATM    8  C   UNL     1     -10.133   7.421  68.860  1.00  0.00    -0.186 C  
BRANCH   8   9
HETATM    9  N   UNL     1      -9.062   8.438  69.063  1.00  0.00    -0.147 NA 
HETATM   10  C   UNL     1      -9.398   9.447  70.118  1.00  0.00    -0.241 C  
HETATM   11  C   UNL     1     -10.340  10.619  69.714  1.00  0.00    -0.100 C  
HETATM   12  C   UNL     1      -8.705   9.189  67.828  1.00  0.00    -0.121 C  
HETATM   13  C   UNL     1      -9.718  10.268  67.388  1.00  0.00    -0.160 C  
HETATM   14  N   UNL     1      -9.850  11.243  68.477  1.00  0.00    -0.192 NA 
BRANCH  14  15
HETATM   15  C   UNL     1     -10.563  12.396  68.147  1.00  0.00    -0.216 A  
HETATM   16  N   UNL     1     -11.253  13.007  69.098  1.00  0.00    -0.258 NA 
HETATM   17  C   UNL     1     -11.941  14.077  68.736  1.00  0.00    -0.347 A  
HETATM   18  N   UNL     1     -10.522  12.823  66.887  1.00  0.00    -0.240 NA 
HETATM   19  N   UNL     1     -12.011  14.529  67.494  1.00  0.00    -0.369 NA 
HETATM   20  C   UNL     1     -11.255  13.897  66.607  1.00  0.00    -0.320 A  
BRANCH  17  21
HETATM   21  N   UNL     1     -12.581  14.834  69.698  1.00  0.00    -0.579 NA 
HETATM   22  H   UNL     1     -13.593  14.791  69.823  1.00  0.00     0.000 HD 
BRANCH  21  23
HETATM   23  C   UNL     1     -11.760  15.686  70.518  1.00  0.00    -0.366 C  
BRANCH  23  24
HETATM   24  C   UNL     1     -11.961  15.228  71.928  1.00  0.00    -0.472 C  
HETATM   25  C   UNL     1     -12.193  16.034  72.974  1.00  0.00    -0.637 C  
ENDBRANCH  23  24
ENDBRANCH  21  23
ENDBRANCH  17  21
BRANCH  20  26
HETATM   26  N   UNL     1     -11.185  14.498  65.364  1.00  0.00    -0.329 NA 
HETATM   27  H   UNL     1     -10.375  15.066  65.111  1.00  0.00     0.000 HD 
BRANCH  26  28
HETATM   28  C   UNL     1     -12.267  14.315  64.429  1.00  0.00    -0.447 C  
BRANCH  28  29
HETATM   29  C   UNL     1     -11.911  13.168  63.519  1.00  0.00    -0.580 C  
HETATM   30  C   UNL     1     -12.527  11.977  63.506  1.00  0.00    -0.654 C  
ENDBRANCH  28  29
ENDBRANCH  26  28
ENDBRANCH  20  26
ENDBRANCH  14  15
ENDBRANCH   8   9
BRANCH   8  31
HETATM   31  C   UNL     1      -9.802   6.349  67.793  1.00  0.00    -0.136 A  
HETATM   32  C   UNL     1      -9.255   4.488  65.758  1.00  0.00    -0.146 A  
HETATM   33  C   UNL     1      -8.227   4.951  66.565  1.00  0.00    -0.107 A  
HETATM   34  F   UNL     1      -8.985   3.635  64.760  1.00  0.00    -0.112 F  
HETATM   35  C   UNL     1     -10.834   5.829  66.988  1.00  0.00    -0.328 A  
HETATM   36  C   UNL     1      -8.500   5.866  67.586  1.00  0.00    -0.103 A  
HETATM   37  C   UNL     1     -10.560   4.907  65.970  1.00  0.00    -0.312 A  
ENDBRANCH   8  31
ENDBRANCH   5   8
TORSDOF 10
ENDMDL
MODEL        4
REMARK 921   NORMALIZED FREE ENERGY PREDICTED BY IDOCK:   -6.54 KCAL/MOL
REMARK 922        TOTAL FREE ENERGY PREDICTED BY IDOCK:  -11.70 KCAL/MOL
REMARK 923 INTER-LIGAND FREE ENERGY PREDICTED BY IDOCK:  -10.32 KCAL/MOL
REMARK 924 INTRA-LIGAND FREE ENERGY PREDICTED BY IDOCK:   -1.38 KCAL/MOL
REMARK 927      BINDING AFFINITY PREDICTED BY RF-SCORE:    0.00 PKD
ROOT
HETATM    1  F   UNL     1      -6.031   6.356  65.350  1.00  0.00    -0.026 F  
HETATM    2  C   UNL     1      -6.870   7.126  66.054  1.00  0.00    -0.057 A  
HETATM    3  C   UNL     1      -6.450   7.671  67.261  1.00  0.00    -0.058 A  
HETATM    4  C   UNL     1      -7.333   8.450  68.014  1.00  0.00    -0.096 A  
HETATM    5  C   UNL     1      -8.644   8.693  67.561  1.00  0.00    -0.135 A  
HETATM    6  C   UNL     1      -9.029   8.160  66.315  1.00  0.00    -0.215 A  
HETATM    7  C   UNL     1      -8.147   7.371  65.569  1.00  0.00    -0.131 A  
ENDROOT
BRANCH   5   8
HETATM    8  C   UNL     1      -9.616   9.523  68.419  1.00  0.00    -0.142 C  
BRANCH   8   9
HETATM    9  N   UNL     1     -10.659  10.196  67.593  1.00  0.00    -0.245 NA 
HETATM   10  C   UNL     1     -10.116  11.305  66.745  1.00  0.00    -0.219 C  
HETATM   11  C   UNL     1      -9.870  12.680  67.435  1.00  0.00    -0.205 C  
HETATM   12  C   UNL     1     -11.785  10.757  68.389  1.00  0.00    -0.158 C  
HETATM   13  C   UNL     1     -11.476  12.062  69.155  1.00  0.00    -0.300 C  
HETATM   14  N   UNL     1     -11.072  13.081  68.179  1.00  0.00    -0.243 NA 
BRANCH  14  15
HETATM   15  C   UNL     1     -10.970  14.374  68.692  1.00  0.00    -0.250 A  
HETATM   16  N   UNL     1     -11.602  14.658  69.821  1.00  0.00    -0.280 NA 
HETATM   17  C   UNL     1     -11.506  15.904  70.256  1.00  0.00    -0.366 A  
HETATM   18  N   UNL     1     -10.247  15.265  68.017  1.00  0.00    -0.229 NA 
HETATM   19  N   UNL     1     -10.866  16.867  69.612  1.00  0.00    -0.226 NA 
HETATM   20  C   UNL     1     -10.216  16.496  68.518  1.00  0.00    -0.266 A  
BRANCH  17  21
HETATM   21  N   UNL     1     -12.035  16.239  71.488  1.00  0.00    -0.650 NA 
HETATM   22  H   UNL     1     -11.580  16.921  72.094  1.00  0.00     0.000 HD 
BRANCH  21  23
HETATM   23  C   UNL     1     -13.256  15.584  71.879  1.00  0.00    -0.464 C  
BRANCH  23  24
HETATM   24  C   UNL     1     -12.997  14.992  73.229  1.00  0.00    -0.642 C  
HETATM   25  C   UNL     1     -12.396  15.626  74.245  1.00  0.00    -0.813 C  
ENDBRANCH  23  24
ENDBRANCH  21  23
ENDBRANCH  17  21
BRANCH  20  26
HETATM   26  N   UNL     1      -9.395  17.464  67.970  1.00  0.00    -0.269 NA 
HETATM   27  H   UNL     1      -8.590  17.195  67.403  1.00  0.00     0.000 HD 
BRANCH  26  28
HETATM   28  C   UNL     1      -9.687  18.856  68.207  1.00  0.00    -0.361 C  
BRANCH  28  29
HETATM   29  C   UNL     1     -10.731  19.292  67.212  1.00  0.00    -0.594 C  
HETATM   30  C   UNL     1     -10.472  19.853  66.022  1.00  0.00    -0.580 C  
ENDBRANCH  28  29
ENDBRANCH  26  28
ENDBRANCH  20  26
ENDBRANCH  14  15
ENDBRANCH   8   9
BRANCH   8  31
HETATM   31  C   UNL     1     -10.177   8.648  69.566  1.00  0.00    -0.209 A  
HETATM   32  C   UNL     1     -11.279   7.164  71.685  1.00  0.00    -0.244 A  
HETATM   33  C   UNL     1     -11.331   6.665  70.393  1.00  0.00    -0.421 A  
HETATM   34  F   UNL     1     -11.845   6.476  72.687  1.00  0.00    -0.279 F  
HETATM   35  C   UNL     1     -10.100   9.110  70.894  1.00  0.00    -0.356 A  
HETATM   36  C   UNL     1     -10.771   7.395  69.340  1.00  0.00    -0.220 A  
HETATM   37  C   UNL     1     -10.654   8.374  71.948  1.00  0.00    -0.370 A  
ENDBRANCH   8  31
ENDBRANCH   5   8
TORSDOF 10
ENDMDL
MODEL        5
REMARK 921   NORMALIZED FREE ENERGY PREDICTED BY IDOCK:   -6.53 KCAL/MOL
REMARK 922        TOTAL FREE ENERGY PREDICTED BY IDOCK:  -11.69 KCAL/MOL
REMARK 923 INTER-LIGAND FREE ENERGY PREDICTED BY IDOCK:  -10.33 KCAL/MOL
REMARK 924 INTRA-LIGAND FREE ENERGY PREDICTED BY IDOCK:   -1.36 KCAL/MOL
REMARK 927      BINDING AFFINITY PREDICTED BY RF-SCORE:    0.00 PKD
ROOT
HETATM    1  F   UNL     1      -5.562   9.447  63.016  1.00  0.00    -0.077 F  
HETATM    2  C   UNL     1      -6.455   9.543  64.009  1.00  0.00    -0.100 A  
HETATM    3  C   UNL     1      -7.667   8.871  63.908  1.00  0.00    -0.129 A  
HETATM    4  C   UNL     1      -8.614   8.993  64.928  1.00  0.00    -0.206 A  
HETATM    5  C   UNL     1      -8.352   9.788  66.061  1.00  0.00    -0.123 A  
HETATM    6  C   UNL     1      -7.100  10.426  66.154  1.00  0.00    -0.130 A  
HETATM    7  C   UNL     1      -6.158  10.310  65.127  1.00  0.00    -0.130 A  
ENDROOT
BRANCH   5   8
HETATM    8  C   UNL     1      -9.420   9.941  67.160  1.00  0.00    -0.158 C  
BRANCH   8   9
HETATM    9  N   UNL     1     -10.652  10.612  66.657  1.00  0.00    -0.236 NA 
HETATM   10  C   UNL     1     -10.367  11.839  65.846  1.00  0.00    -0.241 C  
HETATM   11  C   UNL     1     -10.050  13.152  66.622  1.00  0.00    -0.264 C  
HETATM   12  C   UNL     1     -11.606  11.002  67.731  1.00  0.00    -0.194 C  
HETATM   13  C   UNL     1     -11.207  12.242  68.559  1.00  0.00    -0.271 C  
HETATM   14  N   UNL     1     -11.080  13.382  67.644  1.00  0.00    -0.258 NA 
BRANCH  14  15
HETATM   15  C   UNL     1     -10.938  14.622  68.269  1.00  0.00    -0.252 A  
HETATM   16  N   UNL     1     -10.271  15.575  67.637  1.00  0.00    -0.252 NA 
HETATM   17  C   UNL     1     -10.131  16.724  68.279  1.00  0.00    -0.274 A  
HETATM   18  N   UNL     1     -11.474  14.783  69.477  1.00  0.00    -0.282 NA 
HETATM   19  N   UNL     1     -10.572  16.946  69.507  1.00  0.00    -0.305 NA 
HETATM   20  C   UNL     1     -11.272  15.964  70.055  1.00  0.00    -0.353 A  
BRANCH  17  21
HETATM   21  N   UNL     1      -9.556  17.801  67.631  1.00  0.00    -0.262 NA 
HETATM   22  H   UNL     1      -9.085  17.692  66.733  1.00  0.00     0.000 HD 
BRANCH  21  23
HETATM   23  C   UNL     1      -9.651  19.084  68.278  1.00  0.00    -0.355 C  
BRANCH  23  24
HETATM   24  C   UNL     1     -10.419  19.966  67.344  1.00  0.00    -0.542 C  
HETATM   25  C   UNL     1     -10.581  19.742  66.033  1.00  0.00    -0.573 C  
ENDBRANCH  23  24
ENDBRANCH  21  23
ENDBRANCH  17  21
BRANCH  20  26
HETATM   26  N   UNL     1     -11.891  16.282  71.249  1.00  0.00    -0.636 NA 
HETATM   27  H   UNL     1     -11.554  17.064  71.812  1.00  0.00     0.000 HD 
BRANCH  26  28
HETATM   28  C   UNL     1     -13.017  15.498  71.692  1.00  0.00    -0.464 C  
BRANCH  28  29
HETATM   29  C   UNL     1     -13.270  15.818  73.143  1.00  0.00    -0.694 C  
HETATM   30  C   UNL     1     -12.503  15.410  74.165  1.00  0.00    -0.785 C  
ENDBRANCH  28  29
ENDBRANCH  26  28
ENDBRANCH  20  26
ENDBRANCH  14  15
ENDBRANCH   8   9
BRANCH   8  31
HETATM   31  C   UNL     1      -9.671   8.571  67.838  1.00  0.00    -0.193 A  
HETATM   32  C   UNL     1     -10.175   6.152  69.179  1.00  0.00    -0.194 A  
HETATM   33  C   UNL     1     -10.738   6.381  67.933  1.00  0.00    -0.372 A  
HETATM   34  F   UNL     1     -10.454   5.017  69.836  1.00  0.00    -0.334 F  
HETATM   35  C   UNL     1      -9.077   8.294  69.084  1.00  0.00    -0.148 A  
HETATM   36  C   UNL     1     -10.477   7.578  67.258  1.00  0.00    -0.391 A  
HETATM   37  C   UNL     1      -9.334   7.092  69.755  1.00  0.00    -0.146 A  
ENDBRANCH   8  31
ENDBRANCH   5   8
TORSDOF 10
ENDMDL
MODEL        6
REMARK 921   NORMALIZED FREE ENERGY PREDICTED BY IDOCK:   -6.50 KCAL/MOL
REMARK 922        TOTAL FREE ENERGY PREDICTED BY IDOCK:  -11.64 KCAL/MOL
REMARK 923 INTER-LIGAND FREE ENERGY PREDICTED BY IDOCK:  -10.15 KCAL/MOL
REMARK 924 INTRA-LIGAND FREE ENERGY PREDICTED BY IDOCK:   -1.49 KCAL/MOL
REMARK 927      BINDING AFFINITY PREDICTED BY RF-SCORE:    0.00 PKD
ROOT
HETATM    1  F   UNL     1      -8.366   6.646  64.804  1.00  0.00    -0.138 F  
HETATM    2  C   UNL     1      -8.739   7.523  65.745  1.00  0.00    -0.118 A  
HETATM    3  C   UNL     1      -9.929   7.325  66.434  1.00  0.00    -0.094 A  
HETATM    4  C   UNL     1     -10.336   8.254  67.395  1.00  0.00    -0.350 A  
HETATM    5  C   UNL     1      -9.550   9.388  67.678  1.00  0.00    -0.163 A  
HETATM    6  C   UNL     1      -8.329   9.542  66.992  1.00  0.00    -0.124 A  
HETATM    7  C   UNL     1      -7.929   8.616  66.023  1.00  0.00    -0.107 A  
ENDROOT
BRANCH   5   8
HETATM    8  C   UNL     1     -10.030  10.421  68.714  1.00  0.00    -0.188 C  
BRANCH   8   9
HETATM    9  N   UNL     1     -11.195  11.210  68.223  1.00  0.00    -0.254 NA 
HETATM   10  C   UNL     1     -11.097  11.566  66.771  1.00  0.00    -0.302 C  
HETATM   11  C   UNL     1     -10.200  12.781  66.391  1.00  0.00    -0.253 C  
HETATM   12  C   UNL     1     -11.424  12.474  68.976  1.00  0.00    -0.304 C  
HETATM   13  C   UNL     1     -10.445  13.626  68.659  1.00  0.00    -0.234 C  
HETATM   14  N   UNL     1     -10.551  13.936  67.229  1.00  0.00    -0.274 NA 
BRANCH  14  15
HETATM   15  C   UNL     1      -9.888  15.098  66.832  1.00  0.00    -0.237 A  
HETATM   16  N   UNL     1     -10.607  16.104  66.357  1.00  0.00    -0.297 NA 
HETATM   17  C   UNL     1      -9.937  17.174  65.962  1.00  0.00    -0.253 A  
HETATM   18  N   UNL     1      -8.562  15.137  66.943  1.00  0.00    -0.242 NA 
HETATM   19  N   UNL     1      -8.617  17.270  65.974  1.00  0.00    -0.530 NA 
HETATM   20  C   UNL     1      -7.970  16.245  66.509  1.00  0.00    -0.291 A  
BRANCH  17  21
HETATM   21  N   UNL     1     -10.629  18.307  65.574  1.00  0.00    -0.576 NA 
HETATM   22  H   UNL     1     -11.437  18.250  64.955  1.00  0.00     0.000 HD 
BRANCH  21  23
HETATM   23  C   UNL     1     -10.159  19.570  66.081  1.00  0.00    -0.469 C  
BRANCH  23  24
HETATM   24  C   UNL     1     -10.721  19.699  67.462  1.00  0.00    -0.537 C  
HETATM   25  C   UNL     1      -9.993  19.803  68.583  1.00  0.00    -0.535 C  
ENDBRANCH  23  24
ENDBRANCH  21  23
ENDBRANCH  17  21
BRANCH  20  26
HETATM   26  N   UNL     1      -6.614  16.443  66.694  1.00  0.00    -0.258 NA 
HETATM   27  H   UNL     1      -5.953  16.214  65.951  1.00  0.00     0.000 HD 
BRANCH  26  28
HETATM   28  C   UNL     1      -6.143  16.975  67.950  1.00  0.00    -0.133 C  
BRANCH  28  29
HETATM   29  C   UNL     1      -5.533  18.327  67.686  1.00  0.00    -0.150 C  
HETATM   30  C   UNL     1      -6.132  19.502  67.928  1.00  0.00    -0.230 C  
ENDBRANCH  28  29
ENDBRANCH  26  28
ENDBRANCH  20  26
ENDBRANCH  14  15
ENDBRANCH   8   9
BRANCH   8  31
HETATM   31  C   UNL     1     -10.261   9.723  70.077  1.00  0.00    -0.308 A  
HETATM   32  C   UNL     1     -10.767   8.366  72.487  1.00  0.00    -0.302 A  
HETATM   33  C   UNL     1      -9.465   8.498  72.030  1.00  0.00    -0.364 A  
HETATM   34  F   UNL     1     -11.009   7.680  73.614  1.00  0.00    -0.411 F  
HETATM   35  C   UNL     1     -11.568   9.612  70.588  1.00  0.00    -0.371 A  
HETATM   36  C   UNL     1      -9.210   9.185  70.838  1.00  0.00    -0.326 A  
HETATM   37  C   UNL     1     -11.820   8.931  71.785  1.00  0.00    -0.429 A  
ENDBRANCH   8  31
ENDBRANCH   5   8
TORSDOF 10
ENDMDL
MODEL        7
REMARK 921   NORMALIZED FREE ENERGY PREDICTED BY IDOCK:   -6.44 KCAL/MOL
REMARK 922        TOTAL FREE ENERGY PREDICTED BY IDOCK:  -11.55 KCAL/MOL
REMARK 923 INTER-LIGAND FREE ENERGY PREDICTED BY IDOCK:  -10.12 KCAL/MOL
REMARK 924 INTRA-LIGAND FREE ENERGY PREDICTED BY IDOCK:   -1.43 KCAL/MOL
REMARK 927      BINDING AFFINITY PREDICTED BY RF-SCORE:    0.00 PKD
ROOT
HETATM    1  F   UNL     1      -5.204   6.518  67.190  1.00  0.00    -0.007 F  
HETATM    2  C   UNL     1      -6.242   7.265  67.590  1.00  0.00    -0.046 A  
HETATM    3  C   UNL     1      -6.130   8.033  68.743  1.00  0.00    -0.040 A  
HETATM    4  C   UNL     1      -7.221   8.789  69.180  1.00  0.00    -0.067 A  
HETATM    5  C   UNL     1      -8.432   8.787  68.461  1.00  0.00    -0.130 A  
HETATM    6  C   UNL     1      -8.503   8.031  67.275  1.00  0.00    -0.125 A  
HETATM    7  C   UNL     1      -7.413   7.265  66.846  1.00  0.00    -0.097 A  
ENDROOT
BRANCH   5   8
HETATM    8  C   UNL     1      -9.636   9.598  68.975  1.00  0.00    -0.168 C  
BRANCH   8   9
HETATM    9  N   UNL     1     -10.371  10.273  67.868  1.00  0.00    -0.183 NA 
HETATM   10  C   UNL     1      -9.550  11.309  67.160  1.00  0.00    -0.177 C  
HETATM   11  C   UNL     1      -9.421  12.705  67.837  1.00  0.00    -0.204 C  
HETATM   12  C   UNL     1     -11.636  10.929  68.299  1.00  0.00    -0.262 C  
HETATM   13  C   UNL     1     -11.470  12.257  69.070  1.00  0.00    -0.297 C  
HETATM   14  N   UNL     1     -10.755  13.201  68.205  1.00  0.00    -0.235 NA 
BRANCH  14  15
HETATM   15  C   UNL     1     -10.720  14.514  68.676  1.00  0.00    -0.253 A  
HETATM   16  N   UNL     1     -11.353  14.798  69.804  1.00  0.00    -0.272 NA 
HETATM   17  C   UNL     1     -11.322  16.060  70.198  1.00  0.00    -0.365 A  
HETATM   18  N   UNL     1     -10.057  15.422  67.963  1.00  0.00    -0.225 NA 
HETATM   19  N   UNL     1     -10.746  17.037  69.515  1.00  0.00    -0.245 NA 
HETATM   20  C   UNL     1     -10.091  16.669  68.424  1.00  0.00    -0.268 A  
BRANCH  17  21
HETATM   21  N   UNL     1     -11.853  16.404  71.427  1.00  0.00    -0.648 NA 
HETATM   22  H   UNL     1     -12.227  17.337  71.602  1.00  0.00     0.000 HD 
BRANCH  21  23
HETATM   23  C   UNL     1     -11.857  15.390  72.448  1.00  0.00    -0.459 C  
BRANCH  23  24
HETATM   24  C   UNL     1     -13.296  15.102  72.744  1.00  0.00    -0.596 C  
HETATM   25  C   UNL     1     -13.963  14.013  72.337  1.00  0.00    -0.622 C  
ENDBRANCH  23  24
ENDBRANCH  21  23
ENDBRANCH  17  21
BRANCH  20  26
HETATM   26  N   UNL     1      -9.333  17.663  67.834  1.00  0.00    -0.262 NA 
HETATM   27  H   UNL     1      -8.870  17.496  66.939  1.00  0.00     0.000 HD 
BRANCH  26  28
HETATM   28  C   UNL     1      -9.202  18.938  68.495  1.00  0.00    -0.361 C  
BRANCH  28  29
HETATM   29  C   UNL     1      -9.703  20.006  67.558  1.00  0.00    -0.539 C  
HETATM   30  C   UNL     1     -10.217  19.781  66.340  1.00  0.00    -0.614 C  
ENDBRANCH  28  29
ENDBRANCH  26  28
ENDBRANCH  20  26
ENDBRANCH  14  15
ENDBRANCH   8   9
BRANCH   8  31
HETATM   31  C   UNL     1     -10.522   8.702  69.876  1.00  0.00    -0.221 A  
HETATM   32  C   UNL     1     -12.031   6.978  71.504  1.00  0.00    -0.334 A  
HETATM   33  C   UNL     1     -11.700   8.244  71.960  1.00  0.00    -0.407 A  
HETATM   34  F   UNL     1     -12.713   6.141  72.300  1.00  0.00    -0.340 F  
HETATM   35  C   UNL     1     -10.909   7.427  69.420  1.00  0.00    -0.184 A  
HETATM   36  C   UNL     1     -10.962   9.108  71.146  1.00  0.00    -0.390 A  
HETATM   37  C   UNL     1     -11.656   6.567  70.234  1.00  0.00    -0.473 A  
ENDBRANCH   8  31
ENDBRANCH   5   8
TORSDOF 10
ENDMDL
MODEL        8
REMARK 921   NORMALIZED FREE ENERGY PREDICTED BY IDOCK:   -6.40 KCAL/MOL
REMARK 922        TOTAL FREE ENERGY PREDICTED BY IDOCK:  -11.49 KCAL/MOL
REMARK 923 INTER-LIGAND FREE ENERGY PREDICTED BY IDOCK:  -10.40 KCAL/MOL
REMARK 924 INTRA-LIGAND FREE ENERGY PREDICTED BY IDOCK:   -1.09 KCAL/MOL
REMARK 927      BINDING AFFINITY PREDICTED BY RF-SCORE:    0.00 PKD
ROOT
HETATM    1  F   UNL     1     -11.364   4.710  74.023  1.00  0.00    -0.318 F  
HETATM    2  C   UNL     1     -11.100   5.382  72.895  1.00  0.00    -0.305 A  
HETATM    3  C   UNL     1     -12.116   6.092  72.267  1.00  0.00    -0.237 A  
HETATM    4  C   UNL     1     -11.851   6.769  71.074  1.00  0.00    -0.427 A  
HETATM    5  C   UNL     1     -10.565   6.744  70.502  1.00  0.00    -0.260 A  
HETATM    6  C   UNL     1      -9.546   6.049  71.182  1.00  0.00    -0.195 A  
HETATM    7  C   UNL     1      -9.815   5.362  72.371  1.00  0.00    -0.195 A  
ENDROOT
BRANCH   5   8
HETATM    8  C   UNL     1     -10.298   7.466  69.168  1.00  0.00    -0.208 C  
BRANCH   8   9
HETATM    9  N   UNL     1      -9.303   8.566  69.314  1.00  0.00    -0.153 NA 
HETATM   10  C   UNL     1      -9.819   9.727  70.109  1.00  0.00    -0.255 C  
HETATM   11  C   UNL     1     -10.739  10.746  69.373  1.00  0.00    -0.233 C  
HETATM   12  C   UNL     1      -8.806   9.102  68.017  1.00  0.00    -0.129 C  
HETATM   13  C   UNL     1      -9.787  10.020  67.255  1.00  0.00    -0.181 C  
HETATM   14  N   UNL     1     -10.104  11.165  68.116  1.00  0.00    -0.173 NA 
BRANCH  14  15
HETATM   15  C   UNL     1     -10.807  12.193  67.486  1.00  0.00    -0.243 A  
HETATM   16  N   UNL     1     -10.688  13.424  67.961  1.00  0.00    -0.242 NA 
HETATM   17  C   UNL     1     -11.396  14.362  67.354  1.00  0.00    -0.337 A  
HETATM   18  N   UNL     1     -11.570  11.886  66.439  1.00  0.00    -0.501 NA 
HETATM   19  N   UNL     1     -12.230  14.133  66.353  1.00  0.00    -0.459 NA 
HETATM   20  C   UNL     1     -12.258  12.887  65.900  1.00  0.00    -0.407 A  
BRANCH  17  21
HETATM   21  N   UNL     1     -11.225  15.686  67.717  1.00  0.00    -0.322 NA 
HETATM   22  H   UNL     1     -11.738  16.093  68.498  1.00  0.00     0.000 HD 
BRANCH  21  23
HETATM   23  C   UNL     1     -10.293  16.464  66.943  1.00  0.00    -0.300 C  
BRANCH  23  24
HETATM   24  C   UNL     1     -10.523  17.891  67.327  1.00  0.00    -0.373 C  
HETATM   25  C   UNL     1     -10.205  18.431  68.513  1.00  0.00    -0.394 C  
ENDBRANCH  23  24
ENDBRANCH  21  23
ENDBRANCH  17  21
BRANCH  20  26
HETATM   26  N   UNL     1     -12.979  12.705  64.735  1.00  0.00    -0.867 NA 
HETATM   27  H   UNL     1     -13.925  13.080  64.650  1.00  0.00     0.000 HD 
BRANCH  26  28
HETATM   28  C   UNL     1     -12.382  11.980  63.641  1.00  0.00    -0.539 C  
BRANCH  28  29
HETATM   29  C   UNL     1     -10.972  12.480  63.460  1.00  0.00    -0.472 C  
HETATM   30  C   UNL     1      -9.902  11.702  63.246  1.00  0.00    -0.428 C  
ENDBRANCH  28  29
ENDBRANCH  26  28
ENDBRANCH  20  26
ENDBRANCH  14  15
ENDBRANCH   8   9
BRANCH   8  31
HETATM   31  C   UNL     1      -9.945   6.427  68.075  1.00  0.00    -0.144 A  
HETATM   32  C   UNL     1      -9.317   4.642  65.995  1.00  0.00    -0.156 A  
HETATM   33  C   UNL     1      -8.433   4.813  67.049  1.00  0.00    -0.105 A  
HETATM   34  F   UNL     1      -8.994   3.825  64.982  1.00  0.00    -0.117 F  
HETATM   35  C   UNL     1     -10.844   6.201  67.015  1.00  0.00    -0.435 A  
HETATM   36  C   UNL     1      -8.750   5.690  68.091  1.00  0.00    -0.102 A  
HETATM   37  C   UNL     1     -10.528   5.317  65.976  1.00  0.00    -0.187 A  
ENDBRANCH   8  31
ENDBRANCH   5   8
TORSDOF 10
ENDMDL
MODEL        9
REMARK 921   NORMALIZED FREE ENERGY PREDICTED BY IDOCK:   -6.38 KCAL/MOL
REMARK 922        TOTAL FREE ENERGY PREDICTED BY IDOCK:  -11.45 KCAL/MOL
REMARK 923 INTER-LIGAND FREE ENERGY PREDICTED BY IDOCK:  -10.16 KCAL/MOL
REMARK 924 INTRA-LIGAND FREE ENERGY PREDICTED BY IDOCK:   -1.29 KCAL/MOL
REMARK 927      BINDING AFFINITY PREDICTED BY RF-SCORE:    0.00 PKD
ROOT
HETATM    1  F   UNL     1      -5.633   8.728  63.030  1.00  0.00    -0.067 F  
HETATM    2  C   UNL     1      -6.547   9.036  63.958  1.00  0.00    -0.087 A  
HETATM    3  C   UNL     1      -7.885   9.138  63.595  1.00  0.00    -0.136 A  
HETATM    4  C   UNL     1      -8.838   9.489  64.555  1.00  0.00    -0.249 A  
HETATM    5  C   UNL     1      -8.460   9.737  65.888  1.00  0.00    -0.136 A  
HETATM    6  C   UNL     1      -7.103   9.587  66.235  1.00  0.00    -0.092 A  
HETATM    7  C   UNL     1      -6.149   9.246  65.271  1.00  0.00    -0.063 A  
ENDROOT
BRANCH   5   8
HETATM    8  C   UNL     1      -9.517  10.157  66.926  1.00  0.00    -0.169 C  
BRANCH   8   9
HETATM    9  N   UNL     1     -10.587  11.004  66.326  1.00  0.00    -0.254 NA 
HETATM   10  C   UNL     1     -10.070  12.286  65.747  1.00  0.00    -0.252 C  
HETATM   11  C   UNL     1      -9.790  13.456  66.735  1.00  0.00    -0.265 C  
HETATM   12  C   UNL     1     -11.679  11.355  67.275  1.00  0.00    -0.039 C  
HETATM   13  C   UNL     1     -11.332  12.440  68.318  1.00  0.00    -0.284 C  
HETATM   14  N   UNL     1     -10.960  13.663  67.599  1.00  0.00    -0.263 NA 
BRANCH  14  15
HETATM   15  C   UNL     1     -10.831  14.797  68.402  1.00  0.00    -0.245 A  
HETATM   16  N   UNL     1     -11.365  14.777  69.614  1.00  0.00    -0.271 NA 
HETATM   17  C   UNL     1     -11.248  15.883  70.330  1.00  0.00    -0.378 A  
HETATM   18  N   UNL     1     -10.183  15.849  67.908  1.00  0.00    -0.246 NA 
HETATM   19  N   UNL     1     -10.681  16.995  69.891  1.00  0.00    -0.076 NA 
HETATM   20  C   UNL     1     -10.126  16.924  68.689  1.00  0.00    -0.291 A  
BRANCH  17  21
HETATM   21  N   UNL     1     -11.670  15.891  71.647  1.00  0.00    -0.447 NA 
HETATM   22  H   UNL     1     -11.027  16.103  72.410  1.00  0.00     0.000 HD 
BRANCH  21  23
HETATM   23  C   UNL     1     -13.055  15.588  71.894  1.00  0.00    -0.454 C  
BRANCH  23  24
HETATM   24  C   UNL     1     -13.299  15.901  73.337  1.00  0.00    -0.609 C  
HETATM   25  C   UNL     1     -12.412  15.715  74.326  1.00  0.00    -0.804 C  
ENDBRANCH  23  24
ENDBRANCH  21  23
ENDBRANCH  17  21
BRANCH  20  26
HETATM   26  N   UNL     1      -9.370  18.023  68.328  1.00  0.00    -0.286 NA 
HETATM   27  H   UNL     1      -8.492  17.902  67.821  1.00  0.00     0.000 HD 
BRANCH  26  28
HETATM   28  C   UNL     1      -9.835  19.344  68.674  1.00  0.00    -0.443 C  
BRANCH  28  29
HETATM   29  C   UNL     1      -9.807  20.192  67.429  1.00  0.00    -0.573 C  
HETATM   30  C   UNL     1     -10.531  19.961  66.324  1.00  0.00    -0.590 C  
ENDBRANCH  28  29
ENDBRANCH  26  28
ENDBRANCH  20  26
ENDBRANCH  14  15
ENDBRANCH   8   9
BRANCH   8  31
HETATM   31  C   UNL     1     -10.038   8.906  67.675  1.00  0.00    -0.274 A  
HETATM   32  C   UNL     1     -10.896   6.557  68.960  1.00  0.00    -0.306 A  
HETATM   33  C   UNL     1     -10.423   7.622  69.711  1.00  0.00    -0.232 A  
HETATM   34  F   UNL     1     -11.261   5.422  69.573  1.00  0.00    -0.323 F  
HETATM   35  C   UNL     1     -10.564   7.826  66.940  1.00  0.00    -0.347 A  
HETATM   36  C   UNL     1     -10.009   8.796  69.074  1.00  0.00    -0.197 A  
HETATM   37  C   UNL     1     -10.985   6.654  67.580  1.00  0.00    -0.416 A  
ENDBRANCH   8  31
ENDBRANCH   5   8
TORSDOF 10
ENDMDL
MODEL       10
REMARK 921   NORMALIZED FREE ENERGY PREDICTED BY IDOCK:   -6.32 KCAL/MOL
REMARK 922        TOTAL FREE ENERGY PREDICTED BY IDOCK:  -11.35 KCAL/MOL
REMARK 923 INTER-LIGAND FREE ENERGY PREDICTED BY IDOCK:  -10.62 KCAL/MOL
REMARK 924 INTRA-LIGAND FREE ENERGY PREDICTED BY IDOCK:   -0.73 KCAL/MOL
REMARK 927      BINDING AFFINITY PREDICTED BY RF-SCORE:    0.00 PKD
ROOT
HETATM    1  F   UNL     1      -9.560   8.651  73.046  1.00  0.00    -0.296 F  
HETATM    2  C   UNL     1      -9.737   8.662  71.718  1.00  0.00    -0.291 A  
HETATM    3  C   UNL     1      -8.807   8.034  70.898  1.00  0.00    -0.147 A  
HETATM    4  C   UNL     1      -8.971   8.069  69.511  1.00  0.00    -0.148 A  
HETATM    5  C   UNL     1     -10.072   8.731  68.934  1.00  0.00    -0.210 A  
HETATM    6  C   UNL     1     -11.019   9.325  69.791  1.00  0.00    -0.213 A  
HETATM    7  C   UNL     1     -10.846   9.297  71.179  1.00  0.00    -0.407 A  
ENDROOT
BRANCH   5   8
HETATM    8  C   UNL     1     -10.220   8.792  67.402  1.00  0.00    -0.252 C  
BRANCH   8   9
HETATM    9  N   UNL     1      -9.368   9.854  66.797  1.00  0.00    -0.147 NA 
HETATM   10  C   UNL     1      -8.653  10.689  67.816  1.00  0.00    -0.123 C  
HETATM   11  C   UNL     1      -9.463  11.825  68.506  1.00  0.00    -0.163 C  
HETATM   12  C   UNL     1     -10.111  10.785  65.904  1.00  0.00    -0.256 C  
HETATM   13  C   UNL     1     -10.997  11.829  66.618  1.00  0.00    -0.294 C  
HETATM   14  N   UNL     1     -10.137  12.641  67.486  1.00  0.00    -0.210 NA 
BRANCH  14  15
HETATM   15  C   UNL     1     -10.754  13.767  68.032  1.00  0.00    -0.250 A  
HETATM   16  N   UNL     1     -10.435  14.959  67.550  1.00  0.00    -0.251 NA 
HETATM   17  C   UNL     1     -11.018  16.002  68.117  1.00  0.00    -0.339 A  
HETATM   18  N   UNL     1     -11.630  13.590  69.018  1.00  0.00    -0.288 NA 
HETATM   19  N   UNL     1     -11.847  15.920  69.146  1.00  0.00    -0.378 NA 
HETATM   20  C   UNL     1     -12.157  14.694  69.540  1.00  0.00    -0.295 A  
BRANCH  17  21
HETATM   21  N   UNL     1     -10.828  17.263  67.584  1.00  0.00    -0.297 NA 
HETATM   22  H   UNL     1     -11.084  17.477  66.620  1.00  0.00     0.000 HD 
BRANCH  21  23
HETATM   23  C   UNL     1     -10.252  18.261  68.447  1.00  0.00    -0.380 C  
BRANCH  23  24
HETATM   24  C   UNL     1     -10.314  19.551  67.692  1.00  0.00    -0.574 C  
HETATM   25  C   UNL     1      -9.279  20.124  67.060  1.00  0.00    -0.503 C  
ENDBRANCH  23  24
ENDBRANCH  21  23
ENDBRANCH  17  21
BRANCH  20  26
HETATM   26  N   UNL     1     -13.170  14.620  70.478  1.00  0.00    -0.558 NA 
HETATM   27  H   UNL     1     -13.849  13.859  70.445  1.00  0.00     0.000 HD 
BRANCH  26  28
HETATM   28  C   UNL     1     -13.257  15.630  71.505  1.00  0.00    -0.475 C  
BRANCH  28  29
HETATM   29  C   UNL     1     -12.392  15.199  72.661  1.00  0.00    -0.473 C  
HETATM   30  C   UNL     1     -12.640  15.473  73.950  1.00  0.00    -0.767 C  
ENDBRANCH  28  29
ENDBRANCH  26  28
ENDBRANCH  20  26
ENDBRANCH  14  15
ENDBRANCH   8   9
BRANCH   8  31
HETATM   31  C   UNL     1     -10.004   7.381  66.802  1.00  0.00    -0.300 A  
HETATM   32  C   UNL     1      -9.489   4.813  65.779  1.00  0.00    -0.167 A  
HETATM   33  C   UNL     1     -10.652   5.050  66.494  1.00  0.00    -0.289 A  
HETATM   34  F   UNL     1      -9.224   3.577  65.331  1.00  0.00    -0.131 F  
HETATM   35  C   UNL     1      -8.852   7.122  66.034  1.00  0.00    -0.154 A  
HETATM   36  C   UNL     1     -10.917   6.330  66.992  1.00  0.00    -0.442 A  
HETATM   37  C   UNL     1      -8.593   5.842  65.530  1.00  0.00    -0.151 A  
ENDBRANCH   8  31
ENDBRANCH   5   8
TORSDOF 10
ENDMDL
MODEL       11
REMARK 921   NORMALIZED FREE ENERGY PREDICTED BY IDOCK:   -6.29 KCAL/MOL
REMARK 922        TOTAL FREE ENERGY PREDICTED BY IDOCK:  -11.31 KCAL/MOL
REMARK 923 INTER-LIGAND FREE ENERGY PREDICTED BY IDOCK:  -10.58 KCAL/MOL
REMARK 924 INTRA-LIGAND FREE ENERGY PREDICTED BY IDOCK:   -0.73 KCAL/MOL
REMARK 927      BINDING AFFINITY PREDICTED BY RF-SCORE:    0.00 PKD
ROOT
HETATM    1  F   UNL     1     -12.010   5.379  72.769  1.00  0.00    -0.355 F  
HETATM    2  C   UNL     1     -11.709   6.337  71.882  1.00  0.00    -0.316 A  
HETATM    3  C   UNL     1     -11.480   5.993  70.555  1.00  0.00    -0.227 A  
HETATM    4  C   UNL     1     -11.136   6.985  69.633  1.00  0.00    -0.254 A  
HETATM    5  C   UNL     1     -11.023   8.331  70.032  1.00  0.00    -0.197 A  
HETATM    6  C   UNL     1     -11.300   8.654  71.375  1.00  0.00    -0.350 A  
HETATM    7  C   UNL     1     -11.634   7.658  72.298  1.00  0.00    -0.370 A  
ENDROOT
BRANCH   5   8
HETATM    8  C   UNL     1     -10.608   9.407  69.011  1.00  0.00    -0.213 C  
BRANCH   8   9
HETATM    9  N   UNL     1     -10.294  10.709  69.665  1.00  0.00    -0.190 NA 
HETATM   10  C   UNL     1     -11.454  11.658  69.678  1.00  0.00    -0.288 C  
HETATM   11  C   UNL     1     -11.739  12.458  68.373  1.00  0.00    -0.336 C  
HETATM   12  C   UNL     1      -9.141  11.426  69.052  1.00  0.00     0.084 C  
HETATM   13  C   UNL     1      -9.427  12.114  67.700  1.00  0.00    -0.187 C  
HETATM   14  N   UNL     1     -10.500  13.093  67.902  1.00  0.00    -0.234 NA 
BRANCH  14  15
HETATM   15  C   UNL     1     -10.722  13.950  66.823  1.00  0.00    -0.281 A  
HETATM   16  N   UNL     1     -11.262  13.451  65.721  1.00  0.00    -0.289 NA 
HETATM   17  C   UNL     1     -11.425  14.289  64.711  1.00  0.00    -0.393 A  
HETATM   18  N   UNL     1     -10.371  15.227  66.950  1.00  0.00    -0.272 NA 
HETATM   19  N   UNL     1     -11.042  15.556  64.728  1.00  0.00    -0.430 NA 
HETATM   20  C   UNL     1     -10.556  15.996  65.880  1.00  0.00    -0.328 A  
BRANCH  17  21
HETATM   21  N   UNL     1     -12.096  13.869  63.578  1.00  0.00    -0.969 NA 
HETATM   22  H   UNL     1     -12.489  14.537  62.914  1.00  0.00     0.000 HD 
BRANCH  21  23
HETATM   23  C   UNL     1     -12.216  12.449  63.373  1.00  0.00    -0.523 C  
BRANCH  23  24
HETATM   24  C   UNL     1     -10.831  11.948  63.109  1.00  0.00    -0.294 C  
HETATM   25  C   UNL     1     -10.265  10.894  63.713  1.00  0.00    -0.407 C  
ENDBRANCH  23  24
ENDBRANCH  21  23
ENDBRANCH  17  21
BRANCH  20  26
HETATM   26  N   UNL     1     -10.347  17.361  65.944  1.00  0.00    -0.539 NA 
HETATM   27  H   UNL     1     -10.150  17.892  65.095  1.00  0.00     0.000 HD 
BRANCH  26  28
HETATM   28  C   UNL     1     -10.409  18.026  67.222  1.00  0.00    -0.378 C  
BRANCH  28  29
HETATM   29  C   UNL     1     -10.541  19.506  66.974  1.00  0.00    -0.607 C  
HETATM   30  C   UNL     1      -9.632  20.265  66.347  1.00  0.00    -0.461 C  
ENDBRANCH  28  29
ENDBRANCH  26  28
ENDBRANCH  20  26
ENDBRANCH  14  15
ENDBRANCH   8   9
BRANCH   8  31
HETATM   31  C   UNL     1      -9.478   8.858  68.106  1.00  0.00    -0.155 A  
HETATM   32  C   UNL     1      -7.434   7.980  66.387  1.00  0.00    -0.087 A  
HETATM   33  C   UNL     1      -7.205   8.050  67.753  1.00  0.00    -0.091 A  
HETATM   34  F   UNL     1      -6.443   7.604  65.565  1.00  0.00    -0.040 F  
HETATM   35  C   UNL     1      -9.697   8.735  66.720  1.00  0.00    -0.286 A  
HETATM   36  C   UNL     1      -8.225   8.474  68.610  1.00  0.00    -0.122 A  
HETATM   37  C   UNL     1      -8.676   8.303  65.864  1.00  0.00    -0.187 A  
ENDBRANCH   8  31
ENDBRANCH   5   8
TORSDOF 10
ENDMDL
MODEL       12
REMARK 921   NORMALIZED FREE ENERGY PREDICTED BY IDOCK:   -6.27 KCAL/MOL
REMARK 922        TOTAL FREE ENERGY PREDICTED BY IDOCK:  -11.28 KCAL/MOL
REMARK 923 INTER-LIGAND FREE ENERGY PREDICTED BY IDOCK:  -10.19 KCAL/MOL
REMARK 924 INTRA-LIGAND FREE ENERGY PREDICTED BY IDOCK:   -1.09 KCAL/MOL
REMARK 927      BINDING AFFINITY PREDICTED BY RF-SCORE:    0.00 PKD
ROOT
HETATM    1  F   UNL     1      -9.701   8.634  73.235  1.00  0.00    -0.224 F  
HETATM    2  C   UNL     1      -9.799   8.699  71.901  1.00  0.00    -0.314 A  
HETATM    3  C   UNL     1      -8.755   8.227  71.114  1.00  0.00    -0.176 A  
HETATM    4  C   UNL     1      -8.839   8.321  69.722  1.00  0.00    -0.142 A  
HETATM    5  C   UNL     1      -9.973   8.886  69.107  1.00  0.00    -0.192 A  
HETATM    6  C   UNL     1     -11.032   9.320  69.928  1.00  0.00    -0.231 A  
HETATM    7  C   UNL     1     -10.941   9.234  71.321  1.00  0.00    -0.421 A  
ENDROOT
BRANCH   5   8
HETATM    8  C   UNL     1     -10.036   9.015  67.574  1.00  0.00    -0.207 C  
BRANCH   8   9
HETATM    9  N   UNL     1      -9.041   9.995  67.051  1.00  0.00    -0.141 NA 
HETATM   10  C   UNL     1      -8.395  10.812  68.129  1.00  0.00    -0.120 C  
HETATM   11  C   UNL     1      -9.198  12.025  68.685  1.00  0.00    -0.037 C  
HETATM   12  C   UNL     1      -9.601  10.944  66.050  1.00  0.00    -0.209 C  
HETATM   13  C   UNL     1     -10.488  12.071  66.623  1.00  0.00    -0.215 C  
HETATM   14  N   UNL     1      -9.682  12.850  67.570  1.00  0.00    -0.201 NA 
BRANCH  14  15
HETATM   15  C   UNL     1     -10.277  14.034  68.008  1.00  0.00    -0.238 A  
HETATM   16  N   UNL     1     -11.349  13.955  68.781  1.00  0.00    -0.259 NA 
HETATM   17  C   UNL     1     -11.901  15.100  69.147  1.00  0.00    -0.313 A  
HETATM   18  N   UNL     1      -9.742  15.189  67.619  1.00  0.00    -0.211 NA 
HETATM   19  N   UNL     1     -11.475  16.289  68.750  1.00  0.00    -0.337 NA 
HETATM   20  C   UNL     1     -10.369  16.291  68.019  1.00  0.00    -0.279 A  
BRANCH  17  21
HETATM   21  N   UNL     1     -12.944  15.096  70.053  1.00  0.00    -0.632 NA 
HETATM   22  H   UNL     1     -13.857  14.711  69.812  1.00  0.00     0.000 HD 
BRANCH  21  23
HETATM   23  C   UNL     1     -12.687  15.659  71.354  1.00  0.00    -0.471 C  
BRANCH  23  24
HETATM   24  C   UNL     1     -12.743  14.517  72.320  1.00  0.00    -0.406 C  
HETATM   25  C   UNL     1     -13.665  13.544  72.309  1.00  0.00    -0.700 C  
ENDBRANCH  23  24
ENDBRANCH  21  23
ENDBRANCH  17  21
BRANCH  20  26
HETATM   26  N   UNL     1      -9.828  17.541  67.781  1.00  0.00    -0.276 NA 
HETATM   27  H   UNL     1      -9.315  17.724  66.918  1.00  0.00     0.000 HD 
BRANCH  26  28
HETATM   28  C   UNL     1      -9.996  18.582  68.764  1.00  0.00    -0.380 C  
BRANCH  28  29
HETATM   29  C   UNL     1     -10.247  19.878  68.036  1.00  0.00    -0.572 C  
HETATM   30  C   UNL     1     -10.178  20.039  66.707  1.00  0.00    -0.592 C  
ENDBRANCH  28  29
ENDBRANCH  26  28
ENDBRANCH  20  26
ENDBRANCH  14  15
ENDBRANCH   8   9
BRANCH   8  31
HETATM   31  C   UNL     1      -9.947   7.610  66.928  1.00  0.00    -0.325 A  
HETATM   32  C   UNL     1      -9.662   5.042  65.820  1.00  0.00    -0.141 A  
HETATM   33  C   UNL     1     -10.782   5.347  66.578  1.00  0.00    -0.309 A  
HETATM   34  F   UNL     1      -9.507   3.803  65.331  1.00  0.00    -0.139 F  
HETATM   35  C   UNL     1      -8.841   7.287  66.118  1.00  0.00    -0.181 A  
HETATM   36  C   UNL     1     -10.932   6.628  67.118  1.00  0.00    -0.478 A  
HETATM   37  C   UNL     1      -8.697   6.006  65.572  1.00  0.00    -0.120 A  
ENDBRANCH   8  31
ENDBRANCH   5   8
TORSDOF 10
ENDMDL
MODEL       13
REMARK 921   NORMALIZED FREE ENERGY PREDICTED BY IDOCK:   -6.19 KCAL/MOL
REMARK 922        TOTAL FREE ENERGY PREDICTED BY IDOCK:  -11.16 KCAL/MOL
REMARK 923 INTER-LIGAND FREE ENERGY PREDICTED BY IDOCK:  -10.04 KCAL/MOL
REMARK 924 INTRA-LIGAND FREE ENERGY PREDICTED BY IDOCK:   -1.12 KCAL/MOL
REMARK 927      BINDING AFFINITY PREDICTED BY RF-SCORE:    0.00 PKD
ROOT
HETATM    1  F   UNL     1      -5.186   5.562  70.008  1.00  0.00    -0.004 F  
HETATM    2  C   UNL     1      -6.175   6.460  69.913  1.00  0.00    -0.031 A  
HETATM    3  C   UNL     1      -6.596   7.139  71.050  1.00  0.00    -0.044 A  
HETATM    4  C   UNL     1      -7.648   8.055  70.961  1.00  0.00    -0.083 A  
HETATM    5  C   UNL     1      -8.285   8.301  69.729  1.00  0.00    -0.121 A  
HETATM    6  C   UNL     1      -7.811   7.627  68.586  1.00  0.00    -0.121 A  
HETATM    7  C   UNL     1      -6.765   6.703  68.680  1.00  0.00    -0.064 A  
ENDROOT
BRANCH   5   8
HETATM    8  C   UNL     1      -9.466   9.286  69.654  1.00  0.00    -0.179 C  
BRANCH   8   9
HETATM    9  N   UNL     1      -9.728   9.743  68.260  1.00  0.00    -0.144 NA 
HETATM   10  C   UNL     1      -8.833  10.865  67.829  1.00  0.00    -0.135 C  
HETATM   11  C   UNL     1      -9.208  12.302  68.300  1.00  0.00    -0.189 C  
HETATM   12  C   UNL     1     -11.131  10.180  68.025  1.00  0.00    -0.240 C  
HETATM   13  C   UNL     1     -11.506  11.562  68.604  1.00  0.00    -0.293 C  
HETATM   14  N   UNL     1     -10.622  12.566  68.000  1.00  0.00    -0.217 NA 
BRANCH  14  15
HETATM   15  C   UNL     1     -10.979  13.890  68.258  1.00  0.00    -0.255 A  
HETATM   16  N   UNL     1     -10.440  14.846  67.516  1.00  0.00    -0.251 NA 
HETATM   17  C   UNL     1     -10.781  16.089  67.814  1.00  0.00    -0.323 A  
HETATM   18  N   UNL     1     -11.840  14.130  69.244  1.00  0.00    -0.317 NA 
HETATM   19  N   UNL     1     -11.575  16.419  68.820  1.00  0.00    -0.245 NA 
HETATM   20  C   UNL     1     -12.115  15.408  69.485  1.00  0.00    -0.305 A  
BRANCH  17  21
HETATM   21  N   UNL     1     -10.356  17.125  67.004  1.00  0.00    -0.315 NA 
HETATM   22  H   UNL     1     -10.503  17.106  65.995  1.00  0.00     0.000 HD 
BRANCH  21  23
HETATM   23  C   UNL     1      -9.698  18.233  67.646  1.00  0.00    -0.300 C  
BRANCH  23  24
HETATM   24  C   UNL     1     -10.386  19.468  67.156  1.00  0.00    -0.568 C  
HETATM   25  C   UNL     1      -9.766  20.574  66.721  1.00  0.00    -0.466 C  
ENDBRANCH  23  24
ENDBRANCH  21  23
ENDBRANCH  17  21
BRANCH  20  26
HETATM   26  N   UNL     1     -13.090  15.763  70.398  1.00  0.00    -0.743 NA 
HETATM   27  H   UNL     1     -13.674  16.585  70.236  1.00  0.00     0.000 HD 
BRANCH  26  28
HETATM   28  C   UNL     1     -13.274  14.961  71.583  1.00  0.00    -0.359 C  
BRANCH  28  29
HETATM   29  C   UNL     1     -12.506  15.603  72.708  1.00  0.00    -0.537 C  
HETATM   30  C   UNL     1     -12.649  15.302  74.007  1.00  0.00    -0.695 C  
ENDBRANCH  28  29
ENDBRANCH  26  28
ENDBRANCH  20  26
ENDBRANCH  14  15
ENDBRANCH   8   9
BRANCH   8  31
HETATM   31  C   UNL     1     -10.698   8.677  70.368  1.00  0.00    -0.248 A  
HETATM   32  C   UNL     1     -13.014   7.672  71.606  1.00  0.00    -0.350 A  
HETATM   33  C   UNL     1     -12.249   6.846  70.797  1.00  0.00    -0.364 A  
HETATM   34  F   UNL     1     -14.142   7.203  72.158  1.00  0.00    -0.355 F  
HETATM   35  C   UNL     1     -11.470   9.482  71.229  1.00  0.00    -0.447 A  
HETATM   36  C   UNL     1     -11.089   7.340  70.193  1.00  0.00    -0.281 A  
HETATM   37  C   UNL     1     -12.626   8.983  71.840  1.00  0.00    -0.452 A  
ENDBRANCH   8  31
ENDBRANCH   5   8
TORSDOF 10
ENDMDL
MODEL       14
REMARK 921   NORMALIZED FREE ENERGY PREDICTED BY IDOCK:   -6.10 KCAL/MOL
REMARK 922        TOTAL FREE ENERGY PREDICTED BY IDOCK:  -11.01 KCAL/MOL
REMARK 923 INTER-LIGAND FREE ENERGY PREDICTED BY IDOCK:   -9.86 KCAL/MOL
REMARK 924 INTRA-LIGAND FREE ENERGY PREDICTED BY IDOCK:   -1.14 KCAL/MOL
REMARK 927      BINDING AFFINITY PREDICTED BY RF-SCORE:    0.00 PKD
ROOT
HETATM    1  F   UNL     1      -7.869   7.024  64.850  1.00  0.00    -0.096 F  
HETATM    2  C   UNL     1      -8.374   7.803  65.815  1.00  0.00    -0.137 A  
HETATM    3  C   UNL     1      -9.574   7.450  66.423  1.00  0.00    -0.181 A  
HETATM    4  C   UNL     1     -10.120   8.276  67.409  1.00  0.00    -0.298 A  
HETATM    5  C   UNL     1      -9.466   9.461  67.799  1.00  0.00    -0.152 A  
HETATM    6  C   UNL     1      -8.233   9.772  67.194  1.00  0.00    -0.121 A  
HETATM    7  C   UNL     1      -7.693   8.950  66.199  1.00  0.00    -0.098 A  
ENDROOT
BRANCH   5   8
HETATM    8  C   UNL     1     -10.099  10.378  68.862  1.00  0.00    -0.201 C  
BRANCH   8   9
HETATM    9  N   UNL     1     -11.289  11.106  68.338  1.00  0.00    -0.262 NA 
HETATM   10  C   UNL     1     -11.200  11.408  66.873  1.00  0.00    -0.264 C  
HETATM   11  C   UNL     1     -10.344  12.638  66.447  1.00  0.00    -0.249 C  
HETATM   12  C   UNL     1     -11.565  12.389  69.040  1.00  0.00    -0.311 C  
HETATM   13  C   UNL     1     -10.626  13.561  68.680  1.00  0.00    -0.244 C  
HETATM   14  N   UNL     1     -10.738  13.811  67.239  1.00  0.00    -0.281 NA 
BRANCH  14  15
HETATM   15  C   UNL     1     -10.115  14.980  66.798  1.00  0.00    -0.254 A  
HETATM   16  N   UNL     1      -8.808  15.104  66.972  1.00  0.00    -0.218 NA 
HETATM   17  C   UNL     1      -8.263  16.240  66.569  1.00  0.00    -0.309 A  
HETATM   18  N   UNL     1     -10.868  15.919  66.231  1.00  0.00    -0.254 NA 
HETATM   19  N   UNL     1      -8.947  17.251  66.059  1.00  0.00    -0.520 NA 
HETATM   20  C   UNL     1     -10.241  17.035  65.870  1.00  0.00    -0.296 A  
BRANCH  17  21
HETATM   21  N   UNL     1      -6.889  16.387  66.604  1.00  0.00    -0.238 NA 
HETATM   22  H   UNL     1      -6.273  15.592  66.771  1.00  0.00     0.000 HD 
BRANCH  21  23
HETATM   23  C   UNL     1      -6.365  17.712  66.396  1.00  0.00    -0.230 C  
BRANCH  23  24
HETATM   24  C   UNL     1      -5.886  18.185  67.732  1.00  0.00    -0.154 C  
HETATM   25  C   UNL     1      -6.661  18.733  68.679  1.00  0.00    -0.287 C  
ENDBRANCH  23  24
ENDBRANCH  21  23
ENDBRANCH  17  21
BRANCH  20  26
HETATM   26  N   UNL     1     -10.901  18.019  65.158  1.00  0.00    -0.611 NA 
HETATM   27  H   UNL     1     -11.463  17.776  64.341  1.00  0.00     0.000 HD 
BRANCH  26  28
HETATM   28  C   UNL     1     -10.786  19.394  65.580  1.00  0.00    -0.230 C  
BRANCH  28  29
HETATM   29  C   UNL     1     -10.917  19.436  67.080  1.00  0.00    -0.454 C  
HETATM   30  C   UNL     1     -10.175  20.197  67.896  1.00  0.00    -0.501 C  
ENDBRANCH  28  29
ENDBRANCH  26  28
ENDBRANCH  20  26
ENDBRANCH  14  15
ENDBRANCH   8   9
BRANCH   8  31
HETATM   31  C   UNL     1     -10.363   9.570  70.156  1.00  0.00    -0.300 A  
HETATM   32  C   UNL     1     -10.759   8.191  72.574  1.00  0.00    -0.349 A  
HETATM   33  C   UNL     1     -11.849   8.684  71.874  1.00  0.00    -0.420 A  
HETATM   34  F   UNL     1     -10.947   7.574  73.750  1.00  0.00    -0.390 F  
HETATM   35  C   UNL     1      -9.277   9.021  70.866  1.00  0.00    -0.320 A  
HETATM   36  C   UNL     1     -11.655   9.358  70.664  1.00  0.00    -0.330 A  
HETATM   37  C   UNL     1      -9.475   8.340  72.073  1.00  0.00    -0.304 A  
ENDBRANCH   8  31
ENDBRANCH   5   8
TORSDOF 10
ENDMDL
MODEL       15
REMARK 921   NORMALIZED FREE ENERGY PREDICTED BY IDOCK:   -6.06 KCAL/MOL
REMARK 922        TOTAL FREE ENERGY PREDICTED BY IDOCK:  -10.95 KCAL/MOL
REMARK 923 INTER-LIGAND FREE ENERGY PREDICTED BY IDOCK:   -9.64 KCAL/MOL
REMARK 924 INTRA-LIGAND FREE ENERGY PREDICTED BY IDOCK:   -1.31 KCAL/MOL
REMARK 927      BINDING AFFINITY PREDICTED BY RF-SCORE:    0.00 PKD
ROOT
HETATM    1  F   UNL     1      -5.329   7.205  67.440  1.00  0.00    -0.016 F  
HETATM    2  C   UNL     1      -6.395   7.542  68.177  1.00  0.00    -0.048 A  
HETATM    3  C   UNL     1      -7.549   6.770  68.106  1.00  0.00    -0.107 A  
HETATM    4  C   UNL     1      -8.674   7.136  68.850  1.00  0.00    -0.128 A  
HETATM    5  C   UNL     1      -8.650   8.276  69.677  1.00  0.00    -0.129 A  
HETATM    6  C   UNL     1      -7.454   9.016  69.760  1.00  0.00    -0.062 A  
HETATM    7  C   UNL     1      -6.333   8.654  69.005  1.00  0.00    -0.044 A  
ENDROOT
BRANCH   5   8
HETATM    8  C   UNL     1      -9.909   8.686  70.463  1.00  0.00    -0.179 C  
BRANCH   8   9
HETATM    9  N   UNL     1     -11.079   8.917  69.569  1.00  0.00    -0.081 NA 
HETATM   10  C   UNL     1     -10.725   9.647  68.309  1.00  0.00    -0.217 C  
HETATM   11  C   UNL     1     -10.571  11.194  68.397  1.00  0.00    -0.193 C  
HETATM   12  C   UNL     1     -12.191   9.665  70.217  1.00  0.00     0.089 C  
HETATM   13  C   UNL     1     -11.961  11.182  70.394  1.00  0.00    -0.378 C  
HETATM   14  N   UNL     1     -11.746  11.769  69.067  1.00  0.00    -0.303 NA 
BRANCH  14  15
HETATM   15  C   UNL     1     -11.740  13.165  69.039  1.00  0.00    -0.321 A  
HETATM   16  N   UNL     1     -11.079  13.775  68.067  1.00  0.00    -0.253 NA 
HETATM   17  C   UNL     1     -11.072  15.097  68.096  1.00  0.00    -0.304 A  
HETATM   18  N   UNL     1     -12.394  13.816  69.998  1.00  0.00    -0.324 NA 
HETATM   19  N   UNL     1     -11.637  15.821  69.049  1.00  0.00    -0.383 NA 
HETATM   20  C   UNL     1     -12.322  15.144  69.959  1.00  0.00    -0.315 A  
BRANCH  17  21
HETATM   21  N   UNL     1     -10.509  15.800  67.047  1.00  0.00    -0.304 NA 
HETATM   22  H   UNL     1     -10.731  16.782  66.885  1.00  0.00     0.000 HD 
BRANCH  21  23
HETATM   23  C   UNL     1      -9.597  15.085  66.193  1.00  0.00    -0.314 C  
BRANCH  23  24
HETATM   24  C   UNL     1     -10.344  14.803  64.928  1.00  0.00    -0.365 C  
HETATM   25  C   UNL     1     -10.627  13.580  64.457  1.00  0.00    -0.439 C  
ENDBRANCH  23  24
ENDBRANCH  21  23
ENDBRANCH  17  21
BRANCH  20  26
HETATM   26  N   UNL     1     -13.067  15.919  70.828  1.00  0.00    -0.664 NA 
HETATM   27  H   UNL     1     -13.009  16.937  70.789  1.00  0.00     0.000 HD 
BRANCH  26  28
HETATM   28  C   UNL     1     -13.927  15.275  71.790  1.00  0.00    -0.539 C  
BRANCH  28  29
HETATM   29  C   UNL     1     -13.208  15.244  73.114  1.00  0.00    -0.612 C  
HETATM   30  C   UNL     1     -12.749  16.322  73.765  1.00  0.00    -0.614 C  
ENDBRANCH  28  29
ENDBRANCH  26  28
ENDBRANCH  20  26
ENDBRANCH  14  15
ENDBRANCH   8   9
BRANCH   8  31
HETATM   31  C   UNL     1     -10.166   7.668  71.601  1.00  0.00    -0.217 A  
HETATM   32  C   UNL     1     -10.568   5.723  73.592  1.00  0.00    -0.276 A  
HETATM   33  C   UNL     1      -9.922   6.909  73.905  1.00  0.00    -0.365 A  
HETATM   34  F   UNL     1     -10.718   4.779  74.532  1.00  0.00    -0.302 F  
HETATM   35  C   UNL     1     -10.859   6.474  71.321  1.00  0.00    -0.294 A  
HETATM   36  C   UNL     1      -9.734   7.883  72.920  1.00  0.00    -0.339 A  
HETATM   37  C   UNL     1     -11.053   5.503  72.311  1.00  0.00    -0.297 A  
ENDBRANCH   8  31
ENDBRANCH   5   8
TORSDOF 10
ENDMDL
MODEL       16
REMARK 921   NORMALIZED FREE ENERGY PREDICTED BY IDOCK:   -6.05 KCAL/MOL
REMARK 922        TOTAL FREE ENERGY PREDICTED BY IDOCK:  -10.93 KCAL/MOL
REMARK 923 INTER-LIGAND FREE ENERGY PREDICTED BY IDOCK:   -9.52 KCAL/MOL
REMARK 924 INTRA-LIGAND FREE ENERGY PREDICTED BY IDOCK:   -1.41 KCAL/MOL
REMARK 927      BINDING AFFINITY PREDICTED BY RF-SCORE:    0.00 PKD
ROOT
HETATM    1  F   UNL     1      -6.529   5.893  65.453  1.00  0.00    -0.037 F  
HETATM    2  C   UNL     1      -7.265   6.736  66.188  1.00  0.00    -0.067 A  
HETATM    3  C   UNL     1      -6.743   7.249  67.369  1.00  0.00    -0.068 A  
HETATM    4  C   UNL     1      -7.519   8.105  68.155  1.00  0.00    -0.097 A  
HETATM    5  C   UNL     1      -8.824   8.458  67.762  1.00  0.00    -0.137 A  
HETATM    6  C   UNL     1      -9.312   7.953  66.540  1.00  0.00    -0.255 A  
HETATM    7  C   UNL     1      -8.537   7.088  65.761  1.00  0.00    -0.138 A  
ENDROOT
BRANCH   5   8
HETATM    8  C   UNL     1      -9.680   9.374  68.656  1.00  0.00    -0.152 C  
BRANCH   8   9
HETATM    9  N   UNL     1     -10.789  10.021  67.899  1.00  0.00    -0.270 NA 
HETATM   10  C   UNL     1     -10.318  11.091  66.962  1.00  0.00    -0.228 C  
HETATM   11  C   UNL     1     -10.007  12.490  67.571  1.00  0.00    -0.201 C  
HETATM   12  C   UNL     1     -11.838  10.622  68.768  1.00  0.00    -0.107 C  
HETATM   13  C   UNL     1     -11.456  11.954  69.450  1.00  0.00    -0.302 C  
HETATM   14  N   UNL     1     -11.136  12.929  68.401  1.00  0.00    -0.247 NA 
BRANCH  14  15
HETATM   15  C   UNL     1     -10.984  14.242  68.850  1.00  0.00    -0.257 A  
HETATM   16  N   UNL     1     -11.695  14.639  69.895  1.00  0.00    -0.282 NA 
HETATM   17  C   UNL     1     -11.544  15.899  70.268  1.00  0.00    -0.354 A  
HETATM   18  N   UNL     1     -10.135  15.035  68.201  1.00  0.00    -0.219 NA 
HETATM   19  N   UNL     1     -10.775  16.773  69.638  1.00  0.00    -0.302 NA 
HETATM   20  C   UNL     1     -10.057  16.290  68.634  1.00  0.00    -0.233 A  
BRANCH  17  21
HETATM   21  N   UNL     1     -12.158  16.347  71.423  1.00  0.00    -0.561 NA 
HETATM   22  H   UNL     1     -11.798  17.149  71.940  1.00  0.00     0.000 HD 
BRANCH  21  23
HETATM   23  C   UNL     1     -13.327  15.632  71.864  1.00  0.00    -0.450 C  
BRANCH  23  24
HETATM   24  C   UNL     1     -13.120  15.354  73.320  1.00  0.00    -0.642 C  
HETATM   25  C   UNL     1     -12.339  16.073  74.138  1.00  0.00    -0.716 C  
ENDBRANCH  23  24
ENDBRANCH  21  23
ENDBRANCH  17  21
BRANCH  20  26
HETATM   26  N   UNL     1      -9.116  17.161  68.116  1.00  0.00    -0.240 NA 
HETATM   27  H   UNL     1      -8.475  17.656  68.737  1.00  0.00     0.000 HD 
BRANCH  26  28
HETATM   28  C   UNL     1      -9.050  17.363  66.689  1.00  0.00    -0.258 C  
BRANCH  28  29
HETATM   29  C   UNL     1      -7.657  17.018  66.231  1.00  0.00    -0.340 C  
HETATM   30  C   UNL     1      -6.683  17.907  65.993  1.00  0.00    -0.330 C  
ENDBRANCH  28  29
ENDBRANCH  26  28
ENDBRANCH  20  26
ENDBRANCH  14  15
ENDBRANCH   8   9
BRANCH   8  31
HETATM   31  C   UNL     1     -10.136   8.595  69.915  1.00  0.00    -0.197 A  
HETATM   32  C   UNL     1     -10.898   7.068  72.149  1.00  0.00    -0.224 A  
HETATM   33  C   UNL     1     -10.188   8.246  72.327  1.00  0.00    -0.375 A  
HETATM   34  F   UNL     1     -11.221   6.319  73.214  1.00  0.00    -0.257 F  
HETATM   35  C   UNL     1     -10.895   7.418  69.766  1.00  0.00    -0.246 A  
HETATM   36  C   UNL     1      -9.821   9.013  71.218  1.00  0.00    -0.376 A  
HETATM   37  C   UNL     1     -11.269   6.655  70.879  1.00  0.00    -0.352 A  
ENDBRANCH   8  31
ENDBRANCH   5   8
TORSDOF 10
ENDMDL
MODEL       17
REMARK 921   NORMALIZED FREE ENERGY PREDICTED BY IDOCK:   -6.01 KCAL/MOL
REMARK 922        TOTAL FREE ENERGY PREDICTED BY IDOCK:  -10.87 KCAL/MOL
REMARK 923 INTER-LIGAND FREE ENERGY PREDICTED BY IDOCK:   -9.97 KCAL/MOL
REMARK 924 INTRA-LIGAND FREE ENERGY PREDICTED BY IDOCK:   -0.90 KCAL/MOL
REMARK 927      BINDING AFFINITY PREDICTED BY RF-SCORE:    0.00 PKD
ROOT
HETATM    1  F   UNL     1     -11.697  16.118  63.858  1.00  0.00    -0.427 F  
HETATM    2  C   UNL     1     -11.622  15.189  64.819  1.00  0.00    -0.364 A  
HETATM    3  C   UNL     1     -10.680  15.326  65.833  1.00  0.00    -0.340 A  
HETATM    4  C   UNL     1     -10.579  14.342  66.821  1.00  0.00    -0.282 A  
HETATM    5  C   UNL     1     -11.423  13.215  66.804  1.00  0.00    -0.386 A  
HETATM    6  C   UNL     1     -12.394  13.124  65.787  1.00  0.00    -0.496 A  
HETATM    7  C   UNL     1     -12.486  14.104  64.793  1.00  0.00    -0.395 A  
ENDROOT
BRANCH   5   8
HETATM    8  C   UNL     1     -11.274  12.123  67.879  1.00  0.00    -0.272 C  
BRANCH   8   9
HETATM    9  N   UNL     1      -9.886  11.583  67.943  1.00  0.00    -0.180 NA 
HETATM   10  C   UNL     1      -9.516  10.762  66.746  1.00  0.00    -0.173 C  
HETATM   11  C   UNL     1     -10.017   9.288  66.707  1.00  0.00    -0.245 C  
HETATM   12  C   UNL     1      -9.620  10.753  69.150  1.00  0.00    -0.151 C  
HETATM   13  C   UNL     1     -10.227   9.334  69.130  1.00  0.00    -0.206 C  
HETATM   14  N   UNL     1      -9.680   8.619  67.971  1.00  0.00    -0.153 NA 
BRANCH  14  15
HETATM   15  C   UNL     1      -9.965   7.253  67.940  1.00  0.00    -0.158 A  
HETATM   16  N   UNL     1      -9.860   6.559  69.063  1.00  0.00    -0.141 NA 
HETATM   17  C   UNL     1     -10.107   5.262  68.982  1.00  0.00    -0.202 A  
HETATM   18  N   UNL     1     -10.322   6.710  66.778  1.00  0.00    -0.221 NA 
HETATM   19  N   UNL     1     -10.401   4.631  67.856  1.00  0.00     0.050 NA 
HETATM   20  C   UNL     1     -10.537   5.398  66.784  1.00  0.00    -0.271 A  
BRANCH  17  21
HETATM   21  N   UNL     1     -10.139   4.501  70.135  1.00  0.00    -0.211 NA 
HETATM   22  H   UNL     1     -10.555   3.570  70.147  1.00  0.00     0.000 HD 
BRANCH  21  23
HETATM   23  C   UNL     1      -9.558   5.078  71.320  1.00  0.00    -0.165 C  
BRANCH  23  24
HETATM   24  C   UNL     1     -10.647   5.107  72.346  1.00  0.00    -0.278 C  
HETATM   25  C   UNL     1     -11.614   6.033  72.416  1.00  0.00    -0.349 C  
ENDBRANCH  23  24
ENDBRANCH  21  23
ENDBRANCH  17  21
BRANCH  20  26
HETATM   26  N   UNL     1     -11.035   4.757  65.665  1.00  0.00    -0.875 NA 
HETATM   27  H   UNL     1     -12.021   4.844  65.417  1.00  0.00     0.000 HD 
BRANCH  26  28
HETATM   28  C   UNL     1     -10.147   3.962  64.853  1.00  0.00    -0.182 C  
BRANCH  28  29
HETATM   29  C   UNL     1     -10.885   3.565  63.601  1.00  0.00    -0.212 C  
HETATM   30  C   UNL     1     -10.856   2.346  63.045  1.00  0.00    -0.224 C  
ENDBRANCH  28  29
ENDBRANCH  26  28
ENDBRANCH  20  26
ENDBRANCH  14  15
ENDBRANCH   8   9
BRANCH   8  31
HETATM   31  C   UNL     1     -11.818  12.646  69.231  1.00  0.00    -0.358 A  
HETATM   32  C   UNL     1     -12.732  13.497  71.751  1.00  0.00    -0.244 A  
HETATM   33  C   UNL     1     -12.095  14.395  70.908  1.00  0.00    -0.414 A  
HETATM   34  F   UNL     1     -13.126  13.894  72.969  1.00  0.00    -0.557 F  
HETATM   35  C   UNL     1     -12.507  11.767  70.089  1.00  0.00    -0.182 A  
HETATM   36  C   UNL     1     -11.653  13.977  69.649  1.00  0.00    -0.348 A  
HETATM   37  C   UNL     1     -12.957  12.190  71.346  1.00  0.00    -0.357 A  
ENDBRANCH   8  31
ENDBRANCH   5   8
TORSDOF 10
ENDMDL
MODEL       18
REMARK 921   NORMALIZED FREE ENERGY PREDICTED BY IDOCK:   -5.96 KCAL/MOL
REMARK 922        TOTAL FREE ENERGY PREDICTED BY IDOCK:  -10.79 KCAL/MOL
REMARK 923 INTER-LIGAND FREE ENERGY PREDICTED BY IDOCK:  -10.47 KCAL/MOL
REMARK 924 INTRA-LIGAND FREE ENERGY PREDICTED BY IDOCK:   -0.32 KCAL/MOL
REMARK 927      BINDING AFFINITY PREDICTED BY RF-SCORE:    0.00 PKD
ROOT
HETATM    1  F   UNL     1     -10.950  19.958  67.308  1.00  0.00    -0.533 F  
HETATM    2  C   UNL     1     -10.678  18.656  67.155  1.00  0.00    -0.377 A  
HETATM    3  C   UNL     1     -10.553  17.846  68.278  1.00  0.00    -0.314 A  
HETATM    4  C   UNL     1     -10.239  16.493  68.124  1.00  0.00    -0.271 A  
HETATM    5  C   UNL     1     -10.053  15.938  66.843  1.00  0.00    -0.267 A  
HETATM    6  C   UNL     1     -10.225  16.774  65.723  1.00  0.00    -0.311 A  
HETATM    7  C   UNL     1     -10.528  18.131  65.879  1.00  0.00    -0.292 A  
ENDROOT
BRANCH   5   8
HETATM    8  C   UNL     1      -9.673  14.454  66.693  1.00  0.00    -0.278 C  
BRANCH   8   9
HETATM    9  N   UNL     1      -9.566  13.765  68.010  1.00  0.00    -0.208 NA 
HETATM   10  C   UNL     1      -8.375  12.862  68.109  1.00  0.00    -0.168 C  
HETATM   11  C   UNL     1      -8.489  11.452  67.457  1.00  0.00    -0.137 C  
HETATM   12  C   UNL     1     -10.766  12.957  68.365  1.00  0.00    -0.255 C  
HETATM   13  C   UNL     1     -10.911  11.615  67.616  1.00  0.00    -0.225 C  
HETATM   14  N   UNL     1      -9.726  10.799  67.905  1.00  0.00    -0.164 NA 
BRANCH  14  15
HETATM   15  C   UNL     1      -9.810   9.473  67.477  1.00  0.00    -0.167 A  
HETATM   16  N   UNL     1     -10.483   8.610  68.222  1.00  0.00    -0.209 NA 
HETATM   17  C   UNL     1     -10.511   7.358  67.797  1.00  0.00    -0.232 A  
HETATM   18  N   UNL     1      -9.201   9.138  66.342  1.00  0.00    -0.170 NA 
HETATM   19  N   UNL     1      -9.877   6.926  66.719  1.00  0.00    -0.183 NA 
HETATM   20  C   UNL     1      -9.267   7.856  65.997  1.00  0.00    -0.104 A  
BRANCH  17  21
HETATM   21  N   UNL     1     -11.297   6.431  68.456  1.00  0.00    -0.550 NA 
HETATM   22  H   UNL     1     -12.153   6.067  68.039  1.00  0.00     0.000 HD 
BRANCH  21  23
HETATM   23  C   UNL     1     -10.855   6.002  69.758  1.00  0.00    -0.363 C  
BRANCH  23  24
HETATM   24  C   UNL     1     -11.883   6.491  70.729  1.00  0.00    -0.394 C  
HETATM   25  C   UNL     1     -11.694   6.620  72.050  1.00  0.00    -0.354 C  
ENDBRANCH  23  24
ENDBRANCH  21  23
ENDBRANCH  17  21
BRANCH  20  26
HETATM   26  N   UNL     1      -8.781   7.424  64.777  1.00  0.00    -0.344 NA 
HETATM   27  H   UNL     1      -9.183   6.603  64.323  1.00  0.00     0.000 HD 
BRANCH  26  28
HETATM   28  C   UNL     1      -7.700   8.146  64.152  1.00  0.00    -0.136 C  
BRANCH  28  29
HETATM   29  C   UNL     1      -8.168   8.609  62.797  1.00  0.00    -0.188 C  
HETATM   30  C   UNL     1      -8.985   9.649  62.579  1.00  0.00    -0.280 C  
ENDBRANCH  28  29
ENDBRANCH  26  28
ENDBRANCH  20  26
ENDBRANCH  14  15
ENDBRANCH   8   9
BRANCH   8  31
HETATM   31  C   UNL     1     -10.636  13.769  65.691  1.00  0.00    -0.302 A  
HETATM   32  C   UNL     1     -12.324  12.404  63.905  1.00  0.00    -0.508 A  
HETATM   33  C   UNL     1     -12.871  13.186  64.911  1.00  0.00    -0.349 A  
HETATM   34  F   UNL     1     -13.131  11.718  63.083  1.00  0.00    -0.670 F  
HETATM   35  C   UNL     1     -10.108  13.003  64.634  1.00  0.00    -0.253 A  
HETATM   36  C   UNL     1     -12.032  13.876  65.791  1.00  0.00    -0.419 A  
HETATM   37  C   UNL     1     -10.949  12.319  63.748  1.00  0.00    -0.495 A  
ENDBRANCH   8  31
ENDBRANCH   5   8
TORSDOF 10
ENDMDL
MODEL       19
REMARK 921   NORMALIZED FREE ENERGY PREDICTED BY IDOCK:   -5.94 KCAL/MOL
REMARK 922        TOTAL FREE ENERGY PREDICTED BY IDOCK:  -10.76 KCAL/MOL
REMARK 923 INTER-LIGAND FREE ENERGY PREDICTED BY IDOCK:   -9.77 KCAL/MOL
REMARK 924 INTRA-LIGAND FREE ENERGY PREDICTED BY IDOCK:   -0.99 KCAL/MOL
REMARK 927      BINDING AFFINITY PREDICTED BY RF-SCORE:    0.00 PKD
ROOT
HETATM    1  F   UNL     1     -13.009  10.277  72.609  1.00  0.00    -0.331 F  
HETATM    2  C   UNL     1     -12.304  10.015  71.500  1.00  0.00    -0.419 A  
HETATM    3  C   UNL     1     -11.316   9.039  71.532  1.00  0.00    -0.416 A  
HETATM    4  C   UNL     1     -10.558   8.783  70.386  1.00  0.00    -0.251 A  
HETATM    5  C   UNL     1     -10.787   9.502  69.196  1.00  0.00    -0.194 A  
HETATM    6  C   UNL     1     -11.822  10.458  69.183  1.00  0.00    -0.135 A  
HETATM    7  C   UNL     1     -12.572  10.719  70.334  1.00  0.00    -0.395 A  
ENDROOT
BRANCH   5   8
HETATM    8  C   UNL     1      -9.920   9.234  67.953  1.00  0.00    -0.187 C  
BRANCH   8   9
HETATM    9  N   UNL     1      -8.599   9.921  68.030  1.00  0.00    -0.121 NA 
HETATM   10  C   UNL     1      -8.602  11.103  68.951  1.00  0.00    -0.087 C  
HETATM   11  C   UNL     1      -9.188  12.437  68.401  1.00  0.00    -0.145 C  
HETATM   12  C   UNL     1      -8.086  10.385  66.712  1.00  0.00    -0.120 C  
HETATM   13  C   UNL     1      -8.767  11.647  66.139  1.00  0.00    -0.094 C  
HETATM   14  N   UNL     1      -8.582  12.742  67.097  1.00  0.00    -0.198 NA 
BRANCH  14  15
HETATM   15  C   UNL     1      -8.952  14.002  66.624  1.00  0.00    -0.154 A  
HETATM   16  N   UNL     1      -8.289  15.062  67.062  1.00  0.00    -0.215 NA 
HETATM   17  C   UNL     1      -8.692  16.239  66.613  1.00  0.00    -0.259 A  
HETATM   18  N   UNL     1      -9.961  14.079  65.759  1.00  0.00    -0.311 NA 
HETATM   19  N   UNL     1      -9.728  16.411  65.807  1.00  0.00    -0.503 NA 
HETATM   20  C   UNL     1     -10.310  15.302  65.372  1.00  0.00    -0.393 A  
BRANCH  17  21
HETATM   21  N   UNL     1      -7.969  17.373  66.929  1.00  0.00    -0.213 NA 
HETATM   22  H   UNL     1      -8.179  17.922  67.763  1.00  0.00     0.000 HD 
BRANCH  21  23
HETATM   23  C   UNL     1      -6.907  17.747  66.032  1.00  0.00    -0.292 C  
BRANCH  23  24
HETATM   24  C   UNL     1      -6.934  19.241  65.954  1.00  0.00    -0.300 C  
HETATM   25  C   UNL     1      -8.043  19.994  65.980  1.00  0.00    -0.281 C  
ENDBRANCH  23  24
ENDBRANCH  21  23
ENDBRANCH  17  21
BRANCH  20  26
HETATM   26  N   UNL     1     -11.256  15.489  64.381  1.00  0.00    -0.728 NA 
HETATM   27  H   UNL     1     -11.141  16.232  63.691  1.00  0.00     0.000 HD 
BRANCH  26  28
HETATM   28  C   UNL     1     -12.409  14.623  64.333  1.00  0.00    -0.398 C  
BRANCH  28  29
HETATM   29  C   UNL     1     -12.087  13.465  63.425  1.00  0.00    -0.437 C  
HETATM   30  C   UNL     1     -12.368  12.180  63.687  1.00  0.00    -0.673 C  
ENDBRANCH  28  29
ENDBRANCH  26  28
ENDBRANCH  20  26
ENDBRANCH  14  15
ENDBRANCH   8   9
BRANCH   8  31
HETATM   31  C   UNL     1      -9.832   7.709  67.698  1.00  0.00    -0.207 A  
HETATM   32  C   UNL     1      -9.692   4.965  67.100  1.00  0.00    -0.175 A  
HETATM   33  C   UNL     1      -8.641   5.582  67.762  1.00  0.00    -0.108 A  
HETATM   34  F   UNL     1      -9.603   3.667  66.776  1.00  0.00    -0.198 F  
HETATM   35  C   UNL     1     -10.902   7.047  67.065  1.00  0.00    -0.413 A  
HETATM   36  C   UNL     1      -8.716   6.943  68.073  1.00  0.00    -0.125 A  
HETATM   37  C   UNL     1     -10.829   5.682  66.762  1.00  0.00    -0.296 A  
ENDBRANCH   8  31
ENDBRANCH   5   8
TORSDOF 10
ENDMDL
MODEL       20
REMARK 921   NORMALIZED FREE ENERGY PREDICTED BY IDOCK:   -5.90 KCAL/MOL
REMARK 922        TOTAL FREE ENERGY PREDICTED BY IDOCK:  -10.69 KCAL/MOL
REMARK 923 INTER-LIGAND FREE ENERGY PREDICTED BY IDOCK:   -9.53 KCAL/MOL
REMARK 924 INTRA-LIGAND FREE ENERGY PREDICTED BY IDOCK:   -1.15 KCAL/MOL
REMARK 927      BINDING AFFINITY PREDICTED BY RF-SCORE:    0.00 PKD
ROOT
HETATM    1  F   UNL     1     -14.125  16.394  73.402  1.00  0.00    -0.620 F  
HETATM    2  C   UNL     1     -13.500  15.599  72.525  1.00  0.00    -0.538 A  
HETATM    3  C   UNL     1     -14.174  14.508  71.987  1.00  0.00    -0.630 A  
HETATM    4  C   UNL     1     -13.515  13.658  71.095  1.00  0.00    -0.118 A  
HETATM    5  C   UNL     1     -12.176  13.896  70.731  1.00  0.00    -0.441 A  
HETATM    6  C   UNL     1     -11.531  15.031  71.260  1.00  0.00    -0.359 A  
HETATM    7  C   UNL     1     -12.189  15.875  72.161  1.00  0.00    -0.578 A  
ENDROOT
BRANCH   5   8
HETATM    8  C   UNL     1     -11.453  12.930  69.774  1.00  0.00    -0.132 C  
BRANCH   8   9
HETATM    9  N   UNL     1     -12.290  11.744  69.435  1.00  0.00    -0.125 NA 
HETATM   10  C   UNL     1     -12.616  10.893  70.625  1.00  0.00    -0.346 C  
HETATM   11  C   UNL     1     -11.523   9.898  71.115  1.00  0.00    -0.383 C  
HETATM   12  C   UNL     1     -11.683  10.855  68.407  1.00  0.00    -0.218 C  
HETATM   13  C   UNL     1     -10.523   9.961  68.898  1.00  0.00    -0.211 C  
HETATM   14  N   UNL     1     -11.029   9.108  69.979  1.00  0.00    -0.232 NA 
BRANCH  14  15
HETATM   15  C   UNL     1     -10.159   8.093  70.378  1.00  0.00    -0.194 A  
HETATM   16  N   UNL     1     -10.019   7.854  71.673  1.00  0.00    -0.176 NA 
HETATM   17  C   UNL     1      -9.160   6.906  72.010  1.00  0.00    -0.136 A  
HETATM   18  N   UNL     1      -9.504   7.417  69.437  1.00  0.00    -0.155 NA 
HETATM   19  N   UNL     1      -8.419   6.234  71.144  1.00  0.00    -0.124 NA 
HETATM   20  C   UNL     1      -8.650   6.492  69.865  1.00  0.00    -0.139 A  
BRANCH  17  21
HETATM   21  N   UNL     1      -9.056   6.518  73.333  1.00  0.00    -0.127 NA 
HETATM   22  H   UNL     1      -8.153   6.301  73.754  1.00  0.00     0.000 HD 
BRANCH  21  23
HETATM   23  C   UNL     1     -10.277   6.435  74.091  1.00  0.00    -0.343 C  
BRANCH  23  24
HETATM   24  C   UNL     1     -10.982   5.205  73.612  1.00  0.00    -0.350 C  
HETATM   25  C   UNL     1     -10.575   3.947  73.835  1.00  0.00    -0.291 C  
ENDBRANCH  23  24
ENDBRANCH  21  23
ENDBRANCH  17  21
BRANCH  20  26
HETATM   26  N   UNL     1      -8.015   5.648  68.974  1.00  0.00    -0.095 NA 
HETATM   27  H   UNL     1      -7.634   4.756  69.291  1.00  0.00     0.000 HD 
BRANCH  26  28
HETATM   28  C   UNL     1      -7.897   6.040  67.591  1.00  0.00    -0.101 C  
BRANCH  28  29
HETATM   29  C   UNL     1      -8.704   5.077  66.759  1.00  0.00    -0.108 C  
HETATM   30  C   UNL     1     -10.044   5.028  66.723  1.00  0.00    -0.270 C  
ENDBRANCH  28  29
ENDBRANCH  26  28
ENDBRANCH  20  26
ENDBRANCH  14  15
ENDBRANCH   8   9
BRANCH   8  31
HETATM   31  C   UNL     1     -10.926  13.711  68.545  1.00  0.00    -0.289 A  
HETATM   32  C   UNL     1      -9.908  15.012  66.269  1.00  0.00    -0.285 A  
HETATM   33  C   UNL     1     -11.273  15.012  66.512  1.00  0.00    -0.312 A  
HETATM   34  F   UNL     1      -9.430  15.594  65.160  1.00  0.00    -0.223 F  
HETATM   35  C   UNL     1      -9.541  13.765  68.297  1.00  0.00    -0.219 A  
HETATM   36  C   UNL     1     -11.780  14.377  67.650  1.00  0.00    -0.421 A  
HETATM   37  C   UNL     1      -9.035  14.407  67.161  1.00  0.00    -0.245 A  
ENDBRANCH   8  31
ENDBRANCH   5   8
TORSDOF 10
ENDMDL
MODEL       21
REMARK 921   NORMALIZED FREE ENERGY PREDICTED BY IDOCK:   -5.89 KCAL/MOL
REMARK 922        TOTAL FREE ENERGY PREDICTED BY IDOCK:  -10.68 KCAL/MOL
REMARK 923 INTER-LIGAND FREE ENERGY PREDICTED BY IDOCK:   -9.97 KCAL/MOL
REMARK 924 INTRA-LIGAND FREE ENERGY PREDICTED BY IDOCK:   -0.72 KCAL/MOL
REMARK 927      BINDING AFFINITY PREDICTED BY RF-SCORE:    0.00 PKD
ROOT
HETATM    1  F   UNL     1      -9.561   3.225  67.500  1.00  0.00    -0.232 F  
HETATM    2  C   UNL     1      -9.698   4.557  67.461  1.00  0.00    -0.169 A  
HETATM    3  C   UNL     1      -8.855   5.354  68.225  1.00  0.00    -0.105 A  
HETATM    4  C   UNL     1      -9.014   6.743  68.211  1.00  0.00    -0.123 A  
HETATM    5  C   UNL     1     -10.018   7.344  67.427  1.00  0.00    -0.239 A  
HETATM    6  C   UNL     1     -10.831   6.513  66.633  1.00  0.00    -0.222 A  
HETATM    7  C   UNL     1     -10.677   5.123  66.657  1.00  0.00    -0.225 A  
ENDROOT
BRANCH   5   8
HETATM    8  C   UNL     1     -10.203   8.872  67.450  1.00  0.00    -0.249 C  
BRANCH   8   9
HETATM    9  N   UNL     1      -9.547   9.500  68.632  1.00  0.00    -0.145 NA 
HETATM   10  C   UNL     1     -10.518   9.910  69.697  1.00  0.00    -0.249 C  
HETATM   11  C   UNL     1     -11.282  11.252  69.492  1.00  0.00    -0.272 C  
HETATM   12  C   UNL     1      -8.724  10.695  68.298  1.00  0.00    -0.135 C  
HETATM   13  C   UNL     1      -9.516  11.984  67.987  1.00  0.00    -0.199 C  
HETATM   14  N   UNL     1     -10.326  12.318  69.164  1.00  0.00     0.044 NA 
BRANCH  14  15
HETATM   15  C   UNL     1     -10.931  13.576  69.119  1.00  0.00    -0.177 A  
HETATM   16  N   UNL     1     -10.492  14.457  68.233  1.00  0.00    -0.239 NA 
HETATM   17  C   UNL     1     -11.071  15.646  68.246  1.00  0.00    -0.336 A  
HETATM   18  N   UNL     1     -11.916  13.832  69.977  1.00  0.00    -0.321 NA 
HETATM   19  N   UNL     1     -12.008  16.006  69.108  1.00  0.00    -0.280 NA 
HETATM   20  C   UNL     1     -12.430  15.057  69.931  1.00  0.00    -0.230 A  
BRANCH  17  21
HETATM   21  N   UNL     1     -10.751  16.570  67.269  1.00  0.00    -0.287 NA 
HETATM   22  H   UNL     1     -10.784  16.330  66.278  1.00  0.00     0.000 HD 
BRANCH  21  23
HETATM   23  C   UNL     1     -10.371  17.887  67.710  1.00  0.00    -0.387 C  
BRANCH  23  24
HETATM   24  C   UNL     1      -9.911  18.619  66.488  1.00  0.00    -0.408 C  
HETATM   25  C   UNL     1     -10.483  19.726  65.993  1.00  0.00    -0.609 C  
ENDBRANCH  23  24
ENDBRANCH  21  23
ENDBRANCH  17  21
BRANCH  20  26
HETATM   26  N   UNL     1     -13.539  15.388  70.687  1.00  0.00    -0.826 NA 
HETATM   27  H   UNL     1     -14.048  16.254  70.504  1.00  0.00     0.000 HD 
BRANCH  26  28
HETATM   28  C   UNL     1     -13.971  14.498  71.736  1.00  0.00    -0.473 C  
BRANCH  28  29
HETATM   29  C   UNL     1     -13.117  14.756  72.950  1.00  0.00    -0.596 C  
HETATM   30  C   UNL     1     -12.957  15.950  73.539  1.00  0.00    -0.707 C  
ENDBRANCH  28  29
ENDBRANCH  26  28
ENDBRANCH  20  26
ENDBRANCH  14  15
ENDBRANCH   8   9
BRANCH   8  31
HETATM   31  C   UNL     1      -9.771   9.470  66.088  1.00  0.00    -0.324 A  
HETATM   32  C   UNL     1      -8.972  10.425  63.567  1.00  0.00    -0.233 A  
HETATM   33  C   UNL     1     -10.186  10.823  64.103  1.00  0.00    -0.412 A  
HETATM   34  F   UNL     1      -8.613  10.845  62.345  1.00  0.00    -0.218 F  
HETATM   35  C   UNL     1      -8.523   9.116  65.539  1.00  0.00    -0.160 A  
HETATM   36  C   UNL     1     -10.579  10.361  65.363  1.00  0.00    -0.080 A  
HETATM   37  C   UNL     1      -8.128   9.587  64.281  1.00  0.00    -0.142 A  
ENDBRANCH   8  31
ENDBRANCH   5   8
TORSDOF 10
ENDMDL
MODEL       22
REMARK 921   NORMALIZED FREE ENERGY PREDICTED BY IDOCK:   -5.89 KCAL/MOL
REMARK 922        TOTAL FREE ENERGY PREDICTED BY IDOCK:  -10.67 KCAL/MOL
REMARK 923 INTER-LIGAND FREE ENERGY PREDICTED BY IDOCK:  -10.27 KCAL/MOL
REMARK 924 INTRA-LIGAND FREE ENERGY PREDICTED BY IDOCK:   -0.41 KCAL/MOL
REMARK 927      BINDING AFFINITY PREDICTED BY RF-SCORE:    0.00 PKD
ROOT
HETATM    1  F   UNL     1     -12.779  13.772  62.902  1.00  0.00    -0.234 F  
HETATM    2  C   UNL     1     -11.840  13.101  63.581  1.00  0.00    -0.488 A  
HETATM    3  C   UNL     1     -10.939  13.800  64.376  1.00  0.00    -0.356 A  
HETATM    4  C   UNL     1      -9.939  13.106  65.062  1.00  0.00    -0.163 A  
HETATM    5  C   UNL     1      -9.835  11.706  64.961  1.00  0.00    -0.280 A  
HETATM    6  C   UNL     1     -10.786  11.021  64.179  1.00  0.00    -0.344 A  
HETATM    7  C   UNL     1     -11.780  11.718  63.484  1.00  0.00    -0.485 A  
ENDROOT
BRANCH   5   8
HETATM    8  C   UNL     1      -8.705  10.960  65.695  1.00  0.00    -0.183 C  
BRANCH   8   9
HETATM    9  N   UNL     1      -9.116  10.521  67.059  1.00  0.00    -0.143 NA 
HETATM   10  C   UNL     1     -10.600  10.540  67.263  1.00  0.00    -0.264 C  
HETATM   11  C   UNL     1     -11.261  11.914  67.579  1.00  0.00    -0.296 C  
HETATM   12  C   UNL     1      -8.506  11.321  68.156  1.00  0.00    -0.145 C  
HETATM   13  C   UNL     1      -9.109  12.727  68.370  1.00  0.00    -0.129 C  
HETATM   14  N   UNL     1     -10.536  12.571  68.675  1.00  0.00    -0.230 NA 
BRANCH  14  15
HETATM   15  C   UNL     1     -11.172  13.735  69.108  1.00  0.00    -0.262 A  
HETATM   16  N   UNL     1     -10.709  14.902  68.686  1.00  0.00    -0.243 NA 
HETATM   17  C   UNL     1     -11.321  15.981  69.146  1.00  0.00    -0.352 A  
HETATM   18  N   UNL     1     -12.211  13.617  69.931  1.00  0.00    -0.322 NA 
HETATM   19  N   UNL     1     -12.315  15.956  70.019  1.00  0.00    -0.247 NA 
HETATM   20  C   UNL     1     -12.756  14.753  70.355  1.00  0.00    -0.316 A  
BRANCH  17  21
HETATM   21  N   UNL     1     -10.972  17.225  68.652  1.00  0.00    -0.246 NA 
HETATM   22  H   UNL     1     -11.447  18.072  68.962  1.00  0.00     0.000 HD 
BRANCH  21  23
HETATM   23  C   UNL     1      -9.909  17.272  67.683  1.00  0.00    -0.279 C  
BRANCH  23  24
HETATM   24  C   UNL     1     -10.462  17.992  66.493  1.00  0.00    -0.341 C  
HETATM   25  C   UNL     1     -10.487  19.323  66.341  1.00  0.00    -0.563 C  
ENDBRANCH  23  24
ENDBRANCH  21  23
ENDBRANCH  17  21
BRANCH  20  26
HETATM   26  N   UNL     1     -13.916  14.745  71.108  1.00  0.00    -0.562 NA 
HETATM   27  H   UNL     1     -14.713  14.176  70.821  1.00  0.00     0.000 HD 
BRANCH  26  28
HETATM   28  C   UNL     1     -13.987  15.548  72.304  1.00  0.00    -0.548 C  
BRANCH  28  29
HETATM   29  C   UNL     1     -13.023  14.977  73.311  1.00  0.00    -0.642 C  
HETATM   30  C   UNL     1     -12.493  15.655  74.339  1.00  0.00    -0.790 C  
ENDBRANCH  28  29
ENDBRANCH  26  28
ENDBRANCH  20  26
ENDBRANCH  14  15
ENDBRANCH   8   9
BRANCH   8  31
HETATM   31  C   UNL     1      -8.161   9.823  64.795  1.00  0.00    -0.146 A  
HETATM   32  C   UNL     1      -7.301   7.703  63.160  1.00  0.00    -0.097 A  
HETATM   33  C   UNL     1      -7.109   9.014  62.750  1.00  0.00    -0.095 A  
HETATM   34  F   UNL     1      -6.932   6.695  62.357  1.00  0.00    -0.043 F  
HETATM   35  C   UNL     1      -8.304   8.483  65.206  1.00  0.00    -0.168 A  
HETATM   36  C   UNL     1      -7.523  10.069  63.569  1.00  0.00    -0.140 A  
HETATM   37  C   UNL     1      -7.882   7.428  64.388  1.00  0.00    -0.127 A  
ENDBRANCH   8  31
ENDBRANCH   5   8
TORSDOF 10
ENDMDL
MODEL       23
REMARK 921   NORMALIZED FREE ENERGY PREDICTED BY IDOCK:   -5.88 KCAL/MOL
REMARK 922        TOTAL FREE ENERGY PREDICTED BY IDOCK:  -10.66 KCAL/MOL
REMARK 923 INTER-LIGAND FREE ENERGY PREDICTED BY IDOCK:   -9.50 KCAL/MOL
REMARK 924 INTRA-LIGAND FREE ENERGY PREDICTED BY IDOCK:   -1.16 KCAL/MOL
REMARK 927      BINDING AFFINITY PREDICTED BY RF-SCORE:    0.00 PKD
ROOT
HETATM    1  F   UNL     1     -11.227   8.155  73.430  1.00  0.00    -0.322 F  
HETATM    2  C   UNL     1     -10.869   8.358  72.156  1.00  0.00    -0.337 A  
HETATM    3  C   UNL     1      -9.868   7.575  71.592  1.00  0.00    -0.185 A  
HETATM    4  C   UNL     1      -9.471   7.804  70.272  1.00  0.00    -0.160 A  
HETATM    5  C   UNL     1     -10.078   8.816  69.503  1.00  0.00    -0.202 A  
HETATM    6  C   UNL     1     -11.116   9.567  70.088  1.00  0.00    -0.294 A  
HETATM    7  C   UNL     1     -11.505   9.343  71.413  1.00  0.00    -0.449 A  
ENDROOT
BRANCH   5   8
HETATM    8  C   UNL     1      -9.604   9.079  68.062  1.00  0.00    -0.148 C  
BRANCH   8   9
HETATM    9  N   UNL     1      -8.335   9.859  68.021  1.00  0.00    -0.113 NA 
HETATM   10  C   UNL     1      -8.341  11.045  68.937  1.00  0.00    -0.123 C  
HETATM   11  C   UNL     1      -9.068  12.330  68.440  1.00  0.00    -0.146 C  
HETATM   12  C   UNL     1      -7.975  10.350  66.662  1.00  0.00    -0.120 C  
HETATM   13  C   UNL     1      -8.793  11.555  66.150  1.00  0.00    -0.167 C  
HETATM   14  N   UNL     1      -8.603  12.668  67.087  1.00  0.00    -0.196 NA 
BRANCH  14  15
HETATM   15  C   UNL     1      -9.103  13.895  66.648  1.00  0.00    -0.190 A  
HETATM   16  N   UNL     1      -9.928  13.906  65.612  1.00  0.00    -0.301 NA 
HETATM   17  C   UNL     1     -10.353  15.091  65.207  1.00  0.00    -0.395 A  
HETATM   18  N   UNL     1      -8.720  14.997  67.287  1.00  0.00    -0.190 NA 
HETATM   19  N   UNL     1      -9.968  16.240  65.741  1.00  0.00    -0.440 NA 
HETATM   20  C   UNL     1      -9.182  16.146  66.804  1.00  0.00    -0.231 A  
BRANCH  17  21
HETATM   21  N   UNL     1     -11.312  15.170  64.214  1.00  0.00    -0.673 NA 
HETATM   22  H   UNL     1     -11.196  15.789  63.412  1.00  0.00     0.000 HD 
BRANCH  21  23
HETATM   23  C   UNL     1     -12.479  14.341  64.361  1.00  0.00    -0.300 C  
BRANCH  23  24
HETATM   24  C   UNL     1     -12.370  13.278  63.312  1.00  0.00    -0.317 C  
HETATM   25  C   UNL     1     -12.630  11.977  63.504  1.00  0.00    -0.625 C  
ENDBRANCH  23  24
ENDBRANCH  21  23
ENDBRANCH  17  21
BRANCH  20  26
HETATM   26  N   UNL     1      -8.951  17.337  67.467  1.00  0.00    -0.221 NA 
HETATM   27  H   UNL     1      -8.785  17.344  68.474  1.00  0.00     0.000 HD 
BRANCH  26  28
HETATM   28  C   UNL     1      -8.947  18.572  66.720  1.00  0.00    -0.293 C  
BRANCH  28  29
HETATM   29  C   UNL     1      -9.797  19.571  67.461  1.00  0.00    -0.470 C  
HETATM   30  C   UNL     1     -10.053  19.537  68.777  1.00  0.00    -0.519 C  
ENDBRANCH  28  29
ENDBRANCH  26  28
ENDBRANCH  20  26
ENDBRANCH  14  15
ENDBRANCH   8   9
BRANCH   8  31
HETATM   31  C   UNL     1      -9.559   7.745  67.277  1.00  0.00    -0.207 A  
HETATM   32  C   UNL     1      -9.386   5.275  65.946  1.00  0.00    -0.155 A  
HETATM   33  C   UNL     1     -10.619   5.746  66.368  1.00  0.00    -0.219 A  
HETATM   34  F   UNL     1      -9.300   4.075  65.352  1.00  0.00    -0.130 F  
HETATM   35  C   UNL     1      -8.326   7.262  66.799  1.00  0.00    -0.119 A  
HETATM   36  C   UNL     1     -10.709   6.981  67.017  1.00  0.00    -0.423 A  
HETATM   37  C   UNL     1      -8.239   6.029  66.141  1.00  0.00    -0.121 A  
ENDBRANCH   8  31
ENDBRANCH   5   8
TORSDOF 10
ENDMDL
MODEL       24
REMARK 921   NORMALIZED FREE ENERGY PREDICTED BY IDOCK:   -5.87 KCAL/MOL
REMARK 922        TOTAL FREE ENERGY PREDICTED BY IDOCK:  -10.64 KCAL/MOL
REMARK 923 INTER-LIGAND FREE ENERGY PREDICTED BY IDOCK:   -9.89 KCAL/MOL
REMARK 924 INTRA-LIGAND FREE ENERGY PREDICTED BY IDOCK:   -0.75 KCAL/MOL
REMARK 927      BINDING AFFINITY PREDICTED BY RF-SCORE:    0.00 PKD
ROOT
HETATM    1  F   UNL     1     -13.958  15.671  73.307  1.00  0.00    -0.519 F  
HETATM    2  C   UNL     1     -13.162  15.522  72.240  1.00  0.00    -0.448 A  
HETATM    3  C   UNL     1     -11.782  15.566  72.404  1.00  0.00    -0.570 A  
HETATM    4  C   UNL     1     -10.948  15.441  71.290  1.00  0.00    -0.240 A  
HETATM    5  C   UNL     1     -11.490  15.266  70.002  1.00  0.00    -0.317 A  
HETATM    6  C   UNL     1     -12.890  15.185  69.872  1.00  0.00    -0.038 A  
HETATM    7  C   UNL     1     -13.723  15.321  70.987  1.00  0.00    -0.452 A  
ENDROOT
BRANCH   5   8
HETATM    8  C   UNL     1     -10.558  15.165  68.780  1.00  0.00    -0.236 C  
BRANCH   8   9
HETATM    9  N   UNL     1     -11.299  14.806  67.537  1.00  0.00    -0.332 NA 
HETATM   10  C   UNL     1     -12.246  13.660  67.725  1.00  0.00    -0.166 C  
HETATM   11  C   UNL     1     -11.645  12.223  67.703  1.00  0.00    -0.354 C  
HETATM   12  C   UNL     1     -10.415  14.467  66.388  1.00  0.00    -0.295 C  
HETATM   13  C   UNL     1      -9.743  13.078  66.451  1.00  0.00    -0.268 C  
HETATM   14  N   UNL     1     -10.798  12.061  66.513  1.00  0.00    -0.265 NA 
BRANCH  14  15
HETATM   15  C   UNL     1     -10.354  10.747  66.355  1.00  0.00    -0.248 A  
HETATM   16  N   UNL     1      -9.413  10.502  65.455  1.00  0.00    -0.200 NA 
HETATM   17  C   UNL     1      -9.044   9.240  65.315  1.00  0.00    -0.215 A  
HETATM   18  N   UNL     1     -10.904   9.801  67.112  1.00  0.00    -0.200 NA 
HETATM   19  N   UNL     1      -9.586   8.230  65.976  1.00  0.00    -0.140 NA 
HETATM   20  C   UNL     1     -10.484   8.558  66.894  1.00  0.00    -0.275 A  
BRANCH  17  21
HETATM   21  N   UNL     1      -7.982   8.928  64.486  1.00  0.00    -0.127 NA 
HETATM   22  H   UNL     1      -8.009   8.116  63.871  1.00  0.00     0.000 HD 
BRANCH  21  23
HETATM   23  C   UNL     1      -6.838   9.800  64.528  1.00  0.00    -0.118 C  
BRANCH  23  24
HETATM   24  C   UNL     1      -5.635   8.913  64.460  1.00  0.00    -0.063 C  
HETATM   25  C   UNL     1      -5.524   7.825  63.683  1.00  0.00    -0.048 C  
ENDBRANCH  23  24
ENDBRANCH  21  23
ENDBRANCH  17  21
BRANCH  20  26
HETATM   26  N   UNL     1     -10.894   7.519  67.709  1.00  0.00    -0.479 NA 
HETATM   27  H   UNL     1     -11.677   6.926  67.434  1.00  0.00     0.000 HD 
BRANCH  26  28
HETATM   28  C   UNL     1     -10.202   7.282  68.952  1.00  0.00    -0.193 C  
BRANCH  28  29
HETATM   29  C   UNL     1     -10.924   6.185  69.689  1.00  0.00    -0.459 C  
HETATM   30  C   UNL     1     -11.604   6.345  70.834  1.00  0.00    -0.393 C  
ENDBRANCH  28  29
ENDBRANCH  26  28
ENDBRANCH  20  26
ENDBRANCH  14  15
ENDBRANCH   8   9
BRANCH   8  31
HETATM   31  C   UNL     1      -9.708  16.455  68.665  1.00  0.00    -0.239 A  
HETATM   32  C   UNL     1      -8.238  18.849  68.562  1.00  0.00    -0.353 A  
HETATM   33  C   UNL     1      -7.579  17.641  68.731  1.00  0.00    -0.253 A  
HETATM   34  F   UNL     1      -7.538  19.993  68.559  1.00  0.00    -0.348 F  
HETATM   35  C   UNL     1     -10.347  17.691  68.450  1.00  0.00    -0.375 A  
HETATM   36  C   UNL     1      -8.307  16.448  68.768  1.00  0.00    -0.242 A  
HETATM   37  C   UNL     1      -9.615  18.884  68.406  1.00  0.00    -0.420 A  
ENDBRANCH   8  31
ENDBRANCH   5   8
TORSDOF 10
ENDMDL
MODEL       25
REMARK 921   NORMALIZED FREE ENERGY PREDICTED BY IDOCK:   -5.87 KCAL/MOL
REMARK 922        TOTAL FREE ENERGY PREDICTED BY IDOCK:  -10.64 KCAL/MOL
REMARK 923 INTER-LIGAND FREE ENERGY PREDICTED BY IDOCK:   -9.56 KCAL/MOL
REMARK 924 INTRA-LIGAND FREE ENERGY PREDICTED BY IDOCK:   -1.08 KCAL/MOL
REMARK 927      BINDING AFFINITY PREDICTED BY RF-SCORE:    0.00 PKD
ROOT
HETATM    1  F   UNL     1     -11.213   4.451  74.168  1.00  0.00    -0.292 F  
HETATM    2  C   UNL     1     -10.975   5.078  73.009  1.00  0.00    -0.295 A  
HETATM    3  C   UNL     1     -11.974   5.852  72.431  1.00  0.00    -0.206 A  
HETATM    4  C   UNL     1     -11.739   6.483  71.206  1.00  0.00    -0.386 A  
HETATM    5  C   UNL     1     -10.499   6.348  70.553  1.00  0.00    -0.270 A  
HETATM    6  C   UNL     1      -9.492   5.590  71.182  1.00  0.00    -0.197 A  
HETATM    7  C   UNL     1      -9.733   4.950  72.403  1.00  0.00    -0.200 A  
ENDROOT
BRANCH   5   8
HETATM    8  C   UNL     1     -10.268   7.021  69.187  1.00  0.00    -0.187 C  
BRANCH   8   9
HETATM    9  N   UNL     1      -9.148   8.004  69.228  1.00  0.00    -0.148 NA 
HETATM   10  C   UNL     1      -9.355   9.093  70.237  1.00  0.00    -0.220 C  
HETATM   11  C   UNL     1     -10.289  10.273  69.836  1.00  0.00    -0.233 C  
HETATM   12  C   UNL     1      -8.876   8.659  67.919  1.00  0.00    -0.137 C  
HETATM   13  C   UNL     1      -9.886   9.748  67.495  1.00  0.00    -0.167 C  
HETATM   14  N   UNL     1      -9.888  10.795  68.522  1.00  0.00    -0.169 NA 
BRANCH  14  15
HETATM   15  C   UNL     1     -10.587  11.952  68.176  1.00  0.00    -0.208 A  
HETATM   16  N   UNL     1     -10.475  12.413  66.940  1.00  0.00    -0.223 NA 
HETATM   17  C   UNL     1     -11.129  13.529  66.663  1.00  0.00    -0.298 A  
HETATM   18  N   UNL     1     -11.330  12.542  69.110  1.00  0.00    -0.271 NA 
HETATM   19  N   UNL     1     -11.833  14.216  67.549  1.00  0.00    -0.387 NA 
HETATM   20  C   UNL     1     -11.940  13.667  68.750  1.00  0.00    -0.359 A  
BRANCH  17  21
HETATM   21  N   UNL     1     -11.158  13.998  65.363  1.00  0.00    -0.309 NA 
HETATM   22  H   UNL     1     -11.431  13.396  64.587  1.00  0.00     0.000 HD 
BRANCH  21  23
HETATM   23  C   UNL     1     -10.786  15.372  65.152  1.00  0.00    -0.440 C  
BRANCH  23  24
HETATM   24  C   UNL     1      -9.406  15.521  65.712  1.00  0.00    -0.292 C  
HETATM   25  C   UNL     1      -8.877  16.669  66.160  1.00  0.00    -0.323 C  
ENDBRANCH  23  24
ENDBRANCH  21  23
ENDBRANCH  17  21
BRANCH  20  26
HETATM   26  N   UNL     1     -12.836  14.290  69.600  1.00  0.00    -0.390 NA 
HETATM   27  H   UNL     1     -13.792  13.944  69.685  1.00  0.00     0.000 HD 
BRANCH  26  28
HETATM   28  C   UNL     1     -12.405  15.436  70.363  1.00  0.00    -0.402 C  
BRANCH  28  29
HETATM   29  C   UNL     1     -13.212  15.483  71.634  1.00  0.00    -0.575 C  
HETATM   30  C   UNL     1     -14.328  14.776  71.863  1.00  0.00    -0.657 C  
ENDBRANCH  28  29
ENDBRANCH  26  28
ENDBRANCH  20  26
ENDBRANCH  14  15
ENDBRANCH   8   9
BRANCH   8  31
HETATM   31  C   UNL     1     -10.126   5.938  68.090  1.00  0.00    -0.199 A  
HETATM   32  C   UNL     1      -9.841   4.072  66.006  1.00  0.00    -0.166 A  
HETATM   33  C   UNL     1      -9.057   3.961  67.144  1.00  0.00    -0.174 A  
HETATM   34  F   UNL     1      -9.672   3.208  64.994  1.00  0.00    -0.158 F  
HETATM   35  C   UNL     1     -10.939   6.001  66.942  1.00  0.00    -0.350 A  
HETATM   36  C   UNL     1      -9.208   4.879  68.187  1.00  0.00    -0.151 A  
HETATM   37  C   UNL     1     -10.793   5.075  65.902  1.00  0.00    -0.123 A  
ENDBRANCH   8  31
ENDBRANCH   5   8
TORSDOF 10
ENDMDL
MODEL       26
REMARK 921   NORMALIZED FREE ENERGY PREDICTED BY IDOCK:   -5.82 KCAL/MOL
REMARK 922        TOTAL FREE ENERGY PREDICTED BY IDOCK:  -10.57 KCAL/MOL
REMARK 923 INTER-LIGAND FREE ENERGY PREDICTED BY IDOCK:  -10.42 KCAL/MOL
REMARK 924 INTRA-LIGAND FREE ENERGY PREDICTED BY IDOCK:   -0.15 KCAL/MOL
REMARK 927      BINDING AFFINITY PREDICTED BY RF-SCORE:    0.00 PKD
ROOT
HETATM    1  F   UNL     1      -8.792  21.269  67.157  1.00  0.00    -0.303 F  
HETATM    2  C   UNL     1      -9.195  19.994  67.093  1.00  0.00    -0.368 A  
HETATM    3  C   UNL     1      -8.340  19.031  66.570  1.00  0.00    -0.313 A  
HETATM    4  C   UNL     1      -8.767  17.704  66.474  1.00  0.00    -0.289 A  
HETATM    5  C   UNL     1     -10.055  17.330  66.905  1.00  0.00    -0.304 A  
HETATM    6  C   UNL     1     -10.884  18.319  67.467  1.00  0.00    -0.282 A  
HETATM    7  C   UNL     1     -10.458  19.649  67.553  1.00  0.00    -0.589 A  
ENDROOT
BRANCH   5   8
HETATM    8  C   UNL     1     -10.524  15.870  66.760  1.00  0.00    -0.309 C  
BRANCH   8   9
HETATM    9  N   UNL     1      -9.519  15.025  66.053  1.00  0.00    -0.310 NA 
HETATM   10  C   UNL     1     -10.138  14.022  65.128  1.00  0.00    -0.314 C  
HETATM   11  C   UNL     1     -10.696  12.713  65.761  1.00  0.00    -0.268 C  
HETATM   12  C   UNL     1      -8.609  14.282  66.968  1.00  0.00    -0.192 C  
HETATM   13  C   UNL     1      -9.227  13.053  67.670  1.00  0.00    -0.200 C  
HETATM   14  N   UNL     1      -9.678  12.115  66.636  1.00  0.00    -0.213 NA 
BRANCH  14  15
HETATM   15  C   UNL     1     -10.061  10.860  67.112  1.00  0.00    -0.198 A  
HETATM   16  N   UNL     1     -10.640  10.784  68.300  1.00  0.00    -0.187 NA 
HETATM   17  C   UNL     1     -10.957   9.573  68.727  1.00  0.00    -0.080 A  
HETATM   18  N   UNL     1      -9.817   9.796  66.349  1.00  0.00    -0.219 NA 
HETATM   19  N   UNL     1     -10.689   8.459  68.065  1.00  0.00    -0.119 NA 
HETATM   20  C   UNL     1     -10.155   8.617  66.863  1.00  0.00    -0.285 A  
BRANCH  17  21
HETATM   21  N   UNL     1     -11.675   9.430  69.900  1.00  0.00    -0.445 NA 
HETATM   22  H   UNL     1     -12.168   8.565  70.119  1.00  0.00     0.000 HD 
BRANCH  21  23
HETATM   23  C   UNL     1     -11.697  10.555  70.798  1.00  0.00    -0.356 C  
BRANCH  23  24
HETATM   24  C   UNL     1     -12.934  10.402  71.627  1.00  0.00    -0.581 C  
HETATM   25  C   UNL     1     -13.357   9.254  72.173  1.00  0.00    -0.537 C  
ENDBRANCH  23  24
ENDBRANCH  21  23
ENDBRANCH  17  21
BRANCH  20  26
HETATM   26  N   UNL     1     -10.065   7.463  66.107  1.00  0.00    -0.408 NA 
HETATM   27  H   UNL     1     -10.313   7.475  65.117  1.00  0.00     0.000 HD 
BRANCH  26  28
HETATM   28  C   UNL     1      -9.617   6.243  66.731  1.00  0.00    -0.153 C  
BRANCH  28  29
HETATM   29  C   UNL     1     -10.534   5.130  66.297  1.00  0.00    -0.341 C  
HETATM   30  C   UNL     1     -10.294   4.287  65.283  1.00  0.00    -0.220 C  
ENDBRANCH  28  29
ENDBRANCH  26  28
ENDBRANCH  20  26
ENDBRANCH  14  15
ENDBRANCH   8   9
BRANCH   8  31
HETATM   31  C   UNL     1     -10.959  15.323  68.142  1.00  0.00    -0.292 A  
HETATM   32  C   UNL     1     -11.773  14.460  70.691  1.00  0.00    -0.252 A  
HETATM   33  C   UNL     1     -12.411  13.972  69.561  1.00  0.00    -0.275 A  
HETATM   34  F   UNL     1     -12.193  14.082  71.907  1.00  0.00    -0.361 F  
HETATM   35  C   UNL     1     -10.300  15.768  69.304  1.00  0.00    -0.245 A  
HETATM   36  C   UNL     1     -11.998  14.389  68.292  1.00  0.00    -0.323 A  
HETATM   37  C   UNL     1     -10.710  15.343  70.574  1.00  0.00    -0.290 A  
ENDBRANCH   8  31
ENDBRANCH   5   8
TORSDOF 10
ENDMDL
MODEL       27
REMARK 921   NORMALIZED FREE ENERGY PREDICTED BY IDOCK:   -5.80 KCAL/MOL
REMARK 922        TOTAL FREE ENERGY PREDICTED BY IDOCK:  -10.53 KCAL/MOL
REMARK 923 INTER-LIGAND FREE ENERGY PREDICTED BY IDOCK:   -9.27 KCAL/MOL
REMARK 924 INTRA-LIGAND FREE ENERGY PREDICTED BY IDOCK:   -1.27 KCAL/MOL
REMARK 927      BINDING AFFINITY PREDICTED BY RF-SCORE:    0.00 PKD
ROOT
HETATM    1  F   UNL     1     -13.854  16.460  73.529  1.00  0.00    -0.604 F  
HETATM    2  C   UNL     1     -13.209  15.825  72.542  1.00  0.00    -0.487 A  
HETATM    3  C   UNL     1     -11.840  16.012  72.387  1.00  0.00    -0.639 A  
HETATM    4  C   UNL     1     -11.169  15.375  71.340  1.00  0.00    -0.402 A  
HETATM    5  C   UNL     1     -11.863  14.541  70.442  1.00  0.00    -0.378 A  
HETATM    6  C   UNL     1     -13.242  14.339  70.648  1.00  0.00    -0.172 A  
HETATM    7  C   UNL     1     -13.914  14.986  71.690  1.00  0.00    -0.594 A  
ENDROOT
BRANCH   5   8
HETATM    8  C   UNL     1     -11.115  13.875  69.272  1.00  0.00    -0.218 C  
BRANCH   8   9
HETATM    9  N   UNL     1     -12.013  13.015  68.449  1.00  0.00    -0.322 NA 
HETATM   10  C   UNL     1     -12.145  11.620  68.981  1.00  0.00    -0.225 C  
HETATM   11  C   UNL     1     -10.998  10.619  68.655  1.00  0.00    -0.246 C  
HETATM   12  C   UNL     1     -11.600  12.909  67.022  1.00  0.00    -0.362 C  
HETATM   13  C   UNL     1     -10.386  11.996  66.746  1.00  0.00    -0.207 C  
HETATM   14  N   UNL     1     -10.714  10.645  67.214  1.00  0.00    -0.270 NA 
BRANCH  14  15
HETATM   15  C   UNL     1      -9.802   9.658  66.837  1.00  0.00    -0.200 A  
HETATM   16  N   UNL     1     -10.245   8.423  66.655  1.00  0.00    -0.294 NA 
HETATM   17  C   UNL     1      -9.343   7.513  66.329  1.00  0.00    -0.120 A  
HETATM   18  N   UNL     1      -8.525  10.004  66.685  1.00  0.00    -0.125 NA 
HETATM   19  N   UNL     1      -8.047   7.756  66.225  1.00  0.00    -0.109 NA 
HETATM   20  C   UNL     1      -7.685   9.023  66.372  1.00  0.00    -0.099 A  
BRANCH  17  21
HETATM   21  N   UNL     1      -9.752   6.233  66.003  1.00  0.00    -0.385 NA 
HETATM   22  H   UNL     1      -9.557   5.830  65.087  1.00  0.00     0.000 HD 
BRANCH  21  23
HETATM   23  C   UNL     1     -10.466   5.494  67.012  1.00  0.00    -0.274 C  
BRANCH  23  24
HETATM   24  C   UNL     1      -9.428   4.780  67.819  1.00  0.00    -0.180 C  
HETATM   25  C   UNL     1      -9.467   3.482  68.148  1.00  0.00    -0.215 C  
ENDBRANCH  23  24
ENDBRANCH  21  23
ENDBRANCH  17  21
BRANCH  20  26
HETATM   26  N   UNL     1      -6.364   9.293  66.065  1.00  0.00    -0.067 NA 
HETATM   27  H   UNL     1      -5.612   8.773  66.521  1.00  0.00     0.000 HD 
BRANCH  26  28
HETATM   28  C   UNL     1      -6.058  10.316  65.096  1.00  0.00    -0.130 C  
BRANCH  28  29
HETATM   29  C   UNL     1      -6.374   9.774  63.726  1.00  0.00    -0.118 C  
HETATM   30  C   UNL     1      -7.258  10.309  62.873  1.00  0.00    -0.133 C  
ENDBRANCH  28  29
ENDBRANCH  26  28
ENDBRANCH  20  26
ENDBRANCH  14  15
ENDBRANCH   8   9
BRANCH   8  31
HETATM   31  C   UNL     1     -10.345  14.949  68.466  1.00  0.00    -0.237 A  
HETATM   32  C   UNL     1      -8.895  16.799  66.922  1.00  0.00    -0.218 A  
HETATM   33  C   UNL     1     -10.269  16.934  67.051  1.00  0.00    -0.297 A  
HETATM   34  F   UNL     1      -8.213  17.656  66.149  1.00  0.00    -0.275 F  
HETATM   35  C   UNL     1      -8.944  14.862  68.354  1.00  0.00    -0.183 A  
HETATM   36  C   UNL     1     -10.990  16.023  67.830  1.00  0.00    -0.307 A  
HETATM   37  C   UNL     1      -8.224  15.780  67.580  1.00  0.00    -0.181 A  
ENDBRANCH   8  31
ENDBRANCH   5   8
TORSDOF 10
ENDMDL
MODEL       28
REMARK 921   NORMALIZED FREE ENERGY PREDICTED BY IDOCK:   -5.78 KCAL/MOL
REMARK 922        TOTAL FREE ENERGY PREDICTED BY IDOCK:  -10.51 KCAL/MOL
REMARK 923 INTER-LIGAND FREE ENERGY PREDICTED BY IDOCK:  -10.43 KCAL/MOL
REMARK 924 INTRA-LIGAND FREE ENERGY PREDICTED BY IDOCK:   -0.08 KCAL/MOL
REMARK 927      BINDING AFFINITY PREDICTED BY RF-SCORE:    0.00 PKD
ROOT
HETATM    1  F   UNL     1      -8.821  21.299  67.099  1.00  0.00    -0.303 F  
HETATM    2  C   UNL     1      -9.215  20.020  67.059  1.00  0.00    -0.376 A  
HETATM    3  C   UNL     1      -8.339  19.047  66.592  1.00  0.00    -0.310 A  
HETATM    4  C   UNL     1      -8.757  17.715  66.520  1.00  0.00    -0.289 A  
HETATM    5  C   UNL     1     -10.056  17.346  66.920  1.00  0.00    -0.314 A  
HETATM    6  C   UNL     1     -10.908  18.347  67.427  1.00  0.00    -0.306 A  
HETATM    7  C   UNL     1     -10.491  19.681  67.488  1.00  0.00    -0.589 A  
ENDROOT
BRANCH   5   8
HETATM    8  C   UNL     1     -10.513  15.881  66.802  1.00  0.00    -0.309 C  
BRANCH   8   9
HETATM    9  N   UNL     1      -9.497  15.029  66.119  1.00  0.00    -0.305 NA 
HETATM   10  C   UNL     1     -10.103  13.939  65.288  1.00  0.00    -0.303 C  
HETATM   11  C   UNL     1     -10.583  12.657  66.030  1.00  0.00    -0.270 C  
HETATM   12  C   UNL     1      -8.526  14.390  67.050  1.00  0.00    -0.181 C  
HETATM   13  C   UNL     1      -9.067  13.189  67.856  1.00  0.00    -0.207 C  
HETATM   14  N   UNL     1      -9.512  12.163  66.907  1.00  0.00    -0.204 NA 
BRANCH  14  15
HETATM   15  C   UNL     1      -9.825  10.931  67.481  1.00  0.00    -0.168 A  
HETATM   16  N   UNL     1     -10.024   9.893  66.683  1.00  0.00    -0.205 NA 
HETATM   17  C   UNL     1     -10.349   8.751  67.266  1.00  0.00    -0.290 A  
HETATM   18  N   UNL     1      -9.916  10.859  68.807  1.00  0.00    -0.189 NA 
HETATM   19  N   UNL     1     -10.527   8.609  68.570  1.00  0.00    -0.199 NA 
HETATM   20  C   UNL     1     -10.262   9.677  69.308  1.00  0.00    -0.205 A  
BRANCH  17  21
HETATM   21  N   UNL     1     -10.448   7.601  66.506  1.00  0.00    -0.486 NA 
HETATM   22  H   UNL     1     -10.138   7.577  65.535  1.00  0.00     0.000 HD 
BRANCH  21  23
HETATM   23  C   UNL     1     -11.008   6.438  67.144  1.00  0.00    -0.399 C  
BRANCH  23  24
HETATM   24  C   UNL     1     -10.678   5.278  66.260  1.00  0.00    -0.260 C  
HETATM   25  C   UNL     1      -9.495   4.648  66.224  1.00  0.00    -0.167 C  
ENDBRANCH  23  24
ENDBRANCH  21  23
ENDBRANCH  17  21
BRANCH  20  26
HETATM   26  N   UNL     1     -10.261   9.458  70.673  1.00  0.00    -0.267 NA 
HETATM   27  H   UNL     1      -9.379   9.358  71.179  1.00  0.00     0.000 HD 
BRANCH  26  28
HETATM   28  C   UNL     1     -11.517   9.372  71.376  1.00  0.00    -0.379 C  
BRANCH  28  29
HETATM   29  C   UNL     1     -12.211  10.704  71.261  1.00  0.00    -0.447 C  
HETATM   30  C   UNL     1     -13.359  11.029  71.873  1.00  0.00    -0.423 C  
ENDBRANCH  28  29
ENDBRANCH  26  28
ENDBRANCH  20  26
ENDBRANCH  14  15
ENDBRANCH   8   9
BRANCH   8  31
HETATM   31  C   UNL     1     -10.953  15.358  68.192  1.00  0.00    -0.297 A  
HETATM   32  C   UNL     1     -11.781  14.541  70.751  1.00  0.00    -0.266 A  
HETATM   33  C   UNL     1     -12.384  14.001  69.626  1.00  0.00    -0.309 A  
HETATM   34  F   UNL     1     -12.209  14.184  71.971  1.00  0.00    -0.358 F  
HETATM   35  C   UNL     1     -10.329  15.857  69.351  1.00  0.00    -0.265 A  
HETATM   36  C   UNL     1     -11.964  14.396  68.352  1.00  0.00    -0.328 A  
HETATM   37  C   UNL     1     -10.746  15.455  70.626  1.00  0.00    -0.255 A  
ENDBRANCH   8  31
ENDBRANCH   5   8
TORSDOF 10
ENDMDL
MODEL       29
REMARK 921   NORMALIZED FREE ENERGY PREDICTED BY IDOCK:   -5.77 KCAL/MOL
REMARK 922        TOTAL FREE ENERGY PREDICTED BY IDOCK:  -10.49 KCAL/MOL
REMARK 923 INTER-LIGAND FREE ENERGY PREDICTED BY IDOCK:  -10.30 KCAL/MOL
REMARK 924 INTRA-LIGAND FREE ENERGY PREDICTED BY IDOCK:   -0.19 KCAL/MOL
REMARK 927      BINDING AFFINITY PREDICTED BY RF-SCORE:    0.00 PKD
ROOT
HETATM    1  F   UNL     1     -10.541   3.094  73.331  1.00  0.00    -0.197 F  
HETATM    2  C   UNL     1     -10.656   4.171  72.543  1.00  0.00    -0.087 A  
HETATM    3  C   UNL     1     -10.058   4.168  71.288  1.00  0.00    -0.155 A  
HETATM    4  C   UNL     1     -10.150   5.301  70.475  1.00  0.00    -0.315 A  
HETATM    5  C   UNL     1     -10.846   6.445  70.912  1.00  0.00    -0.316 A  
HETATM    6  C   UNL     1     -11.475   6.404  72.171  1.00  0.00    -0.344 A  
HETATM    7  C   UNL     1     -11.373   5.273  72.988  1.00  0.00    -0.376 A  
ENDROOT
BRANCH   5   8
HETATM    8  C   UNL     1     -10.908   7.698  70.019  1.00  0.00    -0.243 C  
BRANCH   8   9
HETATM    9  N   UNL     1     -10.574   8.941  70.771  1.00  0.00    -0.211 NA 
HETATM   10  C   UNL     1     -11.767   9.811  71.033  1.00  0.00    -0.370 C  
HETATM   11  C   UNL     1     -12.254  10.725  69.871  1.00  0.00    -0.313 C  
HETATM   12  C   UNL     1      -9.545   9.787  70.107  1.00  0.00    -0.237 C  
HETATM   13  C   UNL     1     -10.034  10.596  68.886  1.00  0.00    -0.204 C  
HETATM   14  N   UNL     1     -11.118  11.481  69.327  1.00  0.00    -0.249 NA 
BRANCH  14  15
HETATM   15  C   UNL     1     -11.516  12.431  68.386  1.00  0.00    -0.310 A  
HETATM   16  N   UNL     1     -11.857  12.018  67.175  1.00  0.00    -0.604 NA 
HETATM   17  C   UNL     1     -12.197  12.953  66.304  1.00  0.00    -0.270 A  
HETATM   18  N   UNL     1     -11.527  13.712  68.749  1.00  0.00    -0.285 NA 
HETATM   19  N   UNL     1     -12.169  14.251  66.561  1.00  0.00    -0.437 NA 
HETATM   20  C   UNL     1     -11.867  14.586  67.807  1.00  0.00    -0.357 A  
BRANCH  17  21
HETATM   21  N   UNL     1     -12.683  12.586  65.063  1.00  0.00    -0.727 NA 
HETATM   22  H   UNL     1     -13.624  12.209  64.951  1.00  0.00     0.000 HD 
BRANCH  21  23
HETATM   23  C   UNL     1     -11.805  12.760  63.936  1.00  0.00    -0.468 C  
BRANCH  23  24
HETATM   24  C   UNL     1     -11.002  11.501  63.835  1.00  0.00    -0.474 C  
HETATM   25  C   UNL     1      -9.839  11.379  63.179  1.00  0.00    -0.413 C  
ENDBRANCH  23  24
ENDBRANCH  21  23
ENDBRANCH  17  21
BRANCH  20  26
HETATM   26  N   UNL     1     -12.034  15.925  68.110  1.00  0.00    -0.255 NA 
HETATM   27  H   UNL     1     -12.883  16.415  67.827  1.00  0.00     0.000 HD 
BRANCH  26  28
HETATM   28  C   UNL     1     -10.996  16.621  68.829  1.00  0.00    -0.309 C  
BRANCH  28  29
HETATM   29  C   UNL     1     -10.480  17.731  67.950  1.00  0.00    -0.401 C  
HETATM   30  C   UNL     1      -9.339  17.687  67.248  1.00  0.00    -0.249 C  
ENDBRANCH  28  29
ENDBRANCH  26  28
ENDBRANCH  20  26
ENDBRANCH  14  15
ENDBRANCH   8   9
BRANCH   8  31
HETATM   31  C   UNL     1     -10.054   7.475  68.746  1.00  0.00    -0.191 A  
HETATM   32  C   UNL     1      -8.465   6.945  66.488  1.00  0.00    -0.125 A  
HETATM   33  C   UNL     1      -9.813   7.229  66.333  1.00  0.00    -0.124 A  
HETATM   34  F   UNL     1      -7.720   6.648  65.414  1.00  0.00    -0.079 F  
HETATM   35  C   UNL     1      -8.674   7.226  68.872  1.00  0.00    -0.128 A  
HETATM   36  C   UNL     1     -10.601   7.507  67.454  1.00  0.00    -0.364 A  
HETATM   37  C   UNL     1      -7.884   6.956  67.747  1.00  0.00    -0.113 A  
ENDBRANCH   8  31
ENDBRANCH   5   8
TORSDOF 10
ENDMDL
MODEL       30
REMARK 921   NORMALIZED FREE ENERGY PREDICTED BY IDOCK:   -5.73 KCAL/MOL
REMARK 922        TOTAL FREE ENERGY PREDICTED BY IDOCK:  -10.42 KCAL/MOL
REMARK 923 INTER-LIGAND FREE ENERGY PREDICTED BY IDOCK:  -10.02 KCAL/MOL
REMARK 924 INTRA-LIGAND FREE ENERGY PREDICTED BY IDOCK:   -0.40 KCAL/MOL
REMARK 927      BINDING AFFINITY PREDICTED BY RF-SCORE:    0.00 PKD
ROOT
HETATM    1  F   UNL     1     -12.576  13.791  62.793  1.00  0.00    -0.260 F  
HETATM    2  C   UNL     1     -11.733  13.088  63.561  1.00  0.00    -0.471 A  
HETATM    3  C   UNL     1     -10.888  13.755  64.439  1.00  0.00    -0.343 A  
HETATM    4  C   UNL     1      -9.986  13.027  65.220  1.00  0.00    -0.186 A  
HETATM    5  C   UNL     1      -9.928  11.623  65.131  1.00  0.00    -0.297 A  
HETATM    6  C   UNL     1     -10.825  10.971  64.263  1.00  0.00    -0.262 A  
HETATM    7  C   UNL     1     -11.719  11.703  63.474  1.00  0.00    -0.384 A  
ENDROOT
BRANCH   5   8
HETATM    8  C   UNL     1      -8.904  10.838  65.973  1.00  0.00    -0.180 C  
BRANCH   8   9
HETATM    9  N   UNL     1      -9.464  10.418  67.289  1.00  0.00    -0.153 NA 
HETATM   10  C   UNL     1     -10.953  10.570  67.373  1.00  0.00    -0.288 C  
HETATM   11  C   UNL     1     -11.511  11.994  67.666  1.00  0.00    -0.322 C  
HETATM   12  C   UNL     1      -8.878  11.142  68.450  1.00  0.00    -0.157 C  
HETATM   13  C   UNL     1      -9.367  12.593  68.647  1.00  0.00     0.023 C  
HETATM   14  N   UNL     1     -10.822  12.564  68.832  1.00  0.00    -0.224 NA 
BRANCH  14  15
HETATM   15  C   UNL     1     -11.384  13.775  69.239  1.00  0.00    -0.273 A  
HETATM   16  N   UNL     1     -12.483  13.746  69.978  1.00  0.00    -0.286 NA 
HETATM   17  C   UNL     1     -13.000  14.915  70.315  1.00  0.00    -0.150 A  
HETATM   18  N   UNL     1     -10.792  14.904  68.857  1.00  0.00    -0.241 NA 
HETATM   19  N   UNL     1     -12.516  16.082  69.921  1.00  0.00    -0.119 NA 
HETATM   20  C   UNL     1     -11.388  16.034  69.227  1.00  0.00    -0.356 A  
BRANCH  17  21
HETATM   21  N   UNL     1     -14.072  14.961  71.187  1.00  0.00    -0.627 NA 
HETATM   22  H   UNL     1     -14.977  15.332  70.898  1.00  0.00     0.000 HD 
BRANCH  21  23
HETATM   23  C   UNL     1     -13.856  14.463  72.520  1.00  0.00    -0.456 C  
BRANCH  23  24
HETATM   24  C   UNL     1     -13.349  15.621  73.320  1.00  0.00    -0.618 C  
HETATM   25  C   UNL     1     -12.377  15.554  74.241  1.00  0.00    -0.815 C  
ENDBRANCH  23  24
ENDBRANCH  21  23
ENDBRANCH  17  21
BRANCH  20  26
HETATM   26  N   UNL     1     -10.791  17.259  68.994  1.00  0.00    -0.310 NA 
HETATM   27  H   UNL     1     -10.565  17.878  69.774  1.00  0.00     0.000 HD 
BRANCH  26  28
HETATM   28  C   UNL     1     -10.491  17.653  67.640  1.00  0.00    -0.372 C  
BRANCH  28  29
HETATM   29  C   UNL     1     -10.832  19.113  67.490  1.00  0.00    -0.512 C  
HETATM   30  C   UNL     1     -10.505  19.875  66.437  1.00  0.00    -0.589 C  
ENDBRANCH  28  29
ENDBRANCH  26  28
ENDBRANCH  20  26
ENDBRANCH  14  15
ENDBRANCH   8   9
BRANCH   8  31
HETATM   31  C   UNL     1      -8.316   9.680  65.130  1.00  0.00    -0.142 A  
HETATM   32  C   UNL     1      -7.377   7.530  63.581  1.00  0.00    -0.094 A  
HETATM   33  C   UNL     1      -7.056   8.830  63.224  1.00  0.00    -0.089 A  
HETATM   34  F   UNL     1      -6.966   6.509  62.814  1.00  0.00    -0.038 F  
HETATM   35  C   UNL     1      -8.590   8.347  65.495  1.00  0.00    -0.201 A  
HETATM   36  C   UNL     1      -7.510   9.900  64.001  1.00  0.00    -0.135 A  
HETATM   37  C   UNL     1      -8.128   7.277  64.719  1.00  0.00    -0.097 A  
ENDBRANCH   8  31
ENDBRANCH   5   8
TORSDOF 10
ENDMDL
MODEL       31
REMARK 921   NORMALIZED FREE ENERGY PREDICTED BY IDOCK:   -5.69 KCAL/MOL
REMARK 922        TOTAL FREE ENERGY PREDICTED BY IDOCK:  -10.36 KCAL/MOL
REMARK 923 INTER-LIGAND FREE ENERGY PREDICTED BY IDOCK:   -9.98 KCAL/MOL
REMARK 924 INTRA-LIGAND FREE ENERGY PREDICTED BY IDOCK:   -0.38 KCAL/MOL
REMARK 927      BINDING AFFINITY PREDICTED BY RF-SCORE:    0.00 PKD
ROOT
HETATM    1  F   UNL     1     -10.920  19.963  67.490  1.00  0.00    -0.508 F  
HETATM    2  C   UNL     1     -10.658  18.661  67.315  1.00  0.00    -0.430 A  
HETATM    3  C   UNL     1     -10.625  17.814  68.417  1.00  0.00    -0.297 A  
HETATM    4  C   UNL     1     -10.322  16.462  68.242  1.00  0.00    -0.279 A  
HETATM    5  C   UNL     1     -10.053  15.945  66.960  1.00  0.00    -0.268 A  
HETATM    6  C   UNL     1     -10.132  16.818  65.857  1.00  0.00    -0.324 A  
HETATM    7  C   UNL     1     -10.425  18.174  66.036  1.00  0.00    -0.346 A  
ENDROOT
BRANCH   5   8
HETATM    8  C   UNL     1      -9.686  14.459  66.788  1.00  0.00    -0.270 C  
BRANCH   8   9
HETATM    9  N   UNL     1      -9.600  13.747  68.094  1.00  0.00    -0.211 NA 
HETATM   10  C   UNL     1      -8.374  12.895  68.223  1.00  0.00    -0.157 C  
HETATM   11  C   UNL     1      -8.399  11.496  67.538  1.00  0.00    -0.143 C  
HETATM   12  C   UNL     1     -10.775  12.880  68.384  1.00  0.00    -0.255 C  
HETATM   13  C   UNL     1     -10.831  11.549  67.603  1.00  0.00    -0.227 C  
HETATM   14  N   UNL     1      -9.623  10.780  67.923  1.00  0.00    -0.158 NA 
BRANCH  14  15
HETATM   15  C   UNL     1      -9.631   9.462  67.466  1.00  0.00    -0.141 A  
HETATM   16  N   UNL     1      -8.746   9.107  66.546  1.00  0.00    -0.126 NA 
HETATM   17  C   UNL     1      -8.809   7.857  66.116  1.00  0.00    -0.166 A  
HETATM   18  N   UNL     1     -10.534   8.624  67.971  1.00  0.00    -0.218 NA 
HETATM   19  N   UNL     1      -9.717   6.980  66.514  1.00  0.00    -0.159 NA 
HETATM   20  C   UNL     1     -10.535   7.392  67.472  1.00  0.00    -0.268 A  
BRANCH  17  21
HETATM   21  N   UNL     1      -7.840   7.384  65.251  1.00  0.00    -0.113 NA 
HETATM   22  H   UNL     1      -7.086   6.780  65.577  1.00  0.00     0.000 HD 
BRANCH  21  23
HETATM   23  C   UNL     1      -7.941   7.781  63.871  1.00  0.00    -0.103 C  
BRANCH  23  24
HETATM   24  C   UNL     1      -6.740   8.629  63.592  1.00  0.00    -0.088 C  
HETATM   25  C   UNL     1      -6.776   9.917  63.222  1.00  0.00    -0.124 C  
ENDBRANCH  23  24
ENDBRANCH  21  23
ENDBRANCH  17  21
BRANCH  20  26
HETATM   26  N   UNL     1     -11.343   6.409  68.013  1.00  0.00    -0.599 NA 
HETATM   27  H   UNL     1     -12.207   6.136  67.545  1.00  0.00     0.000 HD 
BRANCH  26  28
HETATM   28  C   UNL     1     -10.951   5.775  69.248  1.00  0.00    -0.260 C  
BRANCH  28  29
HETATM   29  C   UNL     1     -11.650   6.481  70.380  1.00  0.00    -0.470 C  
HETATM   30  C   UNL     1     -11.104   6.743  71.577  1.00  0.00    -0.289 C  
ENDBRANCH  28  29
ENDBRANCH  26  28
ENDBRANCH  20  26
ENDBRANCH  14  15
ENDBRANCH   8   9
BRANCH   8  31
HETATM   31  C   UNL     1     -10.643  13.801  65.764  1.00  0.00    -0.294 A  
HETATM   32  C   UNL     1     -12.324  12.483  63.935  1.00  0.00    -0.485 A  
HETATM   33  C   UNL     1     -12.875  13.249  64.951  1.00  0.00    -0.321 A  
HETATM   34  F   UNL     1     -13.128  11.819  63.093  1.00  0.00    -0.670 F  
HETATM   35  C   UNL     1     -10.110  13.052  64.697  1.00  0.00    -0.253 A  
HETATM   36  C   UNL     1     -12.040  13.916  65.853  1.00  0.00    -0.459 A  
HETATM   37  C   UNL     1     -10.948  12.391  63.790  1.00  0.00    -0.501 A  
ENDBRANCH   8  31
ENDBRANCH   5   8
TORSDOF 10
ENDMDL
MODEL       32
REMARK 921   NORMALIZED FREE ENERGY PREDICTED BY IDOCK:   -5.68 KCAL/MOL
REMARK 922        TOTAL FREE ENERGY PREDICTED BY IDOCK:  -10.35 KCAL/MOL
REMARK 923 INTER-LIGAND FREE ENERGY PREDICTED BY IDOCK:   -8.97 KCAL/MOL
REMARK 924 INTRA-LIGAND FREE ENERGY PREDICTED BY IDOCK:   -1.38 KCAL/MOL
REMARK 927      BINDING AFFINITY PREDICTED BY RF-SCORE:    0.00 PKD
ROOT
HETATM    1  F   UNL     1     -12.573  13.026  62.705  1.00  0.00    -0.350 F  
HETATM    2  C   UNL     1     -11.892  12.739  63.822  1.00  0.00    -0.499 A  
HETATM    3  C   UNL     1     -12.573  12.623  65.028  1.00  0.00    -0.504 A  
HETATM    4  C   UNL     1     -11.863  12.353  66.201  1.00  0.00    -0.442 A  
HETATM    5  C   UNL     1     -10.464  12.193  66.175  1.00  0.00    -0.281 A  
HETATM    6  C   UNL     1      -9.806  12.276  64.932  1.00  0.00    -0.142 A  
HETATM    7  C   UNL     1     -10.518  12.557  63.761  1.00  0.00    -0.451 A  
ENDROOT
BRANCH   5   8
HETATM    8  C   UNL     1      -9.692  11.931  67.481  1.00  0.00    -0.181 C  
BRANCH   8   9
HETATM    9  N   UNL     1      -8.746  10.785  67.354  1.00  0.00    -0.126 NA 
HETATM   10  C   UNL     1      -9.396   9.537  66.839  1.00  0.00    -0.146 C  
HETATM   11  C   UNL     1     -10.199   8.676  67.858  1.00  0.00    -0.219 C  
HETATM   12  C   UNL     1      -8.055  10.434  68.625  1.00  0.00    -0.118 C  
HETATM   13  C   UNL     1      -8.913   9.678  69.663  1.00  0.00    -0.203 C  
HETATM   14  N   UNL     1      -9.377   8.428  69.051  1.00  0.00    -0.147 NA 
BRANCH  14  15
HETATM   15  C   UNL     1      -9.983   7.534  69.935  1.00  0.00    -0.189 A  
HETATM   16  N   UNL     1      -9.450   6.330  70.079  1.00  0.00    -0.154 NA 
HETATM   17  C   UNL     1     -10.073   5.503  70.902  1.00  0.00    -0.213 A  
HETATM   18  N   UNL     1     -11.073   7.932  70.586  1.00  0.00    -0.257 NA 
HETATM   19  N   UNL     1     -11.199   5.793  71.535  1.00  0.00    -0.222 NA 
HETATM   20  C   UNL     1     -11.644   7.032  71.380  1.00  0.00    -0.292 A  
BRANCH  17  21
HETATM   21  N   UNL     1      -9.505   4.277  71.196  1.00  0.00    -0.151 NA 
HETATM   22  H   UNL     1      -9.680   3.810  72.086  1.00  0.00     0.000 HD 
BRANCH  21  23
HETATM   23  C   UNL     1      -8.657   3.688  70.193  1.00  0.00    -0.061 C  
BRANCH  23  24
HETATM   24  C   UNL     1      -9.407   2.512  69.651  1.00  0.00    -0.171 C  
HETATM   25  C   UNL     1      -9.236   1.986  68.430  1.00  0.00    -0.234 C  
ENDBRANCH  23  24
ENDBRANCH  21  23
ENDBRANCH  17  21
BRANCH  20  26
HETATM   26  N   UNL     1     -12.703   7.378  72.198  1.00  0.00    -0.502 NA 
HETATM   27  H   UNL     1     -12.724   7.073  73.172  1.00  0.00     0.000 HD 
BRANCH  26  28
HETATM   28  C   UNL     1     -13.778   8.176  71.662  1.00  0.00    -0.355 C  
BRANCH  28  29
HETATM   29  C   UNL     1     -13.645   9.573  72.210  1.00  0.00    -0.494 C  
HETATM   30  C   UNL     1     -13.089  10.605  71.560  1.00  0.00    -0.527 C  
ENDBRANCH  28  29
ENDBRANCH  26  28
ENDBRANCH  20  26
ENDBRANCH  14  15
ENDBRANCH   8   9
BRANCH   8  31
HETATM   31  C   UNL     1      -9.038  13.246  67.973  1.00  0.00    -0.202 A  
HETATM   32  C   UNL     1      -7.880  15.594  68.996  1.00  0.00    -0.204 A  
HETATM   33  C   UNL     1      -7.137  14.759  68.177  1.00  0.00    -0.126 A  
HETATM   34  F   UNL     1      -7.311  16.690  69.520  1.00  0.00    -0.238 F  
HETATM   35  C   UNL     1      -9.783  14.135  68.771  1.00  0.00    -0.148 A  
HETATM   36  C   UNL     1      -7.716  13.598  67.655  1.00  0.00    -0.184 A  
HETATM   37  C   UNL     1      -9.204  15.301  69.286  1.00  0.00    -0.233 A  
ENDBRANCH   8  31
ENDBRANCH   5   8
TORSDOF 10
ENDMDL
MODEL       33
REMARK 921   NORMALIZED FREE ENERGY PREDICTED BY IDOCK:   -5.67 KCAL/MOL
REMARK 922        TOTAL FREE ENERGY PREDICTED BY IDOCK:  -10.34 KCAL/MOL
REMARK 923 INTER-LIGAND FREE ENERGY PREDICTED BY IDOCK:   -9.84 KCAL/MOL
REMARK 924 INTRA-LIGAND FREE ENERGY PREDICTED BY IDOCK:   -0.50 KCAL/MOL
REMARK 927      BINDING AFFINITY PREDICTED BY RF-SCORE:    0.00 PKD
ROOT
HETATM    1  F   UNL     1     -11.458  16.166  64.090  1.00  0.00    -0.486 F  
HETATM    2  C   UNL     1     -11.391  15.161  64.973  1.00  0.00    -0.380 A  
HETATM    3  C   UNL     1     -10.374  15.149  65.920  1.00  0.00    -0.344 A  
HETATM    4  C   UNL     1     -10.282  14.087  66.823  1.00  0.00    -0.264 A  
HETATM    5  C   UNL     1     -11.212  13.030  66.788  1.00  0.00    -0.333 A  
HETATM    6  C   UNL     1     -12.255  13.090  65.843  1.00  0.00    -0.493 A  
HETATM    7  C   UNL     1     -12.338  14.148  64.933  1.00  0.00    -0.446 A  
ENDROOT
BRANCH   5   8
HETATM    8  C   UNL     1     -11.076  11.849  67.767  1.00  0.00    -0.239 C  
BRANCH   8   9
HETATM    9  N   UNL     1      -9.663  11.395  67.907  1.00  0.00    -0.175 NA 
HETATM   10  C   UNL     1      -9.150  10.683  66.693  1.00  0.00    -0.160 C  
HETATM   11  C   UNL     1      -9.544   9.186  66.521  1.00  0.00    -0.227 C  
HETATM   12  C   UNL     1      -9.432  10.502  69.076  1.00  0.00    -0.201 C  
HETATM   13  C   UNL     1      -9.938   9.052  68.918  1.00  0.00    -0.189 C  
HETATM   14  N   UNL     1      -9.259   8.454  67.762  1.00  0.00    -0.131 NA 
BRANCH  14  15
HETATM   15  C   UNL     1      -9.447   7.078  67.621  1.00  0.00    -0.121 A  
HETATM   16  N   UNL     1     -10.171   6.641  66.603  1.00  0.00    -0.170 NA 
HETATM   17  C   UNL     1     -10.351   5.333  66.524  1.00  0.00    -0.285 A  
HETATM   18  N   UNL     1      -8.894   6.271  68.524  1.00  0.00    -0.115 NA 
HETATM   19  N   UNL     1      -9.896   4.466  67.415  1.00  0.00    -0.172 NA 
HETATM   20  C   UNL     1      -9.138   4.972  68.377  1.00  0.00    -0.114 A  
BRANCH  17  21
HETATM   21  N   UNL     1     -10.989   4.797  65.421  1.00  0.00    -0.843 NA 
HETATM   22  H   UNL     1     -11.909   5.125  65.128  1.00  0.00     0.000 HD 
BRANCH  21  23
HETATM   23  C   UNL     1     -10.299   3.757  64.703  1.00  0.00    -0.163 C  
BRANCH  23  24
HETATM   24  C   UNL     1      -9.426   4.449  63.704  1.00  0.00    -0.062 C  
HETATM   25  C   UNL     1      -8.133   4.169  63.486  1.00  0.00    -0.090 C  
ENDBRANCH  23  24
ENDBRANCH  21  23
ENDBRANCH  17  21
BRANCH  20  26
HETATM   26  N   UNL     1      -8.511   4.038  69.180  1.00  0.00    -0.075 NA 
HETATM   27  H   UNL     1      -7.495   4.046  69.283  1.00  0.00     0.000 HD 
BRANCH  26  28
HETATM   28  C   UNL     1      -9.305   3.052  69.870  1.00  0.00    -0.151 C  
BRANCH  28  29
HETATM   29  C   UNL     1      -9.168   3.292  71.351  1.00  0.00    -0.192 C  
HETATM   30  C   UNL     1     -10.005   2.822  72.287  1.00  0.00    -0.240 C  
ENDBRANCH  28  29
ENDBRANCH  26  28
ENDBRANCH  20  26
ENDBRANCH  14  15
ENDBRANCH   8   9
BRANCH   8  31
HETATM   31  C   UNL     1     -11.768  12.202  69.107  1.00  0.00    -0.384 A  
HETATM   32  C   UNL     1     -12.921  12.777  71.606  1.00  0.00    -0.303 A  
HETATM   33  C   UNL     1     -12.631  13.808  70.726  1.00  0.00    -0.410 A  
HETATM   34  F   UNL     1     -13.428  13.057  72.815  1.00  0.00    -0.594 F  
HETATM   35  C   UNL     1     -12.113  11.171  70.003  1.00  0.00    -0.437 A  
HETATM   36  C   UNL     1     -12.071  13.522  69.477  1.00  0.00    -0.352 A  
HETATM   37  C   UNL     1     -12.681  11.458  71.250  1.00  0.00    -0.498 A  
ENDBRANCH   8  31
ENDBRANCH   5   8
TORSDOF 10
ENDMDL
MODEL       34
REMARK 921   NORMALIZED FREE ENERGY PREDICTED BY IDOCK:   -5.66 KCAL/MOL
REMARK 922        TOTAL FREE ENERGY PREDICTED BY IDOCK:  -10.31 KCAL/MOL
REMARK 923 INTER-LIGAND FREE ENERGY PREDICTED BY IDOCK:   -8.91 KCAL/MOL
REMARK 924 INTRA-LIGAND FREE ENERGY PREDICTED BY IDOCK:   -1.40 KCAL/MOL
REMARK 927      BINDING AFFINITY PREDICTED BY RF-SCORE:    0.00 PKD
ROOT
HETATM    1  F   UNL     1     -12.517  16.087  64.160  1.00  0.00    -0.276 F  
HETATM    2  C   UNL     1     -11.968  15.026  64.764  1.00  0.00    -0.311 A  
HETATM    3  C   UNL     1     -12.726  13.878  64.956  1.00  0.00    -0.372 A  
HETATM    4  C   UNL     1     -12.166  12.779  65.613  1.00  0.00    -0.503 A  
HETATM    5  C   UNL     1     -10.838  12.821  66.080  1.00  0.00    -0.303 A  
HETATM    6  C   UNL     1     -10.081  13.983  65.836  1.00  0.00    -0.336 A  
HETATM    7  C   UNL     1     -10.647  15.086  65.188  1.00  0.00    -0.440 A  
ENDROOT
BRANCH   5   8
HETATM    8  C   UNL     1     -10.246  11.615  66.834  1.00  0.00    -0.214 C  
BRANCH   8   9
HETATM    9  N   UNL     1     -11.305  10.714  67.371  1.00  0.00    -0.416 NA 
HETATM   10  C   UNL     1     -11.814  11.136  68.715  1.00  0.00    -0.320 C  
HETATM   11  C   UNL     1     -10.954  10.756  69.957  1.00  0.00    -0.211 C  
HETATM   12  C   UNL     1     -10.882   9.291  67.482  1.00  0.00    -0.112 C  
HETATM   13  C   UNL     1      -9.937   8.967  68.660  1.00  0.00    -0.177 C  
HETATM   14  N   UNL     1     -10.620   9.326  69.907  1.00  0.00    -0.217 NA 
BRANCH  14  15
HETATM   15  C   UNL     1      -9.982   8.890  71.070  1.00  0.00    -0.256 A  
HETATM   16  N   UNL     1      -8.695   9.164  71.225  1.00  0.00    -0.316 NA 
HETATM   17  C   UNL     1      -8.122   8.706  72.325  1.00  0.00    -0.022 A  
HETATM   18  N   UNL     1     -10.697   8.212  71.965  1.00  0.00    -0.257 NA 
HETATM   19  N   UNL     1      -8.740   7.967  73.232  1.00  0.00    -0.209 NA 
HETATM   20  C   UNL     1     -10.037   7.777  73.034  1.00  0.00    -0.320 A  
BRANCH  17  21
HETATM   21  N   UNL     1      -6.817   9.060  72.612  1.00  0.00    -0.314 NA 
HETATM   22  H   UNL     1      -6.547   9.391  73.538  1.00  0.00     0.000 HD 
BRANCH  21  23
HETATM   23  C   UNL     1      -5.855   8.943  71.547  1.00  0.00    -0.057 C  
BRANCH  23  24
HETATM   24  C   UNL     1      -5.274  10.309  71.357  1.00  0.00    -0.080 C  
HETATM   25  C   UNL     1      -5.774  11.252  70.545  1.00  0.00    -0.143 C  
ENDBRANCH  23  24
ENDBRANCH  21  23
ENDBRANCH  17  21
BRANCH  20  26
HETATM   26  N   UNL     1     -10.706   7.175  74.083  1.00  0.00    -0.541 NA 
HETATM   27  H   UNL     1     -11.388   7.703  74.630  1.00  0.00     0.000 HD 
BRANCH  26  28
HETATM   28  C   UNL     1     -10.432   5.795  74.398  1.00  0.00    -0.176 C  
BRANCH  28  29
HETATM   29  C   UNL     1     -11.159   4.932  73.399  1.00  0.00    -0.415 C  
HETATM   30  C   UNL     1     -11.281   3.600  73.479  1.00  0.00    -0.285 C  
ENDBRANCH  28  29
ENDBRANCH  26  28
ENDBRANCH  20  26
ENDBRANCH  14  15
ENDBRANCH   8   9
BRANCH   8  31
HETATM   31  C   UNL     1      -9.197  10.907  65.942  1.00  0.00    -0.214 A  
HETATM   32  C   UNL     1      -7.325   9.709  64.219  1.00  0.00    -0.122 A  
HETATM   33  C   UNL     1      -6.914  10.211  65.445  1.00  0.00    -0.139 A  
HETATM   34  F   UNL     1      -6.423   9.179  63.381  1.00  0.00    -0.089 F  
HETATM   35  C   UNL     1      -9.595  10.350  64.711  1.00  0.00    -0.352 A  
HETATM   36  C   UNL     1      -7.846  10.794  66.308  1.00  0.00    -0.156 A  
HETATM   37  C   UNL     1      -8.661   9.759  63.851  1.00  0.00    -0.236 A  
ENDBRANCH   8  31
ENDBRANCH   5   8
TORSDOF 10
ENDMDL
MODEL       35
REMARK 921   NORMALIZED FREE ENERGY PREDICTED BY IDOCK:   -5.62 KCAL/MOL
REMARK 922        TOTAL FREE ENERGY PREDICTED BY IDOCK:  -10.26 KCAL/MOL
REMARK 923 INTER-LIGAND FREE ENERGY PREDICTED BY IDOCK:   -8.87 KCAL/MOL
REMARK 924 INTRA-LIGAND FREE ENERGY PREDICTED BY IDOCK:   -1.38 KCAL/MOL
REMARK 927      BINDING AFFINITY PREDICTED BY RF-SCORE:    0.00 PKD
ROOT
HETATM    1  F   UNL     1      -5.715   7.118  65.668  1.00  0.00    -0.029 F  
HETATM    2  C   UNL     1      -6.615   7.566  66.552  1.00  0.00    -0.053 A  
HETATM    3  C   UNL     1      -7.890   7.013  66.571  1.00  0.00    -0.106 A  
HETATM    4  C   UNL     1      -8.842   7.499  67.472  1.00  0.00    -0.127 A  
HETATM    5  C   UNL     1      -8.522   8.539  68.366  1.00  0.00    -0.138 A  
HETATM    6  C   UNL     1      -7.210   9.052  68.351  1.00  0.00    -0.077 A  
HETATM    7  C   UNL     1      -6.263   8.572  67.441  1.00  0.00    -0.056 A  
ENDROOT
BRANCH   5   8
HETATM    8  C   UNL     1      -9.592   9.086  69.328  1.00  0.00    -0.162 C  
BRANCH   8   9
HETATM    9  N   UNL     1     -10.860   9.429  68.622  1.00  0.00    -0.159 NA 
HETATM   10  C   UNL     1     -10.654  10.336  67.447  1.00  0.00    -0.270 C  
HETATM   11  C   UNL     1     -10.484  11.856  67.738  1.00  0.00    -0.202 C  
HETATM   12  C   UNL     1     -11.883  10.063  69.498  1.00  0.00     0.085 C  
HETATM   13  C   UNL     1     -11.625  11.541  69.863  1.00  0.00    -0.308 C  
HETATM   14  N   UNL     1     -11.567  12.316  68.618  1.00  0.00    -0.300 NA 
BRANCH  14  15
HETATM   15  C   UNL     1     -11.557  13.700  68.791  1.00  0.00    -0.324 A  
HETATM   16  N   UNL     1     -10.827  14.435  67.966  1.00  0.00    -0.240 NA 
HETATM   17  C   UNL     1     -10.820  15.740  68.185  1.00  0.00    -0.307 A  
HETATM   18  N   UNL     1     -12.279  14.216  69.783  1.00  0.00    -0.341 NA 
HETATM   19  N   UNL     1     -11.452  16.327  69.188  1.00  0.00    -0.298 NA 
HETATM   20  C   UNL     1     -12.202  15.535  69.940  1.00  0.00    -0.325 A  
BRANCH  17  21
HETATM   21  N   UNL     1     -10.182  16.578  67.290  1.00  0.00    -0.282 NA 
HETATM   22  H   UNL     1      -9.573  16.211  66.559  1.00  0.00     0.000 HD 
BRANCH  21  23
HETATM   23  C   UNL     1     -10.414  17.991  67.434  1.00  0.00    -0.387 C  
BRANCH  23  24
HETATM   24  C   UNL     1      -9.068  18.617  67.624  1.00  0.00    -0.294 C  
HETATM   25  C   UNL     1      -8.780  19.564  68.528  1.00  0.00    -0.388 C  
ENDBRANCH  23  24
ENDBRANCH  21  23
ENDBRANCH  17  21
BRANCH  20  26
HETATM   26  N   UNL     1     -13.007  16.187  70.855  1.00  0.00    -0.341 NA 
HETATM   27  H   UNL     1     -12.997  17.206  70.917  1.00  0.00     0.000 HD 
BRANCH  26  28
HETATM   28  C   UNL     1     -13.862  15.413  71.722  1.00  0.00    -0.519 C  
BRANCH  28  29
HETATM   29  C   UNL     1     -13.526  15.764  73.148  1.00  0.00    -0.652 C  
HETATM   30  C   UNL     1     -12.362  15.490  73.753  1.00  0.00    -0.734 C  
ENDBRANCH  28  29
ENDBRANCH  26  28
ENDBRANCH  20  26
ENDBRANCH  14  15
ENDBRANCH   8   9
BRANCH   8  31
HETATM   31  C   UNL     1      -9.769   8.113  70.519  1.00  0.00    -0.181 A  
HETATM   32  C   UNL     1     -10.037   6.244  72.603  1.00  0.00    -0.178 A  
HETATM   33  C   UNL     1      -9.302   7.402  72.804  1.00  0.00    -0.201 A  
HETATM   34  F   UNL     1     -10.125   5.333  73.583  1.00  0.00    -0.156 F  
HETATM   35  C   UNL     1     -10.546   6.950  70.356  1.00  0.00    -0.247 A  
HETATM   36  C   UNL     1      -9.180   8.339  71.774  1.00  0.00    -0.261 A  
HETATM   37  C   UNL     1     -10.673   6.016  71.392  1.00  0.00    -0.314 A  
ENDBRANCH   8  31
ENDBRANCH   5   8
TORSDOF 10
ENDMDL
MODEL       36
REMARK 921   NORMALIZED FREE ENERGY PREDICTED BY IDOCK:   -5.61 KCAL/MOL
REMARK 922        TOTAL FREE ENERGY PREDICTED BY IDOCK:  -10.23 KCAL/MOL
REMARK 923 INTER-LIGAND FREE ENERGY PREDICTED BY IDOCK:   -9.43 KCAL/MOL
REMARK 924 INTRA-LIGAND FREE ENERGY PREDICTED BY IDOCK:   -0.80 KCAL/MOL
REMARK 927      BINDING AFFINITY PREDICTED BY RF-SCORE:    0.00 PKD
ROOT
HETATM    1  F   UNL     1     -12.825  12.298  62.841  1.00  0.00    -0.470 F  
HETATM    2  C   UNL     1     -12.103  12.213  63.965  1.00  0.00    -0.443 A  
HETATM    3  C   UNL     1     -10.809  11.708  63.912  1.00  0.00    -0.471 A  
HETATM    4  C   UNL     1     -10.063  11.589  65.087  1.00  0.00    -0.313 A  
HETATM    5  C   UNL     1     -10.606  11.980  66.327  1.00  0.00    -0.287 A  
HETATM    6  C   UNL     1     -11.904  12.525  66.344  1.00  0.00    -0.445 A  
HETATM    7  C   UNL     1     -12.653  12.633  65.168  1.00  0.00    -0.459 A  
ENDROOT
BRANCH   5   8
HETATM    8  C   UNL     1      -9.784  11.810  67.618  1.00  0.00    -0.182 C  
BRANCH   8   9
HETATM    9  N   UNL     1      -8.907  10.605  67.571  1.00  0.00    -0.132 NA 
HETATM   10  C   UNL     1      -9.621   9.374  67.102  1.00  0.00    -0.154 C  
HETATM   11  C   UNL     1     -10.496   8.614  68.143  1.00  0.00    -0.187 C  
HETATM   12  C   UNL     1      -8.266  10.278  68.874  1.00  0.00    -0.130 C  
HETATM   13  C   UNL     1      -9.190   9.629  69.927  1.00  0.00    -0.229 C  
HETATM   14  N   UNL     1      -9.717   8.379  69.366  1.00  0.00    -0.175 NA 
BRANCH  14  15
HETATM   15  C   UNL     1     -10.394   7.569  70.278  1.00  0.00    -0.213 A  
HETATM   16  N   UNL     1     -11.521   8.019  70.808  1.00  0.00    -0.278 NA 
HETATM   17  C   UNL     1     -12.114   7.233  71.691  1.00  0.00    -0.325 A  
HETATM   18  N   UNL     1      -9.869   6.383  70.578  1.00  0.00    -0.182 NA 
HETATM   19  N   UNL     1     -11.626   6.072  72.097  1.00  0.00    -0.307 NA 
HETATM   20  C   UNL     1     -10.523   5.665  71.486  1.00  0.00    -0.239 A  
BRANCH  17  21
HETATM   21  N   UNL     1     -13.355   7.582  72.190  1.00  0.00    -0.521 NA 
HETATM   22  H   UNL     1     -13.798   7.047  72.937  1.00  0.00     0.000 HD 
BRANCH  21  23
HETATM   23  C   UNL     1     -13.996   8.733  71.610  1.00  0.00    -0.394 C  
BRANCH  23  24
HETATM   24  C   UNL     1     -13.357   9.929  72.242  1.00  0.00    -0.429 C  
HETATM   25  C   UNL     1     -13.023  11.056  71.597  1.00  0.00    -0.561 C  
ENDBRANCH  23  24
ENDBRANCH  21  23
ENDBRANCH  17  21
BRANCH  20  26
HETATM   26  N   UNL     1     -10.138   4.369  71.776  1.00  0.00    -0.184 NA 
HETATM   27  H   UNL     1     -10.163   3.650  71.053  1.00  0.00     0.000 HD 
BRANCH  26  28
HETATM   28  C   UNL     1      -9.699   4.045  73.112  1.00  0.00    -0.126 C  
BRANCH  28  29
HETATM   29  C   UNL     1     -10.575   2.938  73.637  1.00  0.00    -0.262 C  
HETATM   30  C   UNL     1     -10.145   1.717  73.988  1.00  0.00    -0.139 C  
ENDBRANCH  28  29
ENDBRANCH  26  28
ENDBRANCH  20  26
ENDBRANCH  14  15
ENDBRANCH   8   9
BRANCH   8  31
HETATM   31  C   UNL     1      -9.038  13.129  67.938  1.00  0.00    -0.207 A  
HETATM   32  C   UNL     1      -7.690  15.490  68.655  1.00  0.00    -0.144 A  
HETATM   33  C   UNL     1      -7.113  14.613  67.750  1.00  0.00    -0.193 A  
HETATM   34  F   UNL     1      -7.025  16.592  69.030  1.00  0.00    -0.163 F  
HETATM   35  C   UNL     1      -9.620  14.058  68.822  1.00  0.00    -0.098 A  
HETATM   36  C   UNL     1      -7.789  13.445  67.381  1.00  0.00    -0.154 A  
HETATM   37  C   UNL     1      -8.946  15.231  69.183  1.00  0.00    -0.233 A  
ENDBRANCH   8  31
ENDBRANCH   5   8
TORSDOF 10
ENDMDL
MODEL       37
REMARK 921   NORMALIZED FREE ENERGY PREDICTED BY IDOCK:   -5.61 KCAL/MOL
REMARK 922        TOTAL FREE ENERGY PREDICTED BY IDOCK:  -10.23 KCAL/MOL
REMARK 923 INTER-LIGAND FREE ENERGY PREDICTED BY IDOCK:   -8.84 KCAL/MOL
REMARK 924 INTRA-LIGAND FREE ENERGY PREDICTED BY IDOCK:   -1.39 KCAL/MOL
REMARK 927      BINDING AFFINITY PREDICTED BY RF-SCORE:    0.00 PKD
ROOT
HETATM    1  F   UNL     1     -12.120  16.140  64.116  1.00  0.00    -0.431 F  
HETATM    2  C   UNL     1     -11.649  15.052  64.738  1.00  0.00    -0.395 A  
HETATM    3  C   UNL     1     -12.447  13.919  64.836  1.00  0.00    -0.420 A  
HETATM    4  C   UNL     1     -11.970  12.792  65.511  1.00  0.00    -0.497 A  
HETATM    5  C   UNL     1     -10.687  12.790  66.091  1.00  0.00    -0.297 A  
HETATM    6  C   UNL     1      -9.886  13.939  65.942  1.00  0.00    -0.287 A  
HETATM    7  C   UNL     1     -10.369  15.069  65.275  1.00  0.00    -0.424 A  
ENDROOT
BRANCH   5   8
HETATM    8  C   UNL     1     -10.190  11.554  66.862  1.00  0.00    -0.217 C  
BRANCH   8   9
HETATM    9  N   UNL     1     -11.316  10.726  67.382  1.00  0.00    -0.446 NA 
HETATM   10  C   UNL     1     -11.817  11.184  68.718  1.00  0.00    -0.320 C  
HETATM   11  C   UNL     1     -11.006  10.749  69.974  1.00  0.00    -0.211 C  
HETATM   12  C   UNL     1     -10.991   9.278  67.502  1.00  0.00     0.023 C  
HETATM   13  C   UNL     1     -10.089   8.894  68.695  1.00  0.00    -0.188 C  
HETATM   14  N   UNL     1     -10.768   9.300  69.931  1.00  0.00    -0.227 NA 
BRANCH  14  15
HETATM   15  C   UNL     1     -10.179   8.825  71.104  1.00  0.00    -0.246 A  
HETATM   16  N   UNL     1     -10.921   8.114  71.940  1.00  0.00    -0.257 NA 
HETATM   17  C   UNL     1     -10.334   7.711  73.055  1.00  0.00    -0.335 A  
HETATM   18  N   UNL     1      -8.901   9.117  71.331  1.00  0.00    -0.326 NA 
HETATM   19  N   UNL     1      -9.090   8.014  73.390  1.00  0.00    -0.275 NA 
HETATM   20  C   UNL     1      -8.396   8.685  72.482  1.00  0.00    -0.010 A  
BRANCH  17  21
HETATM   21  N   UNL     1     -11.008   6.862  73.912  1.00  0.00    -0.444 NA 
HETATM   22  H   UNL     1     -11.975   7.039  74.185  1.00  0.00     0.000 HD 
BRANCH  21  23
HETATM   23  C   UNL     1     -10.287   5.717  74.404  1.00  0.00    -0.258 C  
BRANCH  23  24
HETATM   24  C   UNL     1     -10.908   4.522  73.751  1.00  0.00    -0.360 C  
HETATM   25  C   UNL     1     -10.325   3.772  72.805  1.00  0.00    -0.238 C  
ENDBRANCH  23  24
ENDBRANCH  21  23
ENDBRANCH  17  21
BRANCH  20  26
HETATM   26  N   UNL     1      -7.048   8.821  72.760  1.00  0.00    -0.335 NA 
HETATM   27  H   UNL     1      -6.717   8.811  73.725  1.00  0.00     0.000 HD 
BRANCH  26  28
HETATM   28  C   UNL     1      -6.115   8.978  71.672  1.00  0.00    -0.074 C  
BRANCH  28  29
HETATM   29  C   UNL     1      -5.795   7.611  71.127  1.00  0.00    -0.035 C  
HETATM   30  C   UNL     1      -5.913   7.249  69.841  1.00  0.00    -0.024 C  
ENDBRANCH  28  29
ENDBRANCH  26  28
ENDBRANCH  20  26
ENDBRANCH  14  15
ENDBRANCH   8   9
BRANCH   8  31
HETATM   31  C   UNL     1      -9.172  10.773  65.995  1.00  0.00    -0.210 A  
HETATM   32  C   UNL     1      -7.356   9.439  64.314  1.00  0.00    -0.109 A  
HETATM   33  C   UNL     1      -6.913   9.997  65.503  1.00  0.00    -0.124 A  
HETATM   34  F   UNL     1      -6.479   8.843  63.492  1.00  0.00    -0.087 F  
HETATM   35  C   UNL     1      -9.602  10.159  64.803  1.00  0.00    -0.378 A  
HETATM   36  C   UNL     1      -7.818  10.649  66.347  1.00  0.00    -0.144 A  
HETATM   37  C   UNL     1      -8.696   9.501  63.963  1.00  0.00    -0.239 A  
ENDBRANCH   8  31
ENDBRANCH   5   8
TORSDOF 10
ENDMDL
MODEL       38
REMARK 921   NORMALIZED FREE ENERGY PREDICTED BY IDOCK:   -5.59 KCAL/MOL
REMARK 922        TOTAL FREE ENERGY PREDICTED BY IDOCK:  -10.20 KCAL/MOL
REMARK 923 INTER-LIGAND FREE ENERGY PREDICTED BY IDOCK:   -9.04 KCAL/MOL
REMARK 924 INTRA-LIGAND FREE ENERGY PREDICTED BY IDOCK:   -1.16 KCAL/MOL
REMARK 927      BINDING AFFINITY PREDICTED BY RF-SCORE:    0.00 PKD
ROOT
HETATM    1  F   UNL     1      -5.239   7.581  68.293  1.00  0.00    -0.021 F  
HETATM    2  C   UNL     1      -6.313   7.430  69.078  1.00  0.00    -0.039 A  
HETATM    3  C   UNL     1      -6.637   8.423  69.996  1.00  0.00    -0.039 A  
HETATM    4  C   UNL     1      -7.740   8.255  70.837  1.00  0.00    -0.082 A  
HETATM    5  C   UNL     1      -8.531   7.093  70.763  1.00  0.00    -0.133 A  
HETATM    6  C   UNL     1      -8.203   6.122  69.797  1.00  0.00    -0.123 A  
HETATM    7  C   UNL     1      -7.092   6.287  68.963  1.00  0.00    -0.081 A  
ENDROOT
BRANCH   5   8
HETATM    8  C   UNL     1      -9.722   6.907  71.722  1.00  0.00    -0.159 C  
BRANCH   8   9
HETATM    9  N   UNL     1     -11.031   7.001  71.016  1.00  0.00    -0.244 NA 
HETATM   10  C   UNL     1     -10.938   7.692  69.689  1.00  0.00    -0.137 C  
HETATM   11  C   UNL     1     -10.904   9.249  69.694  1.00  0.00    -0.212 C  
HETATM   12  C   UNL     1     -12.090   7.692  71.802  1.00  0.00    -0.305 C  
HETATM   13  C   UNL     1     -11.964   9.229  71.884  1.00  0.00    -0.363 C  
HETATM   14  N   UNL     1     -12.006   9.764  70.518  1.00  0.00    -0.240 NA 
BRANCH  14  15
HETATM   15  C   UNL     1     -12.123  11.153  70.438  1.00  0.00    -0.385 A  
HETATM   16  N   UNL     1     -12.856  11.779  71.347  1.00  0.00    -0.386 NA 
HETATM   17  C   UNL     1     -12.966  13.090  71.215  1.00  0.00    -0.243 A  
HETATM   18  N   UNL     1     -11.498  11.781  69.445  1.00  0.00    -0.288 NA 
HETATM   19  N   UNL     1     -12.435  13.784  70.221  1.00  0.00    -0.316 NA 
HETATM   20  C   UNL     1     -11.676  13.097  69.380  1.00  0.00    -0.327 A  
BRANCH  17  21
HETATM   21  N   UNL     1     -13.610  13.822  72.196  1.00  0.00    -0.472 NA 
HETATM   22  H   UNL     1     -13.996  13.373  73.027  1.00  0.00     0.000 HD 
BRANCH  21  23
HETATM   23  C   UNL     1     -13.713  15.244  71.994  1.00  0.00    -0.492 C  
BRANCH  23  24
HETATM   24  C   UNL     1     -13.420  15.875  73.319  1.00  0.00    -0.599 C  
HETATM   25  C   UNL     1     -12.466  15.471  74.170  1.00  0.00    -0.805 C  
ENDBRANCH  23  24
ENDBRANCH  21  23
ENDBRANCH  17  21
BRANCH  20  26
HETATM   26  N   UNL     1     -10.972  13.863  68.469  1.00  0.00    -0.248 NA 
HETATM   27  H   UNL     1      -9.951  13.856  68.469  1.00  0.00     0.000 HD 
BRANCH  26  28
HETATM   28  C   UNL     1     -11.695  14.673  67.519  1.00  0.00    -0.379 C  
BRANCH  28  29
HETATM   29  C   UNL     1     -12.285  13.759  66.477  1.00  0.00    -0.475 C  
HETATM   30  C   UNL     1     -12.352  14.029  65.166  1.00  0.00    -0.468 C  
ENDBRANCH  28  29
ENDBRANCH  26  28
ENDBRANCH  20  26
ENDBRANCH  14  15
ENDBRANCH   8   9
BRANCH   8  31
HETATM   31  C   UNL     1      -9.532   5.608  72.543  1.00  0.00    -0.157 A  
HETATM   32  C   UNL     1      -9.179   3.179  73.915  1.00  0.00    -0.084 A  
HETATM   33  C   UNL     1      -8.312   4.236  74.147  1.00  0.00    -0.095 A  
HETATM   34  F   UNL     1      -8.982   2.008  74.536  1.00  0.00    -0.062 F  
HETATM   35  C   UNL     1     -10.424   4.534  72.360  1.00  0.00    -0.235 A  
HETATM   36  C   UNL     1      -8.495   5.449  73.477  1.00  0.00    -0.112 A  
HETATM   37  C   UNL     1     -10.244   3.322  73.038  1.00  0.00    -0.234 A  
ENDBRANCH   8  31
ENDBRANCH   5   8
TORSDOF 10
ENDMDL
MODEL       39
REMARK 921   NORMALIZED FREE ENERGY PREDICTED BY IDOCK:   -5.55 KCAL/MOL
REMARK 922        TOTAL FREE ENERGY PREDICTED BY IDOCK:  -10.14 KCAL/MOL
REMARK 923 INTER-LIGAND FREE ENERGY PREDICTED BY IDOCK:   -9.43 KCAL/MOL
REMARK 924 INTRA-LIGAND FREE ENERGY PREDICTED BY IDOCK:   -0.71 KCAL/MOL
REMARK 927      BINDING AFFINITY PREDICTED BY RF-SCORE:    0.00 PKD
ROOT
HETATM    1  F   UNL     1     -13.055  11.780  62.596  1.00  0.00    -0.341 F  
HETATM    2  C   UNL     1     -12.307  12.197  63.625  1.00  0.00    -0.568 A  
HETATM    3  C   UNL     1     -10.959  12.474  63.424  1.00  0.00    -0.386 A  
HETATM    4  C   UNL     1     -10.168  12.879  64.502  1.00  0.00    -0.334 A  
HETATM    5  C   UNL     1     -10.721  13.016  65.790  1.00  0.00    -0.291 A  
HETATM    6  C   UNL     1     -12.097  12.767  65.955  1.00  0.00    -0.485 A  
HETATM    7  C   UNL     1     -12.886  12.350  64.877  1.00  0.00    -0.092 A  
ENDROOT
BRANCH   5   8
HETATM    8  C   UNL     1      -9.828  13.430  66.974  1.00  0.00    -0.250 C  
BRANCH   8   9
HETATM    9  N   UNL     1      -8.663  12.515  67.145  1.00  0.00    -0.194 NA 
HETATM   10  C   UNL     1      -8.699  11.335  66.222  1.00  0.00    -0.184 C  
HETATM   11  C   UNL     1      -9.613  10.139  66.624  1.00  0.00    -0.183 C  
HETATM   12  C   UNL     1      -8.511  11.990  68.531  1.00  0.00    -0.098 C  
HETATM   13  C   UNL     1      -9.508  10.883  68.938  1.00  0.00    -0.172 C  
HETATM   14  N   UNL     1      -9.340   9.754  68.015  1.00  0.00    -0.128 NA 
BRANCH  14  15
HETATM   15  C   UNL     1     -10.016   8.591  68.386  1.00  0.00    -0.187 A  
HETATM   16  N   UNL     1     -10.487   8.500  69.620  1.00  0.00    -0.219 NA 
HETATM   17  C   UNL     1     -11.093   7.368  69.939  1.00  0.00    -0.190 A  
HETATM   18  N   UNL     1     -10.149   7.625  67.480  1.00  0.00    -0.183 NA 
HETATM   19  N   UNL     1     -11.208   6.332  69.124  1.00  0.00    -0.397 NA 
HETATM   20  C   UNL     1     -10.758   6.516  67.891  1.00  0.00    -0.287 A  
BRANCH  17  21
HETATM   21  N   UNL     1     -11.717   7.252  71.167  1.00  0.00    -0.290 NA 
HETATM   22  H   UNL     1     -11.209   6.942  71.995  1.00  0.00     0.000 HD 
BRANCH  21  23
HETATM   23  C   UNL     1     -13.116   7.587  71.228  1.00  0.00    -0.266 C  
BRANCH  23  24
HETATM   24  C   UNL     1     -13.230   8.728  72.188  1.00  0.00    -0.456 C  
HETATM   25  C   UNL     1     -12.824   9.983  71.945  1.00  0.00    -0.524 C  
ENDBRANCH  23  24
ENDBRANCH  21  23
ENDBRANCH  17  21
BRANCH  20  26
HETATM   26  N   UNL     1     -11.062   5.504  67.000  1.00  0.00    -0.344 NA 
HETATM   27  H   UNL     1     -11.999   5.432  66.602  1.00  0.00     0.000 HD 
BRANCH  26  28
HETATM   28  C   UNL     1     -10.042   4.550  66.640  1.00  0.00    -0.209 C  
BRANCH  28  29
HETATM   29  C   UNL     1      -9.611   4.836  65.225  1.00  0.00    -0.126 C  
HETATM   30  C   UNL     1      -8.478   5.462  64.878  1.00  0.00    -0.148 C  
ENDBRANCH  28  29
ENDBRANCH  26  28
ENDBRANCH  20  26
ENDBRANCH  14  15
ENDBRANCH   8   9
BRANCH   8  31
HETATM   31  C   UNL     1      -9.449  14.926  66.843  1.00  0.00    -0.251 A  
HETATM   32  C   UNL     1      -8.837  17.667  66.720  1.00  0.00    -0.258 A  
HETATM   33  C   UNL     1      -7.814  16.732  66.763  1.00  0.00    -0.281 A  
HETATM   34  F   UNL     1      -8.543  18.975  66.708  1.00  0.00    -0.266 F  
HETATM   35  C   UNL     1     -10.468  15.894  66.754  1.00  0.00    -0.309 A  
HETATM   36  C   UNL     1      -8.117  15.368  66.810  1.00  0.00    -0.212 A  
HETATM   37  C   UNL     1     -10.162  17.260  66.699  1.00  0.00    -0.319 A  
ENDBRANCH   8  31
ENDBRANCH   5   8
TORSDOF 10
ENDMDL
MODEL       40
REMARK 921   NORMALIZED FREE ENERGY PREDICTED BY IDOCK:   -5.50 KCAL/MOL
REMARK 922        TOTAL FREE ENERGY PREDICTED BY IDOCK:  -10.06 KCAL/MOL
REMARK 923 INTER-LIGAND FREE ENERGY PREDICTED BY IDOCK:   -9.10 KCAL/MOL
REMARK 924 INTRA-LIGAND FREE ENERGY PREDICTED BY IDOCK:   -0.96 KCAL/MOL
REMARK 927      BINDING AFFINITY PREDICTED BY RF-SCORE:    0.00 PKD
ROOT
HETATM    1  F   UNL     1     -11.937  16.099  63.879  1.00  0.00    -0.437 F  
HETATM    2  C   UNL     1     -11.654  15.085  64.706  1.00  0.00    -0.395 A  
HETATM    3  C   UNL     1     -12.608  14.100  64.934  1.00  0.00    -0.362 A  
HETATM    4  C   UNL     1     -12.328  13.057  65.821  1.00  0.00    -0.477 A  
HETATM    5  C   UNL     1     -11.087  12.989  66.483  1.00  0.00    -0.315 A  
HETATM    6  C   UNL     1     -10.125  13.979  66.201  1.00  0.00    -0.319 A  
HETATM    7  C   UNL     1     -10.412  15.028  65.322  1.00  0.00    -0.428 A  
ENDROOT
BRANCH   5   8
HETATM    8  C   UNL     1     -10.807  11.852  67.483  1.00  0.00    -0.238 C  
BRANCH   8   9
HETATM    9  N   UNL     1      -9.349  11.577  67.627  1.00  0.00    -0.168 NA 
HETATM   10  C   UNL     1      -8.829  10.601  66.615  1.00  0.00    -0.141 C  
HETATM   11  C   UNL     1      -9.074   9.088  66.890  1.00  0.00    -0.132 C  
HETATM   12  C   UNL     1      -8.963  11.069  68.972  1.00  0.00    -0.059 C  
HETATM   13  C   UNL     1      -9.322   9.594  69.256  1.00  0.00    -0.180 C  
HETATM   14  N   UNL     1      -8.647   8.759  68.256  1.00  0.00    -0.134 NA 
BRANCH  14  15
HETATM   15  C   UNL     1      -8.697   7.387  68.511  1.00  0.00    -0.127 A  
HETATM   16  N   UNL     1      -9.428   6.960  69.529  1.00  0.00    -0.147 NA 
HETATM   17  C   UNL     1      -9.423   5.656  69.755  1.00  0.00    -0.148 A  
HETATM   18  N   UNL     1      -8.001   6.574  67.720  1.00  0.00    -0.113 NA 
HETATM   19  N   UNL     1      -8.705   4.786  69.062  1.00  0.00    -0.087 NA 
HETATM   20  C   UNL     1      -8.040   5.281  68.029  1.00  0.00    -0.099 A  
BRANCH  17  21
HETATM   21  N   UNL     1     -10.259   5.128  70.721  1.00  0.00    -0.237 NA 
HETATM   22  H   UNL     1     -10.250   4.133  70.946  1.00  0.00     0.000 HD 
BRANCH  21  23
HETATM   23  C   UNL     1     -11.143   6.042  71.396  1.00  0.00    -0.274 C  
BRANCH  23  24
HETATM   24  C   UNL     1     -11.056   5.708  72.852  1.00  0.00    -0.337 C  
HETATM   25  C   UNL     1     -11.258   4.490  73.376  1.00  0.00    -0.404 C  
ENDBRANCH  23  24
ENDBRANCH  21  23
ENDBRANCH  17  21
BRANCH  20  26
HETATM   26  N   UNL     1      -7.459   4.338  67.202  1.00  0.00    -0.076 NA 
HETATM   27  H   UNL     1      -6.444   4.242  67.162  1.00  0.00     0.000 HD 
BRANCH  26  28
HETATM   28  C   UNL     1      -8.303   3.490  66.395  1.00  0.00    -0.102 C  
BRANCH  28  29
HETATM   29  C   UNL     1      -9.147   4.372  65.512  1.00  0.00    -0.140 C  
HETATM   30  C   UNL     1     -10.487   4.405  65.514  1.00  0.00    -0.228 C  
ENDBRANCH  28  29
ENDBRANCH  26  28
ENDBRANCH  20  26
ENDBRANCH  14  15
ENDBRANCH   8   9
BRANCH   8  31
HETATM   31  C   UNL     1     -11.536  12.141  68.818  1.00  0.00    -0.380 A  
HETATM   32  C   UNL     1     -12.776  12.574  71.304  1.00  0.00    -0.252 A  
HETATM   33  C   UNL     1     -12.227  13.642  70.611  1.00  0.00    -0.434 A  
HETATM   34  F   UNL     1     -13.326  12.777  72.510  1.00  0.00    -0.600 F  
HETATM   35  C   UNL     1     -12.140  11.082  69.523  1.00  0.00    -0.400 A  
HETATM   36  C   UNL     1     -11.623  13.431  69.368  1.00  0.00    -0.365 A  
HETATM   37  C   UNL     1     -12.752  11.298  70.764  1.00  0.00    -0.360 A  
ENDBRANCH   8  31
ENDBRANCH   5   8
TORSDOF 10
ENDMDL
MODEL       41
REMARK 921   NORMALIZED FREE ENERGY PREDICTED BY IDOCK:   -5.48 KCAL/MOL
REMARK 922        TOTAL FREE ENERGY PREDICTED BY IDOCK:  -10.03 KCAL/MOL
REMARK 923 INTER-LIGAND FREE ENERGY PREDICTED BY IDOCK:   -8.73 KCAL/MOL
REMARK 924 INTRA-LIGAND FREE ENERGY PREDICTED BY IDOCK:   -1.30 KCAL/MOL
REMARK 927      BINDING AFFINITY PREDICTED BY RF-SCORE:    0.00 PKD
ROOT
HETATM    1  F   UNL     1      -5.237   6.239  65.530  1.00  0.00    -0.012 F  
HETATM    2  C   UNL     1      -6.131   6.514  66.489  1.00  0.00    -0.033 A  
HETATM    3  C   UNL     1      -5.996   7.677  67.238  1.00  0.00    -0.047 A  
HETATM    4  C   UNL     1      -6.909   7.953  68.260  1.00  0.00    -0.071 A  
HETATM    5  C   UNL     1      -7.968   7.067  68.537  1.00  0.00    -0.123 A  
HETATM    6  C   UNL     1      -8.102   5.916  67.735  1.00  0.00    -0.105 A  
HETATM    7  C   UNL     1      -7.181   5.637  66.720  1.00  0.00    -0.074 A  
ENDROOT
BRANCH   5   8
HETATM    8  C   UNL     1      -8.944   7.367  69.689  1.00  0.00    -0.141 C  
BRANCH   8   9
HETATM    9  N   UNL     1     -10.359   7.433  69.223  1.00  0.00    -0.200 NA 
HETATM   10  C   UNL     1     -10.516   8.144  67.913  1.00  0.00    -0.197 C  
HETATM   11  C   UNL     1     -10.522   9.701  67.940  1.00  0.00    -0.246 C  
HETATM   12  C   UNL     1     -11.281   8.084  70.194  1.00  0.00    -0.144 C  
HETATM   13  C   UNL     1     -11.182   9.622  70.280  1.00  0.00    -0.271 C  
HETATM   14  N   UNL     1     -11.475  10.174  68.953  1.00  0.00    -0.127 NA 
BRANCH  14  15
HETATM   15  C   UNL     1     -11.639  11.560  68.919  1.00  0.00    -0.320 A  
HETATM   16  N   UNL     1     -11.608  12.228  70.062  1.00  0.00    -0.219 NA 
HETATM   17  C   UNL     1     -11.799  13.535  69.989  1.00  0.00    -0.301 A  
HETATM   18  N   UNL     1     -11.828  12.144  67.738  1.00  0.00    -0.514 NA 
HETATM   19  N   UNL     1     -12.061  14.185  68.866  1.00  0.00    -0.336 NA 
HETATM   20  C   UNL     1     -12.028  13.458  67.758  1.00  0.00    -0.324 A  
BRANCH  17  21
HETATM   21  N   UNL     1     -11.655  14.310  71.124  1.00  0.00    -0.490 NA 
HETATM   22  H   UNL     1     -11.104  13.990  71.920  1.00  0.00     0.000 HD 
BRANCH  21  23
HETATM   23  C   UNL     1     -12.316  15.589  71.135  1.00  0.00    -0.411 C  
BRANCH  23  24
HETATM   24  C   UNL     1     -11.989  16.216  72.453  1.00  0.00    -0.649 C  
HETATM   25  C   UNL     1     -12.673  16.022  73.590  1.00  0.00    -0.715 C  
ENDBRANCH  23  24
ENDBRANCH  21  23
ENDBRANCH  17  21
BRANCH  20  26
HETATM   26  N   UNL     1     -12.106  14.181  66.582  1.00  0.00    -0.447 NA 
HETATM   27  H   UNL     1     -12.817  14.904  66.468  1.00  0.00     0.000 HD 
BRANCH  26  28
HETATM   28  C   UNL     1     -11.172  13.903  65.519  1.00  0.00    -0.307 C  
BRANCH  28  29
HETATM   29  C   UNL     1     -11.916  13.200  64.413  1.00  0.00    -0.454 C  
HETATM   30  C   UNL     1     -11.442  12.168  63.701  1.00  0.00    -0.566 C  
ENDBRANCH  28  29
ENDBRANCH  26  28
ENDBRANCH  20  26
ENDBRANCH  14  15
ENDBRANCH   8   9
BRANCH   8  31
HETATM   31  C   UNL     1      -8.701   6.372  70.850  1.00  0.00    -0.136 A  
HETATM   32  C   UNL     1      -8.263   4.673  73.047  1.00  0.00    -0.100 A  
HETATM   33  C   UNL     1      -9.343   4.451  72.208  1.00  0.00    -0.168 A  
HETATM   34  F   UNL     1      -8.082   3.889  74.120  1.00  0.00    -0.082 F  
HETATM   35  C   UNL     1      -7.587   6.548  71.694  1.00  0.00    -0.094 A  
HETATM   36  C   UNL     1      -9.555   5.286  71.106  1.00  0.00    -0.218 A  
HETATM   37  C   UNL     1      -7.373   5.705  72.791  1.00  0.00    -0.092 A  
ENDBRANCH   8  31
ENDBRANCH   5   8
TORSDOF 10
ENDMDL
MODEL       42
REMARK 921   NORMALIZED FREE ENERGY PREDICTED BY IDOCK:   -5.48 KCAL/MOL
REMARK 922        TOTAL FREE ENERGY PREDICTED BY IDOCK:  -10.03 KCAL/MOL
REMARK 923 INTER-LIGAND FREE ENERGY PREDICTED BY IDOCK:   -9.44 KCAL/MOL
REMARK 924 INTRA-LIGAND FREE ENERGY PREDICTED BY IDOCK:   -0.59 KCAL/MOL
REMARK 927      BINDING AFFINITY PREDICTED BY RF-SCORE:    0.00 PKD
ROOT
HETATM    1  F   UNL     1     -14.300  15.976  73.010  1.00  0.00    -0.646 F  
HETATM    2  C   UNL     1     -13.663  15.153  72.168  1.00  0.00    -0.477 A  
HETATM    3  C   UNL     1     -13.781  13.778  72.333  1.00  0.00    -0.692 A  
HETATM    4  C   UNL     1     -13.093  12.916  71.475  1.00  0.00    -0.390 A  
HETATM    5  C   UNL     1     -12.285  13.425  70.440  1.00  0.00    -0.415 A  
HETATM    6  C   UNL     1     -12.217  14.821  70.272  1.00  0.00    -0.394 A  
HETATM    7  C   UNL     1     -12.897  15.683  71.139  1.00  0.00    -0.540 A  
ENDROOT
BRANCH   5   8
HETATM    8  C   UNL     1     -11.506  12.462  69.525  1.00  0.00    -0.240 C  
BRANCH   8   9
HETATM    9  N   UNL     1     -12.222  11.169  69.330  1.00  0.00    -0.332 NA 
HETATM   10  C   UNL     1     -12.418  10.405  70.604  1.00  0.00    -0.348 C  
HETATM   11  C   UNL     1     -11.210   9.579  71.137  1.00  0.00    -0.376 C  
HETATM   12  C   UNL     1     -11.557  10.254  68.362  1.00  0.00     0.030 C  
HETATM   13  C   UNL     1     -10.294   9.535  68.884  1.00  0.00    -0.208 C  
HETATM   14  N   UNL     1     -10.672   8.740  70.058  1.00  0.00    -0.227 NA 
BRANCH  14  15
HETATM   15  C   UNL     1      -9.686   7.863  70.512  1.00  0.00    -0.174 A  
HETATM   16  N   UNL     1      -8.756   7.462  69.659  1.00  0.00    -0.137 NA 
HETATM   17  C   UNL     1      -7.859   6.606  70.121  1.00  0.00    -0.107 A  
HETATM   18  N   UNL     1      -9.733   7.465  71.781  1.00  0.00    -0.153 NA 
HETATM   19  N   UNL     1      -7.873   6.106  71.347  1.00  0.00    -0.107 NA 
HETATM   20  C   UNL     1      -8.802   6.592  72.157  1.00  0.00    -0.134 A  
BRANCH  17  21
HETATM   21  N   UNL     1      -6.790   6.242  69.325  1.00  0.00    -0.060 NA 
HETATM   22  H   UNL     1      -5.950   5.821  69.722  1.00  0.00     0.000 HD 
BRANCH  21  23
HETATM   23  C   UNL     1      -6.911   6.483  67.910  1.00  0.00    -0.079 C  
BRANCH  23  24
HETATM   24  C   UNL     1      -7.178   5.152  67.282  1.00  0.00    -0.081 C  
HETATM   25  C   UNL     1      -8.331   4.791  66.701  1.00  0.00    -0.106 C  
ENDBRANCH  23  24
ENDBRANCH  21  23
ENDBRANCH  17  21
BRANCH  20  26
HETATM   26  N   UNL     1      -8.681   6.212  73.480  1.00  0.00    -0.125 NA 
HETATM   27  H   UNL     1      -8.587   6.917  74.213  1.00  0.00     0.000 HD 
BRANCH  26  28
HETATM   28  C   UNL     1      -8.688   4.809  73.816  1.00  0.00    -0.106 C  
BRANCH  28  29
HETATM   29  C   UNL     1     -10.102   4.414  74.150  1.00  0.00    -0.226 C  
HETATM   30  C   UNL     1     -10.707   3.293  73.733  1.00  0.00    -0.298 C  
ENDBRANCH  28  29
ENDBRANCH  26  28
ENDBRANCH  20  26
ENDBRANCH  14  15
ENDBRANCH   8   9
BRANCH   8  31
HETATM   31  C   UNL     1     -11.127  13.186  68.209  1.00  0.00    -0.295 A  
HETATM   32  C   UNL     1     -10.526  14.603  65.856  1.00  0.00    -0.314 A  
HETATM   33  C   UNL     1      -9.506  14.233  66.719  1.00  0.00    -0.287 A  
HETATM   34  F   UNL     1     -10.242  15.318  64.758  1.00  0.00    -0.382 F  
HETATM   35  C   UNL     1     -12.138  13.536  67.293  1.00  0.00    -0.367 A  
HETATM   36  C   UNL     1      -9.802  13.516  67.883  1.00  0.00    -0.235 A  
HETATM   37  C   UNL     1     -11.839  14.247  66.125  1.00  0.00    -0.413 A  
ENDBRANCH   8  31
ENDBRANCH   5   8
TORSDOF 10
ENDMDL
MODEL       43
REMARK 921   NORMALIZED FREE ENERGY PREDICTED BY IDOCK:   -5.47 KCAL/MOL
REMARK 922        TOTAL FREE ENERGY PREDICTED BY IDOCK:  -10.01 KCAL/MOL
REMARK 923 INTER-LIGAND FREE ENERGY PREDICTED BY IDOCK:   -8.65 KCAL/MOL
REMARK 924 INTRA-LIGAND FREE ENERGY PREDICTED BY IDOCK:   -1.36 KCAL/MOL
REMARK 927      BINDING AFFINITY PREDICTED BY RF-SCORE:    0.00 PKD
ROOT
HETATM    1  F   UNL     1     -14.111  16.506  73.548  1.00  0.00    -0.482 F  
HETATM    2  C   UNL     1     -13.423  15.787  72.651  1.00  0.00    -0.539 A  
HETATM    3  C   UNL     1     -12.034  15.784  72.696  1.00  0.00    -0.597 A  
HETATM    4  C   UNL     1     -11.312  15.060  71.743  1.00  0.00    -0.302 A  
HETATM    5  C   UNL     1     -11.977  14.328  70.741  1.00  0.00    -0.390 A  
HETATM    6  C   UNL     1     -13.385  14.317  70.745  1.00  0.00    -0.174 A  
HETATM    7  C   UNL     1     -14.106  15.052  71.692  1.00  0.00    -0.619 A  
ENDROOT
BRANCH   5   8
HETATM    8  C   UNL     1     -11.167  13.563  69.677  1.00  0.00    -0.063 C  
BRANCH   8   9
HETATM    9  N   UNL     1     -11.978  12.511  69.002  1.00  0.00    -0.271 NA 
HETATM   10  C   UNL     1     -12.284  11.342  69.889  1.00  0.00    -0.277 C  
HETATM   11  C   UNL     1     -11.169  10.271  70.071  1.00  0.00    -0.311 C  
HETATM   12  C   UNL     1     -11.355  11.975  67.761  1.00  0.00    -0.303 C  
HETATM   13  C   UNL     1     -10.175  11.002  67.974  1.00  0.00    -0.179 C  
HETATM   14  N   UNL     1     -10.660   9.859  68.756  1.00  0.00    -0.214 NA 
BRANCH  14  15
HETATM   15  C   UNL     1      -9.767   8.790  68.844  1.00  0.00    -0.172 A  
HETATM   16  N   UNL     1      -9.936   7.904  69.815  1.00  0.00    -0.184 NA 
HETATM   17  C   UNL     1      -9.049   6.925  69.882  1.00  0.00    -0.144 A  
HETATM   18  N   UNL     1      -8.782   8.716  67.952  1.00  0.00    -0.137 NA 
HETATM   19  N   UNL     1      -8.002   6.815  69.080  1.00  0.00    -0.114 NA 
HETATM   20  C   UNL     1      -7.928   7.708  68.103  1.00  0.00    -0.123 A  
BRANCH  17  21
HETATM   21  N   UNL     1      -9.234   5.899  70.790  1.00  0.00    -0.152 NA 
HETATM   22  H   UNL     1      -8.536   5.166  70.913  1.00  0.00     0.000 HD 
BRANCH  21  23
HETATM   23  C   UNL     1     -10.454   5.910  71.554  1.00  0.00    -0.233 C  
BRANCH  23  24
HETATM   24  C   UNL     1     -10.314   4.827  72.577  1.00  0.00    -0.259 C  
HETATM   25  C   UNL     1     -11.268   4.459  73.444  1.00  0.00    -0.386 C  
ENDBRANCH  23  24
ENDBRANCH  21  23
ENDBRANCH  17  21
BRANCH  20  26
HETATM   26  N   UNL     1      -6.947   7.464  67.161  1.00  0.00    -0.080 NA 
HETATM   27  H   UNL     1      -5.967   7.648  67.377  1.00  0.00     0.000 HD 
BRANCH  26  28
HETATM   28  C   UNL     1      -7.323   6.945  65.868  1.00  0.00    -0.079 C  
BRANCH  28  29
HETATM   29  C   UNL     1      -7.138   8.040  64.851  1.00  0.00    -0.071 C  
HETATM   30  C   UNL     1      -5.962   8.597  64.526  1.00  0.00    -0.065 C  
ENDBRANCH  28  29
ENDBRANCH  26  28
ENDBRANCH  20  26
ENDBRANCH  14  15
ENDBRANCH   8   9
BRANCH   8  31
HETATM   31  C   UNL     1     -10.496  14.570  68.710  1.00  0.00    -0.246 A  
HETATM   32  C   UNL     1      -9.228  16.289  66.882  1.00  0.00    -0.218 A  
HETATM   33  C   UNL     1     -10.592  16.401  67.104  1.00  0.00    -0.276 A  
HETATM   34  F   UNL     1      -8.635  17.079  65.976  1.00  0.00    -0.296 F  
HETATM   35  C   UNL     1      -9.105  14.507  68.498  1.00  0.00    -0.190 A  
HETATM   36  C   UNL     1     -11.221  15.556  68.024  1.00  0.00    -0.332 A  
HETATM   37  C   UNL     1      -8.475  15.359  67.582  1.00  0.00    -0.173 A  
ENDBRANCH   8  31
ENDBRANCH   5   8
TORSDOF 10
ENDMDL
MODEL       44
REMARK 921   NORMALIZED FREE ENERGY PREDICTED BY IDOCK:   -5.40 KCAL/MOL
REMARK 922        TOTAL FREE ENERGY PREDICTED BY IDOCK:   -9.90 KCAL/MOL
REMARK 923 INTER-LIGAND FREE ENERGY PREDICTED BY IDOCK:   -9.21 KCAL/MOL
REMARK 924 INTRA-LIGAND FREE ENERGY PREDICTED BY IDOCK:   -0.68 KCAL/MOL
REMARK 927      BINDING AFFINITY PREDICTED BY RF-SCORE:    0.00 PKD
ROOT
HETATM    1  F   UNL     1     -13.115  11.725  62.587  1.00  0.00    -0.341 F  
HETATM    2  C   UNL     1     -12.343  12.146  63.599  1.00  0.00    -0.568 A  
HETATM    3  C   UNL     1     -11.007  12.444  63.362  1.00  0.00    -0.442 A  
HETATM    4  C   UNL     1     -10.191  12.854  64.421  1.00  0.00    -0.342 A  
HETATM    5  C   UNL     1     -10.710  12.972  65.725  1.00  0.00    -0.291 A  
HETATM    6  C   UNL     1     -12.078  12.701  65.926  1.00  0.00    -0.459 A  
HETATM    7  C   UNL     1     -12.889  12.281  64.867  1.00  0.00     0.051 A  
ENDROOT
BRANCH   5   8
HETATM    8  C   UNL     1      -9.790  13.391  66.886  1.00  0.00    -0.256 C  
BRANCH   8   9
HETATM    9  N   UNL     1      -8.630  12.468  67.045  1.00  0.00    -0.197 NA 
HETATM   10  C   UNL     1      -8.694  11.278  66.136  1.00  0.00    -0.179 C  
HETATM   11  C   UNL     1      -9.609  10.095  66.570  1.00  0.00    -0.187 C  
HETATM   12  C   UNL     1      -8.453  11.958  68.432  1.00  0.00    -0.155 C  
HETATM   13  C   UNL     1      -9.450  10.864  68.873  1.00  0.00    -0.172 C  
HETATM   14  N   UNL     1      -9.310   9.724  67.960  1.00  0.00    -0.128 NA 
BRANCH  14  15
HETATM   15  C   UNL     1      -9.988   8.570  68.358  1.00  0.00    -0.187 A  
HETATM   16  N   UNL     1     -10.251   7.646  67.446  1.00  0.00    -0.224 NA 
HETATM   17  C   UNL     1     -10.923   6.584  67.858  1.00  0.00    -0.294 A  
HETATM   18  N   UNL     1     -10.345   8.458  69.635  1.00  0.00    -0.214 NA 
HETATM   19  N   UNL     1     -11.376   6.424  69.092  1.00  0.00    -0.354 NA 
HETATM   20  C   UNL     1     -11.031   7.366  69.959  1.00  0.00    -0.248 A  
BRANCH  17  21
HETATM   21  N   UNL     1     -11.123   5.525  66.992  1.00  0.00    -0.344 NA 
HETATM   22  H   UNL     1     -12.018   5.038  66.946  1.00  0.00     0.000 HD 
BRANCH  21  23
HETATM   23  C   UNL     1     -10.015   5.140  66.159  1.00  0.00    -0.194 C  
BRANCH  23  24
HETATM   24  C   UNL     1      -9.392   3.949  66.818  1.00  0.00    -0.203 C  
HETATM   25  C   UNL     1      -8.744   2.966  66.178  1.00  0.00    -0.133 C  
ENDBRANCH  23  24
ENDBRANCH  21  23
ENDBRANCH  17  21
BRANCH  20  26
HETATM   26  N   UNL     1     -11.339   7.088  71.277  1.00  0.00    -0.263 NA 
HETATM   27  H   UNL     1     -11.796   6.210  71.526  1.00  0.00     0.000 HD 
BRANCH  26  28
HETATM   28  C   UNL     1     -11.009   8.052  72.298  1.00  0.00    -0.314 C  
BRANCH  28  29
HETATM   29  C   UNL     1     -10.197   7.353  73.358  1.00  0.00    -0.402 C  
HETATM   30  C   UNL     1     -10.486   6.154  73.883  1.00  0.00    -0.287 C  
ENDBRANCH  28  29
ENDBRANCH  26  28
ENDBRANCH  20  26
ENDBRANCH  14  15
ENDBRANCH   8   9
BRANCH   8  31
HETATM   31  C   UNL     1      -9.403  14.882  66.733  1.00  0.00    -0.270 A  
HETATM   32  C   UNL     1      -8.623  17.555  66.343  1.00  0.00    -0.240 A  
HETATM   33  C   UNL     1      -9.969  17.227  66.376  1.00  0.00    -0.319 A  
HETATM   34  F   UNL     1      -8.253  18.823  66.112  1.00  0.00    -0.286 F  
HETATM   35  C   UNL     1      -8.044  15.251  66.739  1.00  0.00    -0.166 A  
HETATM   36  C   UNL     1     -10.359  15.900  66.584  1.00  0.00    -0.302 A  
HETATM   37  C   UNL     1      -7.656  16.581  66.539  1.00  0.00    -0.304 A  
ENDBRANCH   8  31
ENDBRANCH   5   8
TORSDOF 10
ENDMDL
MODEL       45
REMARK 921   NORMALIZED FREE ENERGY PREDICTED BY IDOCK:   -5.38 KCAL/MOL
REMARK 922        TOTAL FREE ENERGY PREDICTED BY IDOCK:   -9.87 KCAL/MOL
REMARK 923 INTER-LIGAND FREE ENERGY PREDICTED BY IDOCK:  -10.71 KCAL/MOL
REMARK 924 INTRA-LIGAND FREE ENERGY PREDICTED BY IDOCK:    0.84 KCAL/MOL
REMARK 927      BINDING AFFINITY PREDICTED BY RF-SCORE:    0.00 PKD
ROOT
HETATM    1  F   UNL     1      -5.976   9.014  62.352  1.00  0.00    -0.089 F  
HETATM    2  C   UNL     1      -7.009   9.429  63.096  1.00  0.00    -0.098 A  
HETATM    3  C   UNL     1      -6.858   9.547  64.473  1.00  0.00    -0.099 A  
HETATM    4  C   UNL     1      -7.943   9.950  65.256  1.00  0.00    -0.137 A  
HETATM    5  C   UNL     1      -9.187  10.244  64.666  1.00  0.00    -0.290 A  
HETATM    6  C   UNL     1      -9.299  10.154  63.265  1.00  0.00    -0.332 A  
HETATM    7  C   UNL     1      -8.215   9.739  62.484  1.00  0.00    -0.146 A  
ENDROOT
BRANCH   5   8
HETATM    8  C   UNL     1     -10.382  10.653  65.547  1.00  0.00    -0.227 C  
BRANCH   8   9
HETATM    9  N   UNL     1     -10.100  10.464  66.999  1.00  0.00    -0.206 NA 
HETATM   10  C   UNL     1     -11.318  10.607  67.860  1.00  0.00    -0.268 C  
HETATM   11  C   UNL     1     -11.784  12.052  68.206  1.00  0.00    -0.334 C  
HETATM   12  C   UNL     1      -9.066  11.392  67.535  1.00  0.00    -0.157 C  
HETATM   13  C   UNL     1      -9.529  12.848  67.760  1.00  0.00    -0.202 C  
HETATM   14  N   UNL     1     -10.645  12.831  68.712  1.00  0.00    -0.223 NA 
BRANCH  14  15
HETATM   15  C   UNL     1     -11.031  14.086  69.184  1.00  0.00    -0.230 A  
HETATM   16  N   UNL     1     -10.320  15.143  68.821  1.00  0.00    -0.229 NA 
HETATM   17  C   UNL     1     -10.699  16.309  69.316  1.00  0.00    -0.307 A  
HETATM   18  N   UNL     1     -12.092  14.160  69.984  1.00  0.00    -0.327 NA 
HETATM   19  N   UNL     1     -11.698  16.463  70.171  1.00  0.00    -0.033 NA 
HETATM   20  C   UNL     1     -12.393  15.369  70.448  1.00  0.00    -0.402 A  
BRANCH  17  21
HETATM   21  N   UNL     1     -10.082  17.468  68.883  1.00  0.00    -0.352 NA 
HETATM   22  H   UNL     1      -9.178  17.759  69.253  1.00  0.00     0.000 HD 
BRANCH  21  23
HETATM   23  C   UNL     1     -10.770  18.245  67.885  1.00  0.00    -0.311 C  
BRANCH  23  24
HETATM   24  C   UNL     1     -10.021  19.535  67.772  1.00  0.00    -0.494 C  
HETATM   25  C   UNL     1      -9.488  20.020  66.641  1.00  0.00    -0.524 C  
ENDBRANCH  23  24
ENDBRANCH  21  23
ENDBRANCH  17  21
BRANCH  20  26
HETATM   26  N   UNL     1     -13.547  15.580  71.181  1.00  0.00    -0.680 NA 
HETATM   27  H   UNL     1     -14.212  16.300  70.899  1.00  0.00     0.000 HD 
BRANCH  26  28
HETATM   28  C   UNL     1     -13.799  14.771  72.348  1.00  0.00    -0.474 C  
BRANCH  28  29
HETATM   29  C   UNL     1     -12.695  15.023  73.341  1.00  0.00    -0.654 C  
HETATM   30  C   UNL     1     -12.615  16.091  74.148  1.00  0.00    -0.714 C  
ENDBRANCH  28  29
ENDBRANCH  26  28
ENDBRANCH  20  26
ENDBRANCH  14  15
ENDBRANCH   8   9
BRANCH   8  31
HETATM   31  C   UNL     1     -10.845  12.081  65.167  1.00  0.00    -0.347 A  
HETATM   32  C   UNL     1     -11.762  14.676  64.593  1.00  0.00    -0.426 A  
HETATM   33  C   UNL     1     -10.401  14.430  64.686  1.00  0.00    -0.215 A  
HETATM   34  F   UNL     1     -12.198  15.923  64.364  1.00  0.00    -0.289 F  
HETATM   35  C   UNL     1     -12.219  12.350  65.023  1.00  0.00    -0.465 A  
HETATM   36  C   UNL     1      -9.942  13.137  64.957  1.00  0.00    -0.163 A  
HETATM   37  C   UNL     1     -12.676  13.644  64.744  1.00  0.00    -0.268 A  
ENDBRANCH   8  31
ENDBRANCH   5   8
TORSDOF 10
ENDMDL
MODEL       46
REMARK 921   NORMALIZED FREE ENERGY PREDICTED BY IDOCK:   -5.35 KCAL/MOL
REMARK 922        TOTAL FREE ENERGY PREDICTED BY IDOCK:   -9.83 KCAL/MOL
REMARK 923 INTER-LIGAND FREE ENERGY PREDICTED BY IDOCK:   -8.51 KCAL/MOL
REMARK 924 INTRA-LIGAND FREE ENERGY PREDICTED BY IDOCK:   -1.31 KCAL/MOL
REMARK 927      BINDING AFFINITY PREDICTED BY RF-SCORE:    0.00 PKD
ROOT
HETATM    1  F   UNL     1     -12.010  16.067  63.948  1.00  0.00    -0.431 F  
HETATM    2  C   UNL     1     -11.689  15.020  64.718  1.00  0.00    -0.370 A  
HETATM    3  C   UNL     1     -12.580  13.959  64.838  1.00  0.00    -0.380 A  
HETATM    4  C   UNL     1     -12.262  12.878  65.665  1.00  0.00    -0.519 A  
HETATM    5  C   UNL     1     -11.046  12.849  66.375  1.00  0.00    -0.316 A  
HETATM    6  C   UNL     1     -10.146  13.919  66.203  1.00  0.00    -0.317 A  
HETATM    7  C   UNL     1     -10.471  15.005  65.383  1.00  0.00    -0.406 A  
ENDROOT
BRANCH   5   8
HETATM    8  C   UNL     1     -10.726  11.668  67.310  1.00  0.00    -0.238 C  
BRANCH   8   9
HETATM    9  N   UNL     1      -9.259  11.447  67.454  1.00  0.00    -0.162 NA 
HETATM   10  C   UNL     1      -8.616  10.920  66.208  1.00  0.00    -0.164 C  
HETATM   11  C   UNL     1      -8.749   9.394  65.924  1.00  0.00    -0.154 C  
HETATM   12  C   UNL     1      -8.897  10.525  68.565  1.00  0.00    -0.144 C  
HETATM   13  C   UNL     1      -9.148   9.025  68.295  1.00  0.00    -0.133 C  
HETATM   14  N   UNL     1      -8.361   8.634  67.120  1.00  0.00    -0.107 NA 
BRANCH  14  15
HETATM   15  C   UNL     1      -8.312   7.260  66.880  1.00  0.00    -0.118 A  
HETATM   16  N   UNL     1      -7.935   6.460  67.866  1.00  0.00    -0.110 NA 
HETATM   17  C   UNL     1      -7.871   5.168  67.588  1.00  0.00    -0.095 A  
HETATM   18  N   UNL     1      -8.640   6.819  65.668  1.00  0.00    -0.144 NA 
HETATM   19  N   UNL     1      -8.113   4.654  66.392  1.00  0.00    -0.103 NA 
HETATM   20  C   UNL     1      -8.533   5.509  65.471  1.00  0.00    -0.144 A  
BRANCH  17  21
HETATM   21  N   UNL     1      -7.607   4.265  68.600  1.00  0.00    -0.063 NA 
HETATM   22  H   UNL     1      -6.744   4.311  69.142  1.00  0.00     0.000 HD 
BRANCH  21  23
HETATM   23  C   UNL     1      -8.602   3.256  68.856  1.00  0.00    -0.080 C  
BRANCH  23  24
HETATM   24  C   UNL     1      -9.783   3.971  69.431  1.00  0.00    -0.205 C  
HETATM   25  C   UNL     1      -9.823   4.541  70.644  1.00  0.00    -0.292 C  
ENDBRANCH  23  24
ENDBRANCH  21  23
ENDBRANCH  17  21
BRANCH  20  26
HETATM   26  N   UNL     1      -8.969   4.932  64.293  1.00  0.00    -0.286 NA 
HETATM   27  H   UNL     1      -8.430   5.045  63.433  1.00  0.00     0.000 HD 
BRANCH  26  28
HETATM   28  C   UNL     1     -10.192   4.168  64.291  1.00  0.00    -0.118 C  
BRANCH  28  29
HETATM   29  C   UNL     1      -9.895   2.807  63.716  1.00  0.00    -0.143 C  
HETATM   30  C   UNL     1      -9.217   1.837  64.347  1.00  0.00    -0.127 C  
ENDBRANCH  28  29
ENDBRANCH  26  28
ENDBRANCH  20  26
ENDBRANCH  14  15
ENDBRANCH   8   9
BRANCH   8  31
HETATM   31  C   UNL     1     -11.480  11.845  68.651  1.00  0.00    -0.350 A  
HETATM   32  C   UNL     1     -12.767  12.067  71.140  1.00  0.00    -0.266 A  
HETATM   33  C   UNL     1     -12.181  13.184  70.564  1.00  0.00    -0.405 A  
HETATM   34  F   UNL     1     -13.341  12.166  72.348  1.00  0.00    -0.617 F  
HETATM   35  C   UNL     1     -12.122  10.738  69.238  1.00  0.00    -0.278 A  
HETATM   36  C   UNL     1     -11.552  13.078  69.320  1.00  0.00    -0.367 A  
HETATM   37  C   UNL     1     -12.757  10.848  70.481  1.00  0.00    -0.363 A  
ENDBRANCH   8  31
ENDBRANCH   5   8
TORSDOF 10
ENDMDL
MODEL       47
REMARK 921   NORMALIZED FREE ENERGY PREDICTED BY IDOCK:   -5.33 KCAL/MOL
REMARK 922        TOTAL FREE ENERGY PREDICTED BY IDOCK:   -9.79 KCAL/MOL
REMARK 923 INTER-LIGAND FREE ENERGY PREDICTED BY IDOCK:   -9.02 KCAL/MOL
REMARK 924 INTRA-LIGAND FREE ENERGY PREDICTED BY IDOCK:   -0.78 KCAL/MOL
REMARK 927      BINDING AFFINITY PREDICTED BY RF-SCORE:    0.00 PKD
ROOT
HETATM    1  F   UNL     1     -14.245  16.024  73.055  1.00  0.00    -0.673 F  
HETATM    2  C   UNL     1     -13.572  15.177  72.266  1.00  0.00    -0.462 A  
HETATM    3  C   UNL     1     -12.484  15.639  71.535  1.00  0.00    -0.499 A  
HETATM    4  C   UNL     1     -11.798  14.766  70.687  1.00  0.00    -0.364 A  
HETATM    5  C   UNL     1     -12.194  13.420  70.567  1.00  0.00    -0.425 A  
HETATM    6  C   UNL     1     -13.276  12.970  71.350  1.00  0.00    -0.276 A  
HETATM    7  C   UNL     1     -13.968  13.849  72.190  1.00  0.00    -0.639 A  
ENDROOT
BRANCH   5   8
HETATM    8  C   UNL     1     -11.450  12.479  69.602  1.00  0.00    -0.185 C  
BRANCH   8   9
HETATM    9  N   UNL     1     -12.164  11.183  69.419  1.00  0.00    -0.332 NA 
HETATM   10  C   UNL     1     -12.332  10.416  70.696  1.00  0.00    -0.346 C  
HETATM   11  C   UNL     1     -11.110   9.596  71.205  1.00  0.00    -0.374 C  
HETATM   12  C   UNL     1     -11.513  10.272  68.438  1.00  0.00    -0.091 C  
HETATM   13  C   UNL     1     -10.236   9.559  68.934  1.00  0.00    -0.199 C  
HETATM   14  N   UNL     1     -10.588   8.761  70.114  1.00  0.00    -0.217 NA 
BRANCH  14  15
HETATM   15  C   UNL     1      -9.589   7.887  70.548  1.00  0.00    -0.170 A  
HETATM   16  N   UNL     1      -8.891   7.224  69.639  1.00  0.00    -0.141 NA 
HETATM   17  C   UNL     1      -7.977   6.383  70.093  1.00  0.00    -0.112 A  
HETATM   18  N   UNL     1      -9.391   7.757  71.858  1.00  0.00    -0.147 NA 
HETATM   19  N   UNL     1      -7.762   6.142  71.377  1.00  0.00    -0.099 NA 
HETATM   20  C   UNL     1      -8.463   6.879  72.226  1.00  0.00    -0.108 A  
BRANCH  17  21
HETATM   21  N   UNL     1      -7.128   5.752  69.203  1.00  0.00    -0.063 NA 
HETATM   22  H   UNL     1      -6.607   6.278  68.501  1.00  0.00     0.000 HD 
BRANCH  21  23
HETATM   23  C   UNL     1      -7.010   4.321  69.309  1.00  0.00    -0.050 C  
BRANCH  23  24
HETATM   24  C   UNL     1      -7.337   3.775  67.955  1.00  0.00    -0.062 C  
HETATM   25  C   UNL     1      -8.567   3.713  67.425  1.00  0.00    -0.114 C  
ENDBRANCH  23  24
ENDBRANCH  21  23
ENDBRANCH  17  21
BRANCH  20  26
HETATM   26  N   UNL     1      -8.088   6.759  73.551  1.00  0.00    -0.105 NA 
HETATM   27  H   UNL     1      -7.825   5.850  73.932  1.00  0.00     0.000 HD 
BRANCH  26  28
HETATM   28  C   UNL     1      -8.074   7.932  74.391  1.00  0.00    -0.244 C  
BRANCH  28  29
HETATM   29  C   UNL     1      -6.661   8.454  74.442  1.00  0.00    -0.175 C  
HETATM   30  C   UNL     1      -5.948   8.850  73.379  1.00  0.00    -0.050 C  
ENDBRANCH  28  29
ENDBRANCH  26  28
ENDBRANCH  20  26
ENDBRANCH  14  15
ENDBRANCH   8   9
BRANCH   8  31
HETATM   31  C   UNL     1     -11.138  13.227  68.282  1.00  0.00    -0.294 A  
HETATM   32  C   UNL     1     -10.492  14.477  65.848  1.00  0.00    -0.312 A  
HETATM   33  C   UNL     1     -11.820  14.259  66.182  1.00  0.00    -0.413 A  
HETATM   34  F   UNL     1     -10.186  15.032  64.667  1.00  0.00    -0.375 F  
HETATM   35  C   UNL     1      -9.800  13.499  67.938  1.00  0.00    -0.235 A  
HETATM   36  C   UNL     1     -12.144  13.651  67.398  1.00  0.00    -0.375 A  
HETATM   37  C   UNL     1      -9.479  14.116  66.723  1.00  0.00    -0.290 A  
ENDBRANCH   8  31
ENDBRANCH   5   8
TORSDOF 10
ENDMDL
MODEL       48
REMARK 921   NORMALIZED FREE ENERGY PREDICTED BY IDOCK:   -5.31 KCAL/MOL
REMARK 922        TOTAL FREE ENERGY PREDICTED BY IDOCK:   -9.76 KCAL/MOL
REMARK 923 INTER-LIGAND FREE ENERGY PREDICTED BY IDOCK:   -8.77 KCAL/MOL
REMARK 924 INTRA-LIGAND FREE ENERGY PREDICTED BY IDOCK:   -0.99 KCAL/MOL
REMARK 927      BINDING AFFINITY PREDICTED BY RF-SCORE:    0.00 PKD
ROOT
HETATM    1  F   UNL     1     -13.963  16.360  73.390  1.00  0.00    -0.646 F  
HETATM    2  C   UNL     1     -13.302  15.648  72.468  1.00  0.00    -0.516 A  
HETATM    3  C   UNL     1     -11.979  15.963  72.179  1.00  0.00    -0.612 A  
HETATM    4  C   UNL     1     -11.295  15.242  71.197  1.00  0.00    -0.402 A  
HETATM    5  C   UNL     1     -11.929  14.196  70.499  1.00  0.00    -0.393 A  
HETATM    6  C   UNL     1     -13.257  13.873  70.842  1.00  0.00    -0.196 A  
HETATM    7  C   UNL     1     -13.943  14.604  71.818  1.00  0.00    -0.564 A  
ENDROOT
BRANCH   5   8
HETATM    8  C   UNL     1     -11.173  13.434  69.395  1.00  0.00    -0.175 C  
BRANCH   8   9
HETATM    9  N   UNL     1     -12.042  12.441  68.702  1.00  0.00    -0.198 NA 
HETATM   10  C   UNL     1     -12.158  11.142  69.440  1.00  0.00    -0.326 C  
HETATM   11  C   UNL     1     -10.988  10.125  69.289  1.00  0.00    -0.240 C  
HETATM   12  C   UNL     1     -11.604  12.125  67.314  1.00  0.00    -0.334 C  
HETATM   13  C   UNL     1     -10.369  11.204  67.198  1.00  0.00    -0.212 C  
HETATM   14  N   UNL     1     -10.681   9.935  67.864  1.00  0.00    -0.255 NA 
BRANCH  14  15
HETATM   15  C   UNL     1      -9.745   8.920  67.656  1.00  0.00    -0.161 A  
HETATM   16  N   UNL     1      -8.927   8.601  68.647  1.00  0.00    -0.142 NA 
HETATM   17  C   UNL     1      -8.035   7.657  68.397  1.00  0.00    -0.123 A  
HETATM   18  N   UNL     1      -9.716   8.326  66.465  1.00  0.00    -0.245 NA 
HETATM   19  N   UNL     1      -7.892   7.064  67.223  1.00  0.00    -0.109 NA 
HETATM   20  C   UNL     1      -8.778   7.399  66.296  1.00  0.00    -0.149 A  
BRANCH  17  21
HETATM   21  N   UNL     1      -7.234   7.187  69.421  1.00  0.00    -0.082 NA 
HETATM   22  H   UNL     1      -6.302   7.567  69.584  1.00  0.00     0.000 HD 
BRANCH  21  23
HETATM   23  C   UNL     1      -7.773   6.139  70.248  1.00  0.00    -0.097 C  
BRANCH  23  24
HETATM   24  C   UNL     1      -7.967   6.738  71.606  1.00  0.00    -0.102 C  
HETATM   25  C   UNL     1      -7.808   8.035  71.905  1.00  0.00    -0.127 C  
ENDBRANCH  23  24
ENDBRANCH  21  23
ENDBRANCH  17  21
BRANCH  20  26
HETATM   26  N   UNL     1      -8.739   6.632  65.146  1.00  0.00    -0.359 NA 
HETATM   27  H   UNL     1      -8.949   7.051  64.239  1.00  0.00     0.000 HD 
BRANCH  26  28
HETATM   28  C   UNL     1      -8.401   5.233  65.241  1.00  0.00    -0.139 C  
BRANCH  28  29
HETATM   29  C   UNL     1      -7.543   4.876  64.055  1.00  0.00    -0.066 C  
HETATM   30  C   UNL     1      -7.961   4.188  62.983  1.00  0.00    -0.075 C  
ENDBRANCH  28  29
ENDBRANCH  26  28
ENDBRANCH  20  26
ENDBRANCH  14  15
ENDBRANCH   8   9
BRANCH   8  31
HETATM   31  C   UNL     1     -10.477  14.444  68.448  1.00  0.00    -0.246 A  
HETATM   32  C   UNL     1      -9.274  16.379  66.803  1.00  0.00    -0.237 A  
HETATM   33  C   UNL     1      -8.487  15.446  67.459  1.00  0.00    -0.188 A  
HETATM   34  F   UNL     1      -8.694  17.329  66.055  1.00  0.00    -0.282 F  
HETATM   35  C   UNL     1     -11.255  15.376  67.735  1.00  0.00    -0.321 A  
HETATM   36  C   UNL     1      -9.085  14.473  68.267  1.00  0.00    -0.196 A  
HETATM   37  C   UNL     1     -10.655  16.344  66.921  1.00  0.00    -0.252 A  
ENDBRANCH   8  31
ENDBRANCH   5   8
TORSDOF 10
ENDMDL
MODEL       49
REMARK 921   NORMALIZED FREE ENERGY PREDICTED BY IDOCK:   -5.29 KCAL/MOL
REMARK 922        TOTAL FREE ENERGY PREDICTED BY IDOCK:   -9.73 KCAL/MOL
REMARK 923 INTER-LIGAND FREE ENERGY PREDICTED BY IDOCK:   -8.53 KCAL/MOL
REMARK 924 INTRA-LIGAND FREE ENERGY PREDICTED BY IDOCK:   -1.19 KCAL/MOL
REMARK 927      BINDING AFFINITY PREDICTED BY RF-SCORE:    0.00 PKD
ROOT
HETATM    1  F   UNL     1     -14.036  16.450  73.211  1.00  0.00    -0.655 F  
HETATM    2  C   UNL     1     -13.370  15.644  72.375  1.00  0.00    -0.488 A  
HETATM    3  C   UNL     1     -12.073  15.971  71.996  1.00  0.00    -0.606 A  
HETATM    4  C   UNL     1     -11.386  15.149  71.100  1.00  0.00    -0.363 A  
HETATM    5  C   UNL     1     -11.990  13.988  70.580  1.00  0.00    -0.390 A  
HETATM    6  C   UNL     1     -13.289  13.660  71.013  1.00  0.00    -0.111 A  
HETATM    7  C   UNL     1     -13.980  14.491  71.902  1.00  0.00    -0.569 A  
ENDROOT
BRANCH   5   8
HETATM    8  C   UNL     1     -11.232  13.111  69.566  1.00  0.00    -0.084 C  
BRANCH   8   9
HETATM    9  N   UNL     1     -12.093  12.034  69.000  1.00  0.00    -0.233 NA 
HETATM   10  C   UNL     1     -12.213  10.840  69.898  1.00  0.00    -0.313 C  
HETATM   11  C   UNL     1     -11.040   9.816  69.887  1.00  0.00    -0.254 C  
HETATM   12  C   UNL     1     -11.645  11.544  67.668  1.00  0.00    -0.247 C  
HETATM   13  C   UNL     1     -10.408  10.619  67.679  1.00  0.00    -0.209 C  
HETATM   14  N   UNL     1     -10.722   9.445  68.501  1.00  0.00    -0.195 NA 
BRANCH  14  15
HETATM   15  C   UNL     1      -9.783   8.415  68.431  1.00  0.00    -0.156 A  
HETATM   16  N   UNL     1      -9.023   8.325  67.350  1.00  0.00    -0.133 NA 
HETATM   17  C   UNL     1      -8.169   7.315  67.310  1.00  0.00    -0.115 A  
HETATM   18  N   UNL     1      -9.703   7.565  69.453  1.00  0.00    -0.163 NA 
HETATM   19  N   UNL     1      -8.072   6.388  68.249  1.00  0.00    -0.112 NA 
HETATM   20  C   UNL     1      -8.828   6.572  69.322  1.00  0.00    -0.132 A  
BRANCH  17  21
HETATM   21  N   UNL     1      -7.260   7.232  66.272  1.00  0.00    -0.076 NA 
HETATM   22  H   UNL     1      -6.673   6.407  66.145  1.00  0.00     0.000 HD 
BRANCH  21  23
HETATM   23  C   UNL     1      -7.177   8.358  65.380  1.00  0.00    -0.082 C  
BRANCH  23  24
HETATM   24  C   UNL     1      -6.043   9.199  65.875  1.00  0.00    -0.052 C  
HETATM   25  C   UNL     1      -6.172  10.398  66.461  1.00  0.00    -0.078 C  
ENDBRANCH  23  24
ENDBRANCH  21  23
ENDBRANCH  17  21
BRANCH  20  26
HETATM   26  N   UNL     1      -8.573   5.711  70.373  1.00  0.00    -0.130 NA 
HETATM   27  H   UNL     1      -7.687   5.761  70.877  1.00  0.00     0.000 HD 
BRANCH  26  28
HETATM   28  C   UNL     1      -9.571   4.740  70.749  1.00  0.00    -0.179 C  
BRANCH  28  29
HETATM   29  C   UNL     1      -9.922   4.967  72.197  1.00  0.00    -0.235 C  
HETATM   30  C   UNL     1     -10.799   5.878  72.642  1.00  0.00    -0.290 C  
ENDBRANCH  28  29
ENDBRANCH  26  28
ENDBRANCH  20  26
ENDBRANCH  14  15
ENDBRANCH   8   9
BRANCH   8  31
HETATM   31  C   UNL     1     -10.554  14.010  68.503  1.00  0.00    -0.260 A  
HETATM   32  C   UNL     1      -9.382  15.753  66.635  1.00  0.00    -0.258 A  
HETATM   33  C   UNL     1      -8.581  14.905  67.384  1.00  0.00    -0.208 A  
HETATM   34  F   UNL     1      -8.817  16.615  65.777  1.00  0.00    -0.317 F  
HETATM   35  C   UNL     1     -11.346  14.851  67.698  1.00  0.00    -0.348 A  
HETATM   36  C   UNL     1      -9.164  14.027  68.303  1.00  0.00    -0.200 A  
HETATM   37  C   UNL     1     -10.761  15.723  66.772  1.00  0.00    -0.293 A  
ENDBRANCH   8  31
ENDBRANCH   5   8
TORSDOF 10
ENDMDL
MODEL       50
REMARK 921   NORMALIZED FREE ENERGY PREDICTED BY IDOCK:   -5.29 KCAL/MOL
REMARK 922        TOTAL FREE ENERGY PREDICTED BY IDOCK:   -9.73 KCAL/MOL
REMARK 923 INTER-LIGAND FREE ENERGY PREDICTED BY IDOCK:  -10.34 KCAL/MOL
REMARK 924 INTRA-LIGAND FREE ENERGY PREDICTED BY IDOCK:    0.61 KCAL/MOL
REMARK 927      BINDING AFFINITY PREDICTED BY RF-SCORE:    0.00 PKD
ROOT
HETATM    1  F   UNL     1     -11.482  12.778  63.081  1.00  0.00    -0.537 F  
HETATM    2  C   UNL     1     -11.425  13.472  64.225  1.00  0.00    -0.383 A  
HETATM    3  C   UNL     1     -10.301  14.239  64.506  1.00  0.00    -0.071 A  
HETATM    4  C   UNL     1     -10.225  14.941  65.712  1.00  0.00    -0.358 A  
HETATM    5  C   UNL     1     -11.278  14.884  66.645  1.00  0.00    -0.340 A  
HETATM    6  C   UNL     1     -12.422  14.131  66.316  1.00  0.00    -0.395 A  
HETATM    7  C   UNL     1     -12.491  13.420  65.113  1.00  0.00    -0.509 A  
ENDROOT
BRANCH   5   8
HETATM    8  C   UNL     1     -11.164  15.634  67.985  1.00  0.00    -0.339 C  
BRANCH   8   9
HETATM    9  N   UNL     1     -10.383  14.865  68.995  1.00  0.00    -0.240 NA 
HETATM   10  C   UNL     1      -9.145  14.238  68.431  1.00  0.00    -0.194 C  
HETATM   11  C   UNL     1      -9.313  12.905  67.643  1.00  0.00    -0.195 C  
HETATM   12  C   UNL     1     -11.162  13.786  69.662  1.00  0.00    -0.115 C  
HETATM   13  C   UNL     1     -11.410  12.520  68.813  1.00  0.00    -0.293 C  
HETATM   14  N   UNL     1     -10.108  11.959  68.438  1.00  0.00    -0.203 NA 
BRANCH  14  15
HETATM   15  C   UNL     1     -10.164  10.693  67.853  1.00  0.00    -0.177 A  
HETATM   16  N   UNL     1      -9.823  10.569  66.579  1.00  0.00    -0.199 NA 
HETATM   17  C   UNL     1      -9.921   9.358  66.056  1.00  0.00    -0.281 A  
HETATM   18  N   UNL     1     -10.565   9.669  68.604  1.00  0.00    -0.216 NA 
HETATM   19  N   UNL     1     -10.375   8.301  66.711  1.00  0.00    -0.318 NA 
HETATM   20  C   UNL     1     -10.649   8.491  67.993  1.00  0.00    -0.137 A  
BRANCH  17  21
HETATM   21  N   UNL     1      -9.465   9.132  64.771  1.00  0.00    -0.399 NA 
HETATM   22  H   UNL     1     -10.024   8.616  64.092  1.00  0.00     0.000 HD 
BRANCH  21  23
HETATM   23  C   UNL     1      -8.167   9.656  64.433  1.00  0.00    -0.157 C  
BRANCH  23  24
HETATM   24  C   UNL     1      -8.300  10.247  63.065  1.00  0.00    -0.170 C  
HETATM   25  C   UNL     1      -9.430  10.274  62.344  1.00  0.00    -0.252 C  
ENDBRANCH  23  24
ENDBRANCH  21  23
ENDBRANCH  17  21
BRANCH  20  26
HETATM   26  N   UNL     1     -10.930   7.341  68.708  1.00  0.00    -0.435 NA 
HETATM   27  H   UNL     1     -11.450   6.578  68.273  1.00  0.00     0.000 HD 
BRANCH  26  28
HETATM   28  C   UNL     1     -10.482   7.231  70.074  1.00  0.00    -0.224 C  
BRANCH  28  29
HETATM   29  C   UNL     1     -11.540   6.498  70.857  1.00  0.00    -0.417 C  
HETATM   30  C   UNL     1     -12.654   7.055  71.352  1.00  0.00    -0.428 C  
ENDBRANCH  28  29
ENDBRANCH  26  28
ENDBRANCH  20  26
ENDBRANCH  14  15
ENDBRANCH   8   9
BRANCH   8  31
HETATM   31  C   UNL     1     -10.642  17.071  67.735  1.00  0.00    -0.350 A  
HETATM   32  C   UNL     1      -9.566  19.632  67.302  1.00  0.00    -0.346 A  
HETATM   33  C   UNL     1     -10.352  19.040  66.326  1.00  0.00    -0.530 A  
HETATM   34  F   UNL     1      -9.017  20.834  67.075  1.00  0.00    -0.413 F  
HETATM   35  C   UNL     1      -9.877  17.714  68.726  1.00  0.00    -0.334 A  
HETATM   36  C   UNL     1     -10.900  17.772  66.545  1.00  0.00     0.039 A  
HETATM   37  C   UNL     1      -9.336  18.987  68.508  1.00  0.00    -0.425 A  
ENDBRANCH   8  31
ENDBRANCH   5   8
TORSDOF 10
ENDMDL
MODEL       51
REMARK 921   NORMALIZED FREE ENERGY PREDICTED BY IDOCK:   -5.28 KCAL/MOL
REMARK 922        TOTAL FREE ENERGY PREDICTED BY IDOCK:   -9.70 KCAL/MOL
REMARK 923 INTER-LIGAND FREE ENERGY PREDICTED BY IDOCK:   -8.95 KCAL/MOL
REMARK 924 INTRA-LIGAND FREE ENERGY PREDICTED BY IDOCK:   -0.75 KCAL/MOL
REMARK 927      BINDING AFFINITY PREDICTED BY RF-SCORE:    0.00 PKD
ROOT
HETATM    1  F   UNL     1      -5.141  14.032  70.193  1.00  0.00    -0.089 F  
HETATM    2  C   UNL     1      -6.150  14.440  69.413  1.00  0.00    -0.107 A  
HETATM    3  C   UNL     1      -7.045  15.390  69.891  1.00  0.00    -0.073 A  
HETATM    4  C   UNL     1      -8.117  15.796  69.092  1.00  0.00    -0.237 A  
HETATM    5  C   UNL     1      -8.299  15.257  67.804  1.00  0.00    -0.161 A  
HETATM    6  C   UNL     1      -7.354  14.326  67.330  1.00  0.00    -0.152 A  
HETATM    7  C   UNL     1      -6.288  13.912  68.136  1.00  0.00    -0.127 A  
ENDROOT
BRANCH   5   8
HETATM    8  C   UNL     1      -9.505  15.688  66.949  1.00  0.00    -0.229 C  
BRANCH   8   9
HETATM    9  N   UNL     1     -10.761  14.999  67.362  1.00  0.00    -0.282 NA 
HETATM   10  C   UNL     1     -10.550  13.990  68.449  1.00  0.00    -0.254 C  
HETATM   11  C   UNL     1     -10.000  12.594  68.033  1.00  0.00    -0.220 C  
HETATM   12  C   UNL     1     -11.462  14.308  66.244  1.00  0.00    -0.357 C  
HETATM   13  C   UNL     1     -10.825  12.981  65.778  1.00  0.00    -0.272 C  
HETATM   14  N   UNL     1     -10.797  12.061  66.920  1.00  0.00    -0.247 NA 
BRANCH  14  15
HETATM   15  C   UNL     1     -10.451  10.746  66.603  1.00  0.00    -0.246 A  
HETATM   16  N   UNL     1     -10.777   9.784  67.453  1.00  0.00    -0.269 NA 
HETATM   17  C   UNL     1     -10.403   8.558  67.130  1.00  0.00    -0.307 A  
HETATM   18  N   UNL     1      -9.801  10.523  65.463  1.00  0.00    -0.246 NA 
HETATM   19  N   UNL     1      -9.695   8.257  66.052  1.00  0.00    -0.115 NA 
HETATM   20  C   UNL     1      -9.449   9.263  65.225  1.00  0.00    -0.164 A  
BRANCH  17  21
HETATM   21  N   UNL     1     -10.817   7.491  67.906  1.00  0.00    -0.469 NA 
HETATM   22  H   UNL     1     -11.133   6.618  67.484  1.00  0.00     0.000 HD 
BRANCH  21  23
HETATM   23  C   UNL     1     -10.785   7.666  69.334  1.00  0.00    -0.184 C  
BRANCH  23  24
HETATM   24  C   UNL     1     -11.360   6.416  69.920  1.00  0.00    -0.500 C  
HETATM   25  C   UNL     1     -10.650   5.340  70.288  1.00  0.00    -0.288 C  
ENDBRANCH  23  24
ENDBRANCH  21  23
ENDBRANCH  17  21
BRANCH  20  26
HETATM   26  N   UNL     1      -8.886   8.901  64.016  1.00  0.00    -0.429 NA 
HETATM   27  H   UNL     1      -9.429   8.964  63.154  1.00  0.00     0.000 HD 
BRANCH  26  28
HETATM   28  C   UNL     1      -7.522   8.433  63.984  1.00  0.00    -0.111 C  
BRANCH  28  29
HETATM   29  C   UNL     1      -7.441   7.290  63.006  1.00  0.00    -0.096 C  
HETATM   30  C   UNL     1      -8.209   6.191  63.041  1.00  0.00    -0.032 C  
ENDBRANCH  28  29
ENDBRANCH  26  28
ENDBRANCH  20  26
ENDBRANCH  14  15
ENDBRANCH   8   9
BRANCH   8  31
HETATM   31  C   UNL     1      -9.602  17.234  66.929  1.00  0.00    -0.272 A  
HETATM   32  C   UNL     1      -9.794  20.037  67.029  1.00  0.00    -0.430 A  
HETATM   33  C   UNL     1      -8.686  19.441  66.447  1.00  0.00    -0.376 A  
HETATM   34  F   UNL     1      -9.861  21.373  67.117  1.00  0.00    -0.497 F  
HETATM   35  C   UNL     1     -10.736  17.865  67.475  1.00  0.00    -0.333 A  
HETATM   36  C   UNL     1      -8.596  18.047  66.383  1.00  0.00    -0.253 A  
HETATM   37  C   UNL     1     -10.828  19.261  67.530  1.00  0.00    -0.524 A  
ENDBRANCH   8  31
ENDBRANCH   5   8
TORSDOF 10
ENDMDL
MODEL       52
REMARK 921   NORMALIZED FREE ENERGY PREDICTED BY IDOCK:   -5.27 KCAL/MOL
REMARK 922        TOTAL FREE ENERGY PREDICTED BY IDOCK:   -9.69 KCAL/MOL
REMARK 923 INTER-LIGAND FREE ENERGY PREDICTED BY IDOCK:   -9.24 KCAL/MOL
REMARK 924 INTRA-LIGAND FREE ENERGY PREDICTED BY IDOCK:   -0.45 KCAL/MOL
REMARK 927      BINDING AFFINITY PREDICTED BY RF-SCORE:    0.00 PKD
ROOT
HETATM    1  F   UNL     1      -5.682  13.562  70.359  1.00  0.00    -0.111 F  
HETATM    2  C   UNL     1      -6.616  14.069  69.544  1.00  0.00    -0.115 A  
HETATM    3  C   UNL     1      -7.393  15.139  69.973  1.00  0.00     0.035 A  
HETATM    4  C   UNL     1      -8.389  15.650  69.138  1.00  0.00    -0.251 A  
HETATM    5  C   UNL     1      -8.612  15.097  67.862  1.00  0.00    -0.154 A  
HETATM    6  C   UNL     1      -7.783  14.040  67.438  1.00  0.00    -0.177 A  
HETATM    7  C   UNL     1      -6.794  13.523  68.281  1.00  0.00    -0.108 A  
ENDROOT
BRANCH   5   8
HETATM    8  C   UNL     1      -9.737  15.650  66.967  1.00  0.00    -0.227 C  
BRANCH   8   9
HETATM    9  N   UNL     1     -11.066  15.069  67.313  1.00  0.00    -0.327 NA 
HETATM   10  C   UNL     1     -11.054  14.287  68.591  1.00  0.00    -0.253 C  
HETATM   11  C   UNL     1     -10.507  12.829  68.532  1.00  0.00    -0.238 C  
HETATM   12  C   UNL     1     -11.629  14.185  66.256  1.00  0.00    -0.370 C  
HETATM   13  C   UNL     1     -10.987  12.784  66.147  1.00  0.00    -0.283 C  
HETATM   14  N   UNL     1     -11.159  12.101  67.435  1.00  0.00    -0.259 NA 
BRANCH  14  15
HETATM   15  C   UNL     1     -10.825  10.746  67.427  1.00  0.00    -0.290 A  
HETATM   16  N   UNL     1     -10.286  10.235  66.331  1.00  0.00    -0.218 NA 
HETATM   17  C   UNL     1     -10.015   8.940  66.354  1.00  0.00    -0.284 A  
HETATM   18  N   UNL     1     -11.073  10.030  68.521  1.00  0.00    -0.203 NA 
HETATM   19  N   UNL     1     -10.291   8.142  67.373  1.00  0.00    -0.257 NA 
HETATM   20  C   UNL     1     -10.784   8.734  68.452  1.00  0.00    -0.062 A  
BRANCH  17  21
HETATM   21  N   UNL     1      -9.338   8.366  65.294  1.00  0.00    -0.381 NA 
HETATM   22  H   UNL     1      -9.539   7.414  64.988  1.00  0.00     0.000 HD 
BRANCH  21  23
HETATM   23  C   UNL     1      -8.337   9.169  64.641  1.00  0.00    -0.172 C  
BRANCH  23  24
HETATM   24  C   UNL     1      -8.929   9.590  63.333  1.00  0.00    -0.205 C  
HETATM   25  C   UNL     1      -9.537  10.763  63.104  1.00  0.00    -0.385 C  
ENDBRANCH  23  24
ENDBRANCH  21  23
ENDBRANCH  17  21
BRANCH  20  26
HETATM   26  N   UNL     1     -10.881   7.926  69.569  1.00  0.00    -0.382 NA 
HETATM   27  H   UNL     1     -10.591   8.274  70.484  1.00  0.00     0.000 HD 
BRANCH  26  28
HETATM   28  C   UNL     1     -11.396   6.586  69.429  1.00  0.00    -0.332 C  
BRANCH  28  29
HETATM   29  C   UNL     1     -11.602   6.016  70.808  1.00  0.00    -0.139 C  
HETATM   30  C   UNL     1     -12.018   6.715  71.875  1.00  0.00    -0.386 C  
ENDBRANCH  28  29
ENDBRANCH  26  28
ENDBRANCH  20  26
ENDBRANCH  14  15
ENDBRANCH   8   9
BRANCH   8  31
HETATM   31  C   UNL     1      -9.696  17.198  66.974  1.00  0.00    -0.265 A  
HETATM   32  C   UNL     1      -9.633  20.005  67.125  1.00  0.00    -0.402 A  
HETATM   33  C   UNL     1      -8.593  19.323  66.511  1.00  0.00    -0.348 A  
HETATM   34  F   UNL     1      -9.578  21.340  67.236  1.00  0.00    -0.572 F  
HETATM   35  C   UNL     1     -10.759  17.918  67.552  1.00  0.00    -0.333 A  
HETATM   36  C   UNL     1      -8.630  17.928  66.423  1.00  0.00    -0.254 A  
HETATM   37  C   UNL     1     -10.724  19.316  67.633  1.00  0.00    -0.533 A  
ENDBRANCH   8  31
ENDBRANCH   5   8
TORSDOF 10
ENDMDL
MODEL       53
REMARK 921   NORMALIZED FREE ENERGY PREDICTED BY IDOCK:   -5.25 KCAL/MOL
REMARK 922        TOTAL FREE ENERGY PREDICTED BY IDOCK:   -9.67 KCAL/MOL
REMARK 923 INTER-LIGAND FREE ENERGY PREDICTED BY IDOCK:  -10.01 KCAL/MOL
REMARK 924 INTRA-LIGAND FREE ENERGY PREDICTED BY IDOCK:    0.34 KCAL/MOL
REMARK 927      BINDING AFFINITY PREDICTED BY RF-SCORE:    0.00 PKD
ROOT
HETATM    1  F   UNL     1      -5.770  13.405  69.373  1.00  0.00    -0.075 F  
HETATM    2  C   UNL     1      -6.845  13.955  68.794  1.00  0.00    -0.105 A  
HETATM    3  C   UNL     1      -7.483  15.025  69.410  1.00  0.00    -0.196 A  
HETATM    4  C   UNL     1      -8.624  15.581  68.824  1.00  0.00    -0.188 A  
HETATM    5  C   UNL     1      -9.132  15.072  67.613  1.00  0.00    -0.182 A  
HETATM    6  C   UNL     1      -8.441  14.013  66.992  1.00  0.00    -0.168 A  
HETATM    7  C   UNL     1      -7.306  13.451  67.586  1.00  0.00    -0.173 A  
ENDROOT
BRANCH   5   8
HETATM    8  C   UNL     1     -10.409  15.673  66.999  1.00  0.00    -0.289 C  
BRANCH   8   9
HETATM    9  N   UNL     1     -11.646  15.075  67.577  1.00  0.00    -0.333 NA 
HETATM   10  C   UNL     1     -11.424  14.443  68.918  1.00  0.00    -0.289 C  
HETATM   11  C   UNL     1     -10.802  13.015  68.942  1.00  0.00    -0.206 C  
HETATM   12  C   UNL     1     -12.284  14.052  66.704  1.00  0.00    -0.428 C  
HETATM   13  C   UNL     1     -11.577  12.679  66.661  1.00  0.00    -0.381 C  
HETATM   14  N   UNL     1     -11.543  12.139  68.024  1.00  0.00    -0.330 NA 
BRANCH  14  15
HETATM   15  C   UNL     1     -11.132  10.808  68.116  1.00  0.00    -0.280 A  
HETATM   16  N   UNL     1     -11.252  10.188  69.280  1.00  0.00    -0.219 NA 
HETATM   17  C   UNL     1     -10.821   8.939  69.331  1.00  0.00    -0.119 A  
HETATM   18  N   UNL     1     -10.630  10.228  67.028  1.00  0.00    -0.251 NA 
HETATM   19  N   UNL     1     -10.247   8.309  68.319  1.00  0.00    -0.203 NA 
HETATM   20  C   UNL     1     -10.207   8.976  67.174  1.00  0.00    -0.265 A  
BRANCH  17  21
HETATM   21  N   UNL     1     -11.030   8.192  70.476  1.00  0.00    -0.242 NA 
HETATM   22  H   UNL     1     -10.710   8.516  71.388  1.00  0.00     0.000 HD 
BRANCH  21  23
HETATM   23  C   UNL     1     -11.719   6.937  70.325  1.00  0.00    -0.291 C  
BRANCH  23  24
HETATM   24  C   UNL     1     -12.682   6.850  71.466  1.00  0.00    -0.396 C  
HETATM   25  C   UNL     1     -13.719   7.677  71.664  1.00  0.00    -0.454 C  
ENDBRANCH  23  24
ENDBRANCH  21  23
ENDBRANCH  17  21
BRANCH  20  26
HETATM   26  N   UNL     1      -9.788   8.238  66.082  1.00  0.00    -0.463 NA 
HETATM   27  H   UNL     1     -10.438   7.619  65.598  1.00  0.00     0.000 HD 
BRANCH  26  28
HETATM   28  C   UNL     1      -8.421   8.352  65.635  1.00  0.00    -0.164 C  
BRANCH  28  29
HETATM   29  C   UNL     1      -8.428   8.938  64.248  1.00  0.00    -0.165 C  
HETATM   30  C   UNL     1      -7.473   9.731  63.742  1.00  0.00    -0.128 C  
ENDBRANCH  28  29
ENDBRANCH  26  28
ENDBRANCH  20  26
ENDBRANCH  14  15
ENDBRANCH   8   9
BRANCH   8  31
HETATM   31  C   UNL     1     -10.350  17.219  67.080  1.00  0.00    -0.321 A  
HETATM   32  C   UNL     1     -10.124  20.012  67.303  1.00  0.00    -0.437 A  
HETATM   33  C   UNL     1     -10.203  19.424  66.050  1.00  0.00    -0.540 A  
HETATM   34  F   UNL     1      -9.971  21.341  67.405  1.00  0.00    -0.576 F  
HETATM   35  C   UNL     1     -10.312  17.846  68.340  1.00  0.00    -0.380 A  
HETATM   36  C   UNL     1     -10.329  18.036  65.938  1.00  0.00    -0.274 A  
HETATM   37  C   UNL     1     -10.193  19.237  68.450  1.00  0.00    -0.503 A  
ENDBRANCH   8  31
ENDBRANCH   5   8
TORSDOF 10
ENDMDL
MODEL       54
REMARK 921   NORMALIZED FREE ENERGY PREDICTED BY IDOCK:   -5.22 KCAL/MOL
REMARK 922        TOTAL FREE ENERGY PREDICTED BY IDOCK:   -9.62 KCAL/MOL
REMARK 923 INTER-LIGAND FREE ENERGY PREDICTED BY IDOCK:   -8.20 KCAL/MOL
REMARK 924 INTRA-LIGAND FREE ENERGY PREDICTED BY IDOCK:   -1.42 KCAL/MOL
REMARK 927      BINDING AFFINITY PREDICTED BY RF-SCORE:    0.00 PKD
ROOT
HETATM    1  F   UNL     1      -7.566   2.831  65.479  1.00  0.00    -0.071 F  
HETATM    2  C   UNL     1      -7.947   3.754  66.372  1.00  0.00    -0.089 A  
HETATM    3  C   UNL     1      -9.141   3.587  67.063  1.00  0.00    -0.188 A  
HETATM    4  C   UNL     1      -9.557   4.562  67.973  1.00  0.00    -0.209 A  
HETATM    5  C   UNL     1      -8.777   5.712  68.202  1.00  0.00    -0.102 A  
HETATM    6  C   UNL     1      -7.552   5.835  67.517  1.00  0.00    -0.093 A  
HETATM    7  C   UNL     1      -7.143   4.862  66.598  1.00  0.00    -0.068 A  
ENDROOT
BRANCH   5   8
HETATM    8  C   UNL     1      -9.266   6.794  69.182  1.00  0.00    -0.137 C  
BRANCH   8   9
HETATM    9  N   UNL     1     -10.643   7.263  68.860  1.00  0.00    -0.207 NA 
HETATM   10  C   UNL     1     -10.783   7.763  67.454  1.00  0.00    -0.230 C  
HETATM   11  C   UNL     1     -10.293   9.212  67.158  1.00  0.00    -0.267 C  
HETATM   12  C   UNL     1     -11.140   8.336  69.764  1.00  0.00    -0.052 C  
HETATM   13  C   UNL     1     -10.549   9.741  69.519  1.00  0.00    -0.233 C  
HETATM   14  N   UNL     1     -10.868  10.138  68.143  1.00  0.00    -0.251 NA 
BRANCH  14  15
HETATM   15  C   UNL     1     -10.590  11.472  67.840  1.00  0.00    -0.191 A  
HETATM   16  N   UNL     1     -10.446  11.815  66.569  1.00  0.00    -0.223 NA 
HETATM   17  C   UNL     1     -10.152  13.081  66.327  1.00  0.00    -0.282 A  
HETATM   18  N   UNL     1     -10.476  12.336  68.846  1.00  0.00    -0.156 NA 
HETATM   19  N   UNL     1      -9.953  13.990  67.269  1.00  0.00    -0.239 NA 
HETATM   20  C   UNL     1     -10.164  13.585  68.514  1.00  0.00    -0.229 A  
BRANCH  17  21
HETATM   21  N   UNL     1     -10.111  13.535  65.022  1.00  0.00    -0.551 NA 
HETATM   22  H   UNL     1      -9.233  13.590  64.506  1.00  0.00     0.000 HD 
BRANCH  21  23
HETATM   23  C   UNL     1     -11.360  13.927  64.423  1.00  0.00    -0.341 C  
BRANCH  23  24
HETATM   24  C   UNL     1     -11.686  12.873  63.412  1.00  0.00    -0.526 C  
HETATM   25  C   UNL     1     -12.668  11.968  63.531  1.00  0.00    -0.567 C  
ENDBRANCH  23  24
ENDBRANCH  21  23
ENDBRANCH  17  21
BRANCH  20  26
HETATM   26  N   UNL     1     -10.147  14.588  69.465  1.00  0.00    -0.423 NA 
HETATM   27  H   UNL     1      -9.468  14.564  70.227  1.00  0.00     0.000 HD 
BRANCH  26  28
HETATM   28  C   UNL     1     -11.097  15.668  69.370  1.00  0.00    -0.303 C  
BRANCH  28  29
HETATM   29  C   UNL     1     -12.067  15.541  70.516  1.00  0.00    -0.423 C  
HETATM   30  C   UNL     1     -11.723  15.384  71.802  1.00  0.00    -0.489 C  
ENDBRANCH  28  29
ENDBRANCH  26  28
ENDBRANCH  20  26
ENDBRANCH  14  15
ENDBRANCH   8   9
BRANCH   8  31
HETATM   31  C   UNL     1      -9.085   6.299  70.638  1.00  0.00    -0.153 A  
HETATM   32  C   UNL     1      -8.763   5.268  73.234  1.00  0.00    -0.115 A  
HETATM   33  C   UNL     1      -7.815   6.135  72.713  1.00  0.00    -0.106 A  
HETATM   34  F   UNL     1      -8.585   4.743  74.455  1.00  0.00    -0.104 F  
HETATM   35  C   UNL     1     -10.054   5.452  71.209  1.00  0.00    -0.270 A  
HETATM   36  C   UNL     1      -7.981   6.659  71.428  1.00  0.00    -0.107 A  
HETATM   37  C   UNL     1      -9.891   4.934  72.500  1.00  0.00    -0.202 A  
ENDBRANCH   8  31
ENDBRANCH   5   8
TORSDOF 10
ENDMDL
MODEL       55
REMARK 921   NORMALIZED FREE ENERGY PREDICTED BY IDOCK:   -5.21 KCAL/MOL
REMARK 922        TOTAL FREE ENERGY PREDICTED BY IDOCK:   -9.61 KCAL/MOL
REMARK 923 INTER-LIGAND FREE ENERGY PREDICTED BY IDOCK:   -9.09 KCAL/MOL
REMARK 924 INTRA-LIGAND FREE ENERGY PREDICTED BY IDOCK:   -0.52 KCAL/MOL
REMARK 927      BINDING AFFINITY PREDICTED BY RF-SCORE:    0.00 PKD
ROOT
HETATM    1  F   UNL     1     -12.496  13.705  62.653  1.00  0.00    -0.260 F  
HETATM    2  C   UNL     1     -12.152  13.289  63.878  1.00  0.00    -0.468 A  
HETATM    3  C   UNL     1     -12.503  14.054  64.985  1.00  0.00    -0.446 A  
HETATM    4  C   UNL     1     -12.119  13.639  66.263  1.00  0.00    -0.477 A  
HETATM    5  C   UNL     1     -11.384  12.451  66.444  1.00  0.00    -0.392 A  
HETATM    6  C   UNL     1     -11.078  11.676  65.308  1.00  0.00    -0.298 A  
HETATM    7  C   UNL     1     -11.454  12.099  64.028  1.00  0.00    -0.488 A  
ENDROOT
BRANCH   5   8
HETATM    8  C   UNL     1     -10.939  12.026  67.855  1.00  0.00    -0.220 C  
BRANCH   8   9
HETATM    9  N   UNL     1      -9.588  11.396  67.851  1.00  0.00    -0.172 NA 
HETATM   10  C   UNL     1      -9.500  10.192  66.964  1.00  0.00    -0.167 C  
HETATM   11  C   UNL     1     -10.052   8.848  67.526  1.00  0.00    -0.227 C  
HETATM   12  C   UNL     1      -9.112  10.988  69.202  1.00  0.00     0.010 C  
HETATM   13  C   UNL     1      -9.762   9.713  69.781  1.00  0.00    -0.224 C  
HETATM   14  N   UNL     1      -9.490   8.603  68.861  1.00  0.00    -0.146 NA 
BRANCH  14  15
HETATM   15  C   UNL     1      -9.826   7.340  69.353  1.00  0.00    -0.163 A  
HETATM   16  N   UNL     1      -9.429   6.273  68.676  1.00  0.00    -0.122 NA 
HETATM   17  C   UNL     1      -9.796   5.097  69.160  1.00  0.00    -0.187 A  
HETATM   18  N   UNL     1     -10.536   7.270  70.476  1.00  0.00    -0.214 NA 
HETATM   19  N   UNL     1     -10.558   4.940  70.230  1.00  0.00    -0.091 NA 
HETATM   20  C   UNL     1     -10.873   6.050  70.882  1.00  0.00    -0.285 A  
BRANCH  17  21
HETATM   21  N   UNL     1      -9.313   3.940  68.577  1.00  0.00    -0.156 NA 
HETATM   22  H   UNL     1      -9.830   3.062  68.632  1.00  0.00     0.000 HD 
BRANCH  21  23
HETATM   23  C   UNL     1      -8.052   4.027  67.889  1.00  0.00    -0.089 C  
BRANCH  23  24
HETATM   24  C   UNL     1      -8.296   3.516  66.504  1.00  0.00    -0.101 C  
HETATM   25  C   UNL     1      -8.484   4.283  65.421  1.00  0.00    -0.118 C  
ENDBRANCH  23  24
ENDBRANCH  21  23
ENDBRANCH  17  21
BRANCH  20  26
HETATM   26  N   UNL     1     -11.498   5.855  72.099  1.00  0.00    -0.293 NA 
HETATM   27  H   UNL     1     -12.504   6.003  72.192  1.00  0.00     0.000 HD 
BRANCH  26  28
HETATM   28  C   UNL     1     -10.715   5.441  73.237  1.00  0.00    -0.276 C  
BRANCH  28  29
HETATM   29  C   UNL     1     -10.406   6.663  74.064  1.00  0.00    -0.377 C  
HETATM   30  C   UNL     1      -9.352   7.470  73.879  1.00  0.00    -0.301 C  
ENDBRANCH  28  29
ENDBRANCH  26  28
ENDBRANCH  20  26
ENDBRANCH  14  15
ENDBRANCH   8   9
BRANCH   8  31
HETATM   31  C   UNL     1     -11.083  13.221  68.829  1.00  0.00    -0.303 A  
HETATM   32  C   UNL     1     -11.321  15.304  70.703  1.00  0.00    -0.313 A  
HETATM   33  C   UNL     1     -10.391  15.400  69.679  1.00  0.00    -0.283 A  
HETATM   34  F   UNL     1     -11.401  16.277  71.621  1.00  0.00    -0.415 F  
HETATM   35  C   UNL     1     -12.048  13.170  69.853  1.00  0.00    -0.357 A  
HETATM   36  C   UNL     1     -10.281  14.371  68.738  1.00  0.00    -0.239 A  
HETATM   37  C   UNL     1     -12.162  14.205  70.789  1.00  0.00    -0.435 A  
ENDBRANCH   8  31
ENDBRANCH   5   8
TORSDOF 10
ENDMDL
MODEL       56
REMARK 921   NORMALIZED FREE ENERGY PREDICTED BY IDOCK:   -5.20 KCAL/MOL
REMARK 922        TOTAL FREE ENERGY PREDICTED BY IDOCK:   -9.59 KCAL/MOL
REMARK 923 INTER-LIGAND FREE ENERGY PREDICTED BY IDOCK:   -9.30 KCAL/MOL
REMARK 924 INTRA-LIGAND FREE ENERGY PREDICTED BY IDOCK:   -0.29 KCAL/MOL
REMARK 927      BINDING AFFINITY PREDICTED BY RF-SCORE:    0.00 PKD
ROOT
HETATM    1  F   UNL     1     -14.398  14.608  72.284  1.00  0.00    -0.492 F  
HETATM    2  C   UNL     1     -13.399  14.576  71.393  1.00  0.00    -0.357 A  
HETATM    3  C   UNL     1     -13.153  15.691  70.601  1.00  0.00    -0.258 A  
HETATM    4  C   UNL     1     -12.131  15.651  69.648  1.00  0.00    -0.329 A  
HETATM    5  C   UNL     1     -11.344  14.495  69.485  1.00  0.00    -0.313 A  
HETATM    6  C   UNL     1     -11.590  13.395  70.330  1.00  0.00    -0.116 A  
HETATM    7  C   UNL     1     -12.621  13.433  71.275  1.00  0.00    -0.411 A  
ENDROOT
BRANCH   5   8
HETATM    8  C   UNL     1     -10.245  14.455  68.407  1.00  0.00    -0.243 C  
BRANCH   8   9
HETATM    9  N   UNL     1     -10.701  13.768  67.165  1.00  0.00    -0.280 NA 
HETATM   10  C   UNL     1     -11.953  12.968  67.359  1.00  0.00    -0.316 C  
HETATM   11  C   UNL     1     -11.809  11.559  68.005  1.00  0.00    -0.217 C  
HETATM   12  C   UNL     1      -9.681  12.860  66.572  1.00  0.00    -0.257 C  
HETATM   13  C   UNL     1      -9.480  11.515  67.303  1.00  0.00    -0.169 C  
HETATM   14  N   UNL     1     -10.761  10.800  67.308  1.00  0.00    -0.257 NA 
BRANCH  14  15
HETATM   15  C   UNL     1     -10.690   9.475  67.740  1.00  0.00    -0.242 A  
HETATM   16  N   UNL     1     -10.656   8.514  66.829  1.00  0.00    -0.242 NA 
HETATM   17  C   UNL     1     -10.621   7.272  67.282  1.00  0.00    -0.325 A  
HETATM   18  N   UNL     1     -10.667   9.240  69.050  1.00  0.00    -0.201 NA 
HETATM   19  N   UNL     1     -10.665   6.948  68.564  1.00  0.00    -0.216 NA 
HETATM   20  C   UNL     1     -10.647   7.962  69.416  1.00  0.00    -0.205 A  
BRANCH  17  21
HETATM   21  N   UNL     1     -10.459   6.227  66.392  1.00  0.00    -0.462 NA 
HETATM   22  H   UNL     1     -10.694   6.327  65.404  1.00  0.00     0.000 HD 
BRANCH  21  23
HETATM   23  C   UNL     1      -9.945   4.989  66.918  1.00  0.00    -0.212 C  
BRANCH  23  24
HETATM   24  C   UNL     1      -8.625   4.768  66.249  1.00  0.00    -0.114 C  
HETATM   25  C   UNL     1      -8.366   3.800  65.359  1.00  0.00    -0.105 C  
ENDBRANCH  23  24
ENDBRANCH  21  23
ENDBRANCH  17  21
BRANCH  20  26
HETATM   26  N   UNL     1     -10.493   7.608  70.744  1.00  0.00    -0.208 NA 
HETATM   27  H   UNL     1      -9.576   7.343  71.104  1.00  0.00     0.000 HD 
BRANCH  26  28
HETATM   28  C   UNL     1     -11.643   7.617  71.615  1.00  0.00    -0.267 C  
BRANCH  28  29
HETATM   29  C   UNL     1     -11.951   6.193  71.999  1.00  0.00    -0.310 C  
HETATM   30  C   UNL     1     -11.066   5.324  72.506  1.00  0.00    -0.289 C  
ENDBRANCH  28  29
ENDBRANCH  26  28
ENDBRANCH  20  26
ENDBRANCH  14  15
ENDBRANCH   8   9
BRANCH   8  31
HETATM   31  C   UNL     1      -9.686  15.881  68.179  1.00  0.00    -0.212 A  
HETATM   32  C   UNL     1      -8.800  18.520  67.788  1.00  0.00    -0.275 A  
HETATM   33  C   UNL     1      -8.199  17.726  68.753  1.00  0.00    -0.229 A  
HETATM   34  F   UNL     1      -8.406  19.793  67.635  1.00  0.00    -0.319 F  
HETATM   35  C   UNL     1     -10.248  16.695  67.177  1.00  0.00    -0.290 A  
HETATM   36  C   UNL     1      -8.629  16.409  68.939  1.00  0.00    -0.250 A  
HETATM   37  C   UNL     1      -9.811  18.012  66.987  1.00  0.00    -0.318 A  
ENDBRANCH   8  31
ENDBRANCH   5   8
TORSDOF 10
ENDMDL
MODEL       57
REMARK 921   NORMALIZED FREE ENERGY PREDICTED BY IDOCK:   -5.15 KCAL/MOL
REMARK 922        TOTAL FREE ENERGY PREDICTED BY IDOCK:   -9.51 KCAL/MOL
REMARK 923 INTER-LIGAND FREE ENERGY PREDICTED BY IDOCK:   -8.13 KCAL/MOL
REMARK 924 INTRA-LIGAND FREE ENERGY PREDICTED BY IDOCK:   -1.38 KCAL/MOL
REMARK 927      BINDING AFFINITY PREDICTED BY RF-SCORE:    0.00 PKD
ROOT
HETATM    1  F   UNL     1      -5.923   6.064  65.775  1.00  0.00    -0.024 F  
HETATM    2  C   UNL     1      -6.693   6.402  66.817  1.00  0.00    -0.060 A  
HETATM    3  C   UNL     1      -6.595   7.680  67.355  1.00  0.00    -0.063 A  
HETATM    4  C   UNL     1      -7.374   8.028  68.462  1.00  0.00    -0.097 A  
HETATM    5  C   UNL     1      -8.262   7.098  69.037  1.00  0.00    -0.125 A  
HETATM    6  C   UNL     1      -8.369   5.824  68.446  1.00  0.00    -0.107 A  
HETATM    7  C   UNL     1      -7.580   5.475  67.345  1.00  0.00    -0.089 A  
ENDROOT
BRANCH   5   8
HETATM    8  C   UNL     1      -9.087   7.484  70.278  1.00  0.00    -0.154 C  
BRANCH   8   9
HETATM    9  N   UNL     1     -10.543   7.586  69.974  1.00  0.00    -0.232 NA 
HETATM   10  C   UNL     1     -10.824   8.103  68.596  1.00  0.00     0.083 C  
HETATM   11  C   UNL     1     -10.740   9.643  68.378  1.00  0.00    -0.209 C  
HETATM   12  C   UNL     1     -11.298   8.441  70.931  1.00  0.00    -0.268 C  
HETATM   13  C   UNL     1     -11.104   9.963  70.762  1.00  0.00    -0.347 C  
HETATM   14  N   UNL     1     -11.530  10.331  69.407  1.00  0.00    -0.216 NA 
BRANCH  14  15
HETATM   15  C   UNL     1     -11.620  11.705  69.176  1.00  0.00    -0.314 A  
HETATM   16  N   UNL     1     -11.102  12.192  68.058  1.00  0.00    -0.227 NA 
HETATM   17  C   UNL     1     -11.180  13.502  67.893  1.00  0.00    -0.274 A  
HETATM   18  N   UNL     1     -12.216  12.461  70.094  1.00  0.00    -0.271 NA 
HETATM   19  N   UNL     1     -11.693  14.334  68.785  1.00  0.00    -0.323 NA 
HETATM   20  C   UNL     1     -12.236  13.769  69.854  1.00  0.00    -0.321 A  
BRANCH  17  21
HETATM   21  N   UNL     1     -10.773  14.064  66.697  1.00  0.00    -0.280 NA 
HETATM   22  H   UNL     1      -9.876  14.541  66.612  1.00  0.00     0.000 HD 
BRANCH  21  23
HETATM   23  C   UNL     1     -11.670  13.945  65.577  1.00  0.00    -0.349 C  
BRANCH  23  24
HETATM   24  C   UNL     1     -10.965  13.095  64.567  1.00  0.00    -0.392 C  
HETATM   25  C   UNL     1     -11.570  12.328  63.649  1.00  0.00    -0.581 C  
ENDBRANCH  23  24
ENDBRANCH  21  23
ENDBRANCH  17  21
BRANCH  20  26
HETATM   26  N   UNL     1     -12.940  14.629  70.676  1.00  0.00    -0.467 NA 
HETATM   27  H   UNL     1     -13.883  14.391  70.985  1.00  0.00     0.000 HD 
BRANCH  26  28
HETATM   28  C   UNL     1     -12.328  15.867  71.092  1.00  0.00    -0.384 C  
BRANCH  28  29
HETATM   29  C   UNL     1     -12.316  15.902  72.598  1.00  0.00    -0.581 C  
HETATM   30  C   UNL     1     -12.949  15.027  73.393  1.00  0.00    -0.622 C  
ENDBRANCH  28  29
ENDBRANCH  26  28
ENDBRANCH  20  26
ENDBRANCH  14  15
ENDBRANCH   8   9
BRANCH   8  31
HETATM   31  C   UNL     1      -8.745   6.531  71.449  1.00  0.00    -0.130 A  
HETATM   32  C   UNL     1      -8.140   4.693  73.489  1.00  0.00    -0.102 A  
HETATM   33  C   UNL     1      -7.235   5.693  73.170  1.00  0.00    -0.094 A  
HETATM   34  F   UNL     1      -7.830   3.790  74.430  1.00  0.00    -0.069 F  
HETATM   35  C   UNL     1      -9.665   5.532  71.823  1.00  0.00    -0.202 A  
HETATM   36  C   UNL     1      -7.540   6.617  72.166  1.00  0.00    -0.095 A  
HETATM   37  C   UNL     1      -9.360   4.613  72.834  1.00  0.00    -0.144 A  
ENDBRANCH   8  31
ENDBRANCH   5   8
TORSDOF 10
ENDMDL
MODEL       58
REMARK 921   NORMALIZED FREE ENERGY PREDICTED BY IDOCK:   -5.10 KCAL/MOL
REMARK 922        TOTAL FREE ENERGY PREDICTED BY IDOCK:   -9.43 KCAL/MOL
REMARK 923 INTER-LIGAND FREE ENERGY PREDICTED BY IDOCK:   -8.15 KCAL/MOL
REMARK 924 INTRA-LIGAND FREE ENERGY PREDICTED BY IDOCK:   -1.28 KCAL/MOL
REMARK 927      BINDING AFFINITY PREDICTED BY RF-SCORE:    0.00 PKD
ROOT
HETATM    1  F   UNL     1     -11.090   4.330  74.059  1.00  0.00    -0.297 F  
HETATM    2  C   UNL     1     -10.798   4.910  72.888  1.00  0.00    -0.248 A  
HETATM    3  C   UNL     1      -9.631   4.558  72.222  1.00  0.00    -0.204 A  
HETATM    4  C   UNL     1      -9.307   5.183  71.014  1.00  0.00    -0.198 A  
HETATM    5  C   UNL     1     -10.153   6.164  70.462  1.00  0.00    -0.237 A  
HETATM    6  C   UNL     1     -11.349   6.472  71.140  1.00  0.00    -0.367 A  
HETATM    7  C   UNL     1     -11.666   5.853  72.354  1.00  0.00    -0.307 A  
ENDROOT
BRANCH   5   8
HETATM    8  C   UNL     1      -9.765   6.869  69.150  1.00  0.00    -0.155 C  
BRANCH   8   9
HETATM    9  N   UNL     1      -8.505   7.653  69.285  1.00  0.00    -0.137 NA 
HETATM   10  C   UNL     1      -8.650   8.858  70.165  1.00  0.00    -0.155 C  
HETATM   11  C   UNL     1      -9.295  10.129  69.537  1.00  0.00    -0.210 C  
HETATM   12  C   UNL     1      -7.944   8.118  67.986  1.00  0.00    -0.127 C  
HETATM   13  C   UNL     1      -8.677   9.309  67.332  1.00  0.00    -0.118 C  
HETATM   14  N   UNL     1      -8.632  10.442  68.264  1.00  0.00    -0.124 NA 
BRANCH  14  15
HETATM   15  C   UNL     1      -9.061  11.657  67.729  1.00  0.00    -0.175 A  
HETATM   16  N   UNL     1      -9.357  11.710  66.439  1.00  0.00    -0.208 NA 
HETATM   17  C   UNL     1      -9.728  12.888  65.965  1.00  0.00    -0.223 A  
HETATM   18  N   UNL     1      -9.145  12.708  68.540  1.00  0.00    -0.112 NA 
HETATM   19  N   UNL     1      -9.773  13.997  66.686  1.00  0.00    -0.279 NA 
HETATM   20  C   UNL     1      -9.512  13.856  67.978  1.00  0.00    -0.208 A  
BRANCH  17  21
HETATM   21  N   UNL     1     -10.171  12.990  64.660  1.00  0.00    -0.519 NA 
HETATM   22  H   UNL     1     -10.440  13.888  64.258  1.00  0.00     0.000 HD 
BRANCH  21  23
HETATM   23  C   UNL     1     -10.235  11.774  63.891  1.00  0.00    -0.373 C  
BRANCH  23  24
HETATM   24  C   UNL     1     -11.567  11.781  63.211  1.00  0.00    -0.325 C  
HETATM   25  C   UNL     1     -12.650  12.441  63.645  1.00  0.00    -0.550 C  
ENDBRANCH  23  24
ENDBRANCH  21  23
ENDBRANCH  17  21
BRANCH  20  26
HETATM   26  N   UNL     1      -9.755  14.977  68.749  1.00  0.00    -0.220 NA 
HETATM   27  H   UNL     1     -10.709  15.315  68.883  1.00  0.00     0.000 HD 
BRANCH  26  28
HETATM   28  C   UNL     1      -8.646  15.666  69.363  1.00  0.00    -0.248 C  
BRANCH  28  29
HETATM   29  C   UNL     1      -8.574  17.053  68.778  1.00  0.00    -0.238 C  
HETATM   30  C   UNL     1      -9.421  17.547  67.865  1.00  0.00    -0.277 C  
ENDBRANCH  28  29
ENDBRANCH  26  28
ENDBRANCH  20  26
ENDBRANCH  14  15
ENDBRANCH   8   9
BRANCH   8  31
HETATM   31  C   UNL     1      -9.756   5.843  67.990  1.00  0.00    -0.132 A  
HETATM   32  C   UNL     1      -9.748   3.877  65.979  1.00  0.00    -0.162 A  
HETATM   33  C   UNL     1     -10.716   4.869  65.971  1.00  0.00    -0.247 A  
HETATM   34  F   UNL     1      -9.773   2.915  65.045  1.00  0.00    -0.152 F  
HETATM   35  C   UNL     1      -8.759   4.849  67.949  1.00  0.00    -0.106 A  
HETATM   36  C   UNL     1     -10.713   5.856  66.962  1.00  0.00    -0.396 A  
HETATM   37  C   UNL     1      -8.759   3.867  66.951  1.00  0.00    -0.114 A  
ENDBRANCH   8  31
ENDBRANCH   5   8
TORSDOF 10
ENDMDL
MODEL       59
REMARK 921   NORMALIZED FREE ENERGY PREDICTED BY IDOCK:   -5.09 KCAL/MOL
REMARK 922        TOTAL FREE ENERGY PREDICTED BY IDOCK:   -9.41 KCAL/MOL
REMARK 923 INTER-LIGAND FREE ENERGY PREDICTED BY IDOCK:   -8.09 KCAL/MOL
REMARK 924 INTRA-LIGAND FREE ENERGY PREDICTED BY IDOCK:   -1.32 KCAL/MOL
REMARK 927      BINDING AFFINITY PREDICTED BY RF-SCORE:    0.00 PKD
ROOT
HETATM    1  F   UNL     1      -5.215   6.554  63.056  1.00  0.00    -0.022 F  
HETATM    2  C   UNL     1      -6.114   7.024  63.930  1.00  0.00    -0.040 A  
HETATM    3  C   UNL     1      -5.812   8.152  64.684  1.00  0.00    -0.045 A  
HETATM    4  C   UNL     1      -6.736   8.628  65.618  1.00  0.00    -0.064 A  
HETATM    5  C   UNL     1      -7.972   7.980  65.802  1.00  0.00    -0.111 A  
HETATM    6  C   UNL     1      -8.267   6.863  64.995  1.00  0.00    -0.096 A  
HETATM    7  C   UNL     1      -7.337   6.382  64.068  1.00  0.00    -0.073 A  
ENDROOT
BRANCH   5   8
HETATM    8  C   UNL     1      -8.965   8.496  66.860  1.00  0.00    -0.143 C  
BRANCH   8   9
HETATM    9  N   UNL     1     -10.182   9.094  66.244  1.00  0.00    -0.248 NA 
HETATM   10  C   UNL     1      -9.872  10.180  65.258  1.00  0.00    -0.319 C  
HETATM   11  C   UNL     1      -9.548  11.592  65.828  1.00  0.00    -0.232 C  
HETATM   12  C   UNL     1     -11.143   9.655  67.234  1.00  0.00     0.120 C  
HETATM   13  C   UNL     1     -10.737  11.004  67.867  1.00  0.00    -0.219 C  
HETATM   14  N   UNL     1     -10.586  11.988  66.789  1.00  0.00    -0.221 NA 
BRANCH  14  15
HETATM   15  C   UNL     1     -10.434  13.307  67.219  1.00  0.00    -0.247 A  
HETATM   16  N   UNL     1     -10.258  14.252  66.309  1.00  0.00    -0.291 NA 
HETATM   17  C   UNL     1     -10.087  15.484  66.760  1.00  0.00    -0.264 A  
HETATM   18  N   UNL     1     -10.466  13.551  68.527  1.00  0.00    -0.242 NA 
HETATM   19  N   UNL     1     -10.036  15.803  68.043  1.00  0.00    -0.226 NA 
HETATM   20  C   UNL     1     -10.270  14.814  68.894  1.00  0.00    -0.237 A  
BRANCH  17  21
HETATM   21  N   UNL     1     -10.023  16.535  65.865  1.00  0.00    -0.442 NA 
HETATM   22  H   UNL     1     -10.533  16.514  64.982  1.00  0.00     0.000 HD 
BRANCH  21  23
HETATM   23  C   UNL     1      -9.206  17.662  66.233  1.00  0.00    -0.190 C  
BRANCH  23  24
HETATM   24  C   UNL     1     -10.112  18.853  66.229  1.00  0.00    -0.460 C  
HETATM   25  C   UNL     1     -10.568  19.478  67.324  1.00  0.00    -0.610 C  
ENDBRANCH  23  24
ENDBRANCH  21  23
ENDBRANCH  17  21
BRANCH  20  26
HETATM   26  N   UNL     1     -10.410  15.199  70.214  1.00  0.00    -0.511 NA 
HETATM   27  H   UNL     1      -9.710  14.931  70.906  1.00  0.00     0.000 HD 
BRANCH  26  28
HETATM   28  C   UNL     1     -11.556  15.982  70.604  1.00  0.00    -0.383 C  
BRANCH  28  29
HETATM   29  C   UNL     1     -12.690  15.037  70.905  1.00  0.00    -0.437 C  
HETATM   30  C   UNL     1     -13.794  15.356  71.596  1.00  0.00    -0.606 C  
ENDBRANCH  28  29
ENDBRANCH  26  28
ENDBRANCH  20  26
ENDBRANCH  14  15
ENDBRANCH   8   9
BRANCH   8  31
HETATM   31  C   UNL     1      -9.256   7.377  67.891  1.00  0.00    -0.132 A  
HETATM   32  C   UNL     1      -9.766   5.252  69.660  1.00  0.00    -0.182 A  
HETATM   33  C   UNL     1      -8.752   6.155  69.940  1.00  0.00    -0.136 A  
HETATM   34  F   UNL     1      -9.978   4.214  70.482  1.00  0.00    -0.259 F  
HETATM   35  C   UNL     1     -10.307   6.471  67.654  1.00  0.00    -0.239 A  
HETATM   36  C   UNL     1      -8.506   7.220  69.068  1.00  0.00    -0.129 A  
HETATM   37  C   UNL     1     -10.557   5.409  68.532  1.00  0.00    -0.153 A  
ENDBRANCH   8  31
ENDBRANCH   5   8
TORSDOF 10
ENDMDL
MODEL       60
REMARK 921   NORMALIZED FREE ENERGY PREDICTED BY IDOCK:   -5.07 KCAL/MOL
REMARK 922        TOTAL FREE ENERGY PREDICTED BY IDOCK:   -9.39 KCAL/MOL
REMARK 923 INTER-LIGAND FREE ENERGY PREDICTED BY IDOCK:   -8.39 KCAL/MOL
REMARK 924 INTRA-LIGAND FREE ENERGY PREDICTED BY IDOCK:   -1.00 KCAL/MOL
REMARK 927      BINDING AFFINITY PREDICTED BY RF-SCORE:    0.00 PKD
ROOT
HETATM    1  F   UNL     1     -10.506   7.506  73.615  1.00  0.00    -0.377 F  
HETATM    2  C   UNL     1     -10.344   7.721  72.303  1.00  0.00    -0.237 A  
HETATM    3  C   UNL     1      -9.243   7.181  71.651  1.00  0.00    -0.149 A  
HETATM    4  C   UNL     1      -9.055   7.428  70.288  1.00  0.00    -0.151 A  
HETATM    5  C   UNL     1      -9.973   8.216  69.567  1.00  0.00    -0.187 A  
HETATM    6  C   UNL     1     -11.101   8.717  70.246  1.00  0.00    -0.230 A  
HETATM    7  C   UNL     1     -11.281   8.477  71.612  1.00  0.00    -0.361 A  
ENDROOT
BRANCH   5   8
HETATM    8  C   UNL     1      -9.733   8.509  68.074  1.00  0.00    -0.154 C  
BRANCH   8   9
HETATM    9  N   UNL     1      -8.558   9.400  67.859  1.00  0.00    -0.120 NA 
HETATM   10  C   UNL     1      -8.372  10.407  68.953  1.00  0.00    -0.138 C  
HETATM   11  C   UNL     1      -9.263  11.683  68.910  1.00  0.00     0.059 C  
HETATM   12  C   UNL     1      -8.598  10.146  66.571  1.00  0.00    -0.126 C  
HETATM   13  C   UNL     1      -9.577  11.340  66.523  1.00  0.00    -0.191 C  
HETATM   14  N   UNL     1      -9.194  12.289  67.573  1.00  0.00    -0.175 NA 
BRANCH  14  15
HETATM   15  C   UNL     1      -9.849  13.520  67.516  1.00  0.00    -0.227 A  
HETATM   16  N   UNL     1      -9.624  14.308  66.475  1.00  0.00    -0.286 NA 
HETATM   17  C   UNL     1     -10.239  15.479  66.476  1.00  0.00    -0.283 A  
HETATM   18  N   UNL     1     -10.664  13.848  68.516  1.00  0.00    -0.251 NA 
HETATM   19  N   UNL     1     -11.011  15.911  67.460  1.00  0.00    -0.310 NA 
HETATM   20  C   UNL     1     -11.229  15.049  68.443  1.00  0.00    -0.293 A  
BRANCH  17  21
HETATM   21  N   UNL     1     -10.150  16.297  65.365  1.00  0.00    -0.547 NA 
HETATM   22  H   UNL     1      -9.368  16.940  65.240  1.00  0.00     0.000 HD 
BRANCH  21  23
HETATM   23  C   UNL     1     -11.206  16.202  64.392  1.00  0.00    -0.171 C  
BRANCH  23  24
HETATM   24  C   UNL     1     -11.418  14.741  64.148  1.00  0.00    -0.014 C  
HETATM   25  C   UNL     1     -12.613  14.135  64.091  1.00  0.00    -0.113 C  
ENDBRANCH  23  24
ENDBRANCH  21  23
ENDBRANCH  17  21
BRANCH  20  26
HETATM   26  N   UNL     1     -12.189  15.438  69.359  1.00  0.00    -0.566 NA 
HETATM   27  H   UNL     1     -12.484  16.413  69.415  1.00  0.00     0.000 HD 
BRANCH  26  28
HETATM   28  C   UNL     1     -12.769  14.450  70.236  1.00  0.00    -0.263 C  
BRANCH  28  29
HETATM   29  C   UNL     1     -13.546  15.172  71.306  1.00  0.00    -0.559 C  
HETATM   30  C   UNL     1     -14.082  14.593  72.390  1.00  0.00    -0.542 C  
ENDBRANCH  28  29
ENDBRANCH  26  28
ENDBRANCH  20  26
ENDBRANCH  14  15
ENDBRANCH   8   9
BRANCH   8  31
HETATM   31  C   UNL     1      -9.678   7.178  67.285  1.00  0.00    -0.198 A  
HETATM   32  C   UNL     1      -9.665   4.817  65.758  1.00  0.00    -0.188 A  
HETATM   33  C   UNL     1      -8.472   5.465  66.036  1.00  0.00    -0.123 A  
HETATM   34  F   UNL     1      -9.661   3.716  64.992  1.00  0.00    -0.151 F  
HETATM   35  C   UNL     1     -10.870   6.475  67.025  1.00  0.00    -0.465 A  
HETATM   36  C   UNL     1      -8.475   6.632  66.807  1.00  0.00    -0.117 A  
HETATM   37  C   UNL     1     -10.864   5.302  66.259  1.00  0.00    -0.181 A  
ENDBRANCH   8  31
ENDBRANCH   5   8
TORSDOF 10
ENDMDL
MODEL       61
REMARK 921   NORMALIZED FREE ENERGY PREDICTED BY IDOCK:   -5.04 KCAL/MOL
REMARK 922        TOTAL FREE ENERGY PREDICTED BY IDOCK:   -9.34 KCAL/MOL
REMARK 923 INTER-LIGAND FREE ENERGY PREDICTED BY IDOCK:   -9.23 KCAL/MOL
REMARK 924 INTRA-LIGAND FREE ENERGY PREDICTED BY IDOCK:   -0.11 KCAL/MOL
REMARK 927      BINDING AFFINITY PREDICTED BY RF-SCORE:    0.00 PKD
ROOT
HETATM    1  F   UNL     1      -8.730   4.373  65.706  1.00  0.00    -0.115 F  
HETATM    2  C   UNL     1      -8.927   5.690  65.854  1.00  0.00    -0.155 A  
HETATM    3  C   UNL     1      -8.007   6.584  65.320  1.00  0.00    -0.119 A  
HETATM    4  C   UNL     1      -8.193   7.958  65.498  1.00  0.00    -0.140 A  
HETATM    5  C   UNL     1      -9.305   8.447  66.210  1.00  0.00    -0.283 A  
HETATM    6  C   UNL     1     -10.241   7.518  66.706  1.00  0.00    -0.324 A  
HETATM    7  C   UNL     1     -10.048   6.144  66.535  1.00  0.00    -0.179 A  
ENDROOT
BRANCH   5   8
HETATM    8  C   UNL     1      -9.477   9.962  66.428  1.00  0.00    -0.183 C  
BRANCH   8   9
HETATM    9  N   UNL     1     -10.911  10.353  66.545  1.00  0.00    -0.094 NA 
HETATM   10  C   UNL     1     -11.245  11.602  65.789  1.00  0.00    -0.230 C  
HETATM   11  C   UNL     1     -10.888  12.962  66.459  1.00  0.00    -0.271 C  
HETATM   12  C   UNL     1     -11.367  10.548  67.949  1.00  0.00    -0.222 C  
HETATM   13  C   UNL     1     -10.901  11.856  68.626  1.00  0.00    -0.235 C  
HETATM   14  N   UNL     1     -11.404  12.985  67.835  1.00  0.00    -0.270 NA 
BRANCH  14  15
HETATM   15  C   UNL     1     -11.251  14.234  68.437  1.00  0.00    -0.269 A  
HETATM   16  N   UNL     1     -10.546  15.159  67.803  1.00  0.00    -0.259 NA 
HETATM   17  C   UNL     1     -10.398  16.318  68.423  1.00  0.00    -0.271 A  
HETATM   18  N   UNL     1     -11.815  14.435  69.626  1.00  0.00    -0.302 NA 
HETATM   19  N   UNL     1     -10.867  16.578  69.633  1.00  0.00    -0.339 NA 
HETATM   20  C   UNL     1     -11.604  15.623  70.183  1.00  0.00    -0.354 A  
BRANCH  17  21
HETATM   21  N   UNL     1      -9.782  17.368  67.768  1.00  0.00    -0.262 NA 
HETATM   22  H   UNL     1      -8.768  17.471  67.764  1.00  0.00     0.000 HD 
BRANCH  21  23
HETATM   23  C   UNL     1     -10.634  18.311  67.092  1.00  0.00    -0.367 C  
BRANCH  23  24
HETATM   24  C   UNL     1      -9.750  19.440  66.664  1.00  0.00    -0.441 C  
HETATM   25  C   UNL     1      -9.551  20.569  67.359  1.00  0.00    -0.578 C  
ENDBRANCH  23  24
ENDBRANCH  21  23
ENDBRANCH  17  21
BRANCH  20  26
HETATM   26  N   UNL     1     -12.247  15.982  71.353  1.00  0.00    -0.563 NA 
HETATM   27  H   UNL     1     -11.841  16.686  71.970  1.00  0.00     0.000 HD 
BRANCH  26  28
HETATM   28  C   UNL     1     -13.498  15.350  71.693  1.00  0.00    -0.502 C  
BRANCH  28  29
HETATM   29  C   UNL     1     -13.211  14.231  72.660  1.00  0.00    -0.601 C  
HETATM   30  C   UNL     1     -13.596  12.957  72.498  1.00  0.00    -0.460 C  
ENDBRANCH  28  29
ENDBRANCH  26  28
ENDBRANCH  20  26
ENDBRANCH  14  15
ENDBRANCH   8   9
BRANCH   8  31
HETATM   31  C   UNL     1      -8.591  10.421  67.613  1.00  0.00    -0.118 A  
HETATM   32  C   UNL     1      -6.914  11.136  69.753  1.00  0.00    -0.050 A  
HETATM   33  C   UNL     1      -7.009  11.963  68.644  1.00  0.00    -0.095 A  
HETATM   34  F   UNL     1      -6.079  11.456  70.752  1.00  0.00    -0.142 F  
HETATM   35  C   UNL     1      -8.509   9.622  68.769  1.00  0.00    -0.123 A  
HETATM   36  C   UNL     1      -7.854  11.616  67.585  1.00  0.00    -0.135 A  
HETATM   37  C   UNL     1      -7.669   9.975  69.832  1.00  0.00    -0.183 A  
ENDBRANCH   8  31
ENDBRANCH   5   8
TORSDOF 10
ENDMDL
MODEL       62
REMARK 921   NORMALIZED FREE ENERGY PREDICTED BY IDOCK:   -5.03 KCAL/MOL
REMARK 922        TOTAL FREE ENERGY PREDICTED BY IDOCK:   -9.31 KCAL/MOL
REMARK 923 INTER-LIGAND FREE ENERGY PREDICTED BY IDOCK:   -8.07 KCAL/MOL
REMARK 924 INTRA-LIGAND FREE ENERGY PREDICTED BY IDOCK:   -1.25 KCAL/MOL
REMARK 927      BINDING AFFINITY PREDICTED BY RF-SCORE:    0.00 PKD
ROOT
HETATM    1  F   UNL     1      -5.947   4.638  64.804  1.00  0.00    -0.019 F  
HETATM    2  C   UNL     1      -6.673   5.221  65.767  1.00  0.00    -0.053 A  
HETATM    3  C   UNL     1      -6.559   6.591  65.976  1.00  0.00    -0.048 A  
HETATM    4  C   UNL     1      -7.292   7.198  66.999  1.00  0.00    -0.089 A  
HETATM    5  C   UNL     1      -8.150   6.439  67.818  1.00  0.00    -0.115 A  
HETATM    6  C   UNL     1      -8.276   5.060  67.556  1.00  0.00    -0.106 A  
HETATM    7  C   UNL     1      -7.533   4.453  66.539  1.00  0.00    -0.082 A  
ENDROOT
BRANCH   5   8
HETATM    8  C   UNL     1      -8.924   7.117  68.964  1.00  0.00    -0.134 C  
BRANCH   8   9
HETATM    9  N   UNL     1     -10.352   7.360  68.610  1.00  0.00    -0.195 NA 
HETATM   10  C   UNL     1     -10.528   7.975  67.255  1.00  0.00    -0.314 C  
HETATM   11  C   UNL     1     -10.305   9.511  67.132  1.00  0.00    -0.253 C  
HETATM   12  C   UNL     1     -11.074   8.222  69.586  1.00  0.00    -0.001 C  
HETATM   13  C   UNL     1     -10.746   9.729  69.514  1.00  0.00    -0.233 C  
HETATM   14  N   UNL     1     -11.080  10.207  68.168  1.00  0.00    -0.258 NA 
BRANCH  14  15
HETATM   15  C   UNL     1     -11.045  11.593  68.014  1.00  0.00    -0.242 A  
HETATM   16  N   UNL     1     -11.906  12.328  68.702  1.00  0.00    -0.319 NA 
HETATM   17  C   UNL     1     -11.860  13.635  68.502  1.00  0.00    -0.371 A  
HETATM   18  N   UNL     1     -10.149  12.112  67.176  1.00  0.00    -0.206 NA 
HETATM   19  N   UNL     1     -11.050  14.226  67.638  1.00  0.00    -0.283 NA 
HETATM   20  C   UNL     1     -10.183  13.432  67.025  1.00  0.00    -0.249 A  
BRANCH  17  21
HETATM   21  N   UNL     1     -12.642  14.471  69.277  1.00  0.00    -0.547 NA 
HETATM   22  H   UNL     1     -13.547  14.807  68.948  1.00  0.00     0.000 HD 
BRANCH  21  23
HETATM   23  C   UNL     1     -12.125  14.846  70.567  1.00  0.00    -0.320 C  
BRANCH  23  24
HETATM   24  C   UNL     1     -13.228  15.584  71.259  1.00  0.00    -0.588 C  
HETATM   25  C   UNL     1     -13.595  15.399  72.535  1.00  0.00    -0.634 C  
ENDBRANCH  23  24
ENDBRANCH  21  23
ENDBRANCH  17  21
BRANCH  20  26
HETATM   26  N   UNL     1      -9.218  14.085  66.281  1.00  0.00    -0.487 NA 
HETATM   27  H   UNL     1      -8.341  13.616  66.049  1.00  0.00     0.000 HD 
BRANCH  26  28
HETATM   28  C   UNL     1      -9.463  15.434  65.834  1.00  0.00    -0.334 C  
BRANCH  28  29
HETATM   29  C   UNL     1      -8.325  16.299  66.310  1.00  0.00    -0.343 C  
HETATM   30  C   UNL     1      -8.368  17.635  66.419  1.00  0.00    -0.288 C  
ENDBRANCH  28  29
ENDBRANCH  26  28
ENDBRANCH  20  26
ENDBRANCH  14  15
ENDBRANCH   8   9
BRANCH   8  31
HETATM   31  C   UNL     1      -8.719   6.319  70.275  1.00  0.00    -0.142 A  
HETATM   32  C   UNL     1      -8.338   4.992  72.725  1.00  0.00    -0.112 A  
HETATM   33  C   UNL     1      -9.455   4.710  71.953  1.00  0.00    -0.197 A  
HETATM   34  F   UNL     1      -8.183   4.391  73.913  1.00  0.00    -0.095 F  
HETATM   35  C   UNL     1      -7.572   6.553  71.058  1.00  0.00    -0.089 A  
HETATM   36  C   UNL     1      -9.639   5.359  70.728  1.00  0.00    -0.228 A  
HETATM   37  C   UNL     1      -7.386   5.897  72.281  1.00  0.00    -0.094 A  
ENDBRANCH   8  31
ENDBRANCH   5   8
TORSDOF 10
ENDMDL
MODEL       63
REMARK 921   NORMALIZED FREE ENERGY PREDICTED BY IDOCK:   -5.00 KCAL/MOL
REMARK 922        TOTAL FREE ENERGY PREDICTED BY IDOCK:   -9.26 KCAL/MOL
REMARK 923 INTER-LIGAND FREE ENERGY PREDICTED BY IDOCK:   -8.18 KCAL/MOL
REMARK 924 INTRA-LIGAND FREE ENERGY PREDICTED BY IDOCK:   -1.08 KCAL/MOL
REMARK 927      BINDING AFFINITY PREDICTED BY RF-SCORE:    0.00 PKD
ROOT
HETATM    1  F   UNL     1     -14.050  16.384  73.420  1.00  0.00    -0.620 F  
HETATM    2  C   UNL     1     -13.384  15.601  72.562  1.00  0.00    -0.516 A  
HETATM    3  C   UNL     1     -12.066  15.903  72.241  1.00  0.00    -0.597 A  
HETATM    4  C   UNL     1     -11.377  15.106  71.323  1.00  0.00    -0.368 A  
HETATM    5  C   UNL     1     -12.002  13.997  70.721  1.00  0.00    -0.364 A  
HETATM    6  C   UNL     1     -13.325  13.692  71.096  1.00  0.00    -0.187 A  
HETATM    7  C   UNL     1     -14.016  14.498  72.007  1.00  0.00    -0.587 A  
ENDROOT
BRANCH   5   8
HETATM    8  C   UNL     1     -11.241  13.150  69.684  1.00  0.00    -0.019 C  
BRANCH   8   9
HETATM    9  N   UNL     1     -12.077  12.040  69.144  1.00  0.00    -0.239 NA 
HETATM   10  C   UNL     1     -12.244  10.904  70.107  1.00  0.00    -0.343 C  
HETATM   11  C   UNL     1     -11.076   9.881  70.217  1.00  0.00    -0.308 C  
HETATM   12  C   UNL     1     -11.563  11.468  67.868  1.00  0.00    -0.282 C  
HETATM   13  C   UNL     1     -10.331  10.546  67.999  1.00  0.00    -0.181 C  
HETATM   14  N   UNL     1     -10.690   9.425  68.875  1.00  0.00    -0.208 NA 
BRANCH  14  15
HETATM   15  C   UNL     1      -9.752   8.393  68.916  1.00  0.00    -0.167 A  
HETATM   16  N   UNL     1      -9.525   7.701  67.810  1.00  0.00    -0.141 NA 
HETATM   17  C   UNL     1      -8.652   6.711  67.900  1.00  0.00    -0.118 A  
HETATM   18  N   UNL     1      -9.135   8.147  70.070  1.00  0.00    -0.150 NA 
HETATM   19  N   UNL     1      -8.046   6.355  69.022  1.00  0.00    -0.110 NA 
HETATM   20  C   UNL     1      -8.285   7.125  70.074  1.00  0.00    -0.136 A  
BRANCH  17  21
HETATM   21  N   UNL     1      -8.275   6.028  66.759  1.00  0.00    -0.105 NA 
HETATM   22  H   UNL     1      -7.440   6.290  66.234  1.00  0.00     0.000 HD 
BRANCH  21  23
HETATM   23  C   UNL     1      -9.109   4.931  66.343  1.00  0.00    -0.127 C  
BRANCH  23  24
HETATM   24  C   UNL     1      -8.786   4.685  64.903  1.00  0.00    -0.145 C  
HETATM   25  C   UNL     1      -8.175   3.590  64.427  1.00  0.00    -0.089 C  
ENDBRANCH  23  24
ENDBRANCH  21  23
ENDBRANCH  17  21
BRANCH  20  26
HETATM   26  N   UNL     1      -7.497   6.863  71.180  1.00  0.00    -0.081 NA 
HETATM   27  H   UNL     1      -7.638   7.382  72.048  1.00  0.00     0.000 HD 
BRANCH  26  28
HETATM   28  C   UNL     1      -6.475   5.850  71.095  1.00  0.00    -0.045 C  
BRANCH  28  29
HETATM   29  C   UNL     1      -6.756   4.810  72.148  1.00  0.00    -0.050 C  
HETATM   30  C   UNL     1      -6.879   3.495  71.917  1.00  0.00    -0.026 C  
ENDBRANCH  28  29
ENDBRANCH  26  28
ENDBRANCH  20  26
ENDBRANCH  14  15
ENDBRANCH   8   9
BRANCH   8  31
HETATM   31  C   UNL     1     -10.631  14.075  68.602  1.00  0.00    -0.263 A  
HETATM   32  C   UNL     1      -9.461  15.642  66.583  1.00  0.00    -0.259 A  
HETATM   33  C   UNL     1     -10.838  15.643  66.747  1.00  0.00    -0.277 A  
HETATM   34  F   UNL     1      -8.909  16.355  65.590  1.00  0.00    -0.302 F  
HETATM   35  C   UNL     1      -9.233  14.127  68.442  1.00  0.00    -0.203 A  
HETATM   36  C   UNL     1     -11.420  14.875  67.760  1.00  0.00    -0.353 A  
HETATM   37  C   UNL     1      -8.651  14.903  67.432  1.00  0.00    -0.208 A  
ENDBRANCH   8  31
ENDBRANCH   5   8
TORSDOF 10
ENDMDL
MODEL       64
REMARK 921   NORMALIZED FREE ENERGY PREDICTED BY IDOCK:   -4.97 KCAL/MOL
REMARK 922        TOTAL FREE ENERGY PREDICTED BY IDOCK:   -9.22 KCAL/MOL
REMARK 923 INTER-LIGAND FREE ENERGY PREDICTED BY IDOCK:   -8.92 KCAL/MOL
REMARK 924 INTRA-LIGAND FREE ENERGY PREDICTED BY IDOCK:   -0.30 KCAL/MOL
REMARK 927      BINDING AFFINITY PREDICTED BY RF-SCORE:    0.00 PKD
ROOT
HETATM    1  F   UNL     1      -5.372  10.368  68.132  1.00  0.00    -0.036 F  
HETATM    2  C   UNL     1      -6.365   9.679  68.707  1.00  0.00    -0.046 A  
HETATM    3  C   UNL     1      -6.931  10.148  69.886  1.00  0.00    -0.133 A  
HETATM    4  C   UNL     1      -7.948   9.416  70.506  1.00  0.00    -0.199 A  
HETATM    5  C   UNL     1      -8.409   8.209  69.946  1.00  0.00    -0.123 A  
HETATM    6  C   UNL     1      -7.844   7.779  68.730  1.00  0.00    -0.123 A  
HETATM    7  C   UNL     1      -6.819   8.507  68.117  1.00  0.00    -0.069 A  
ENDROOT
BRANCH   5   8
HETATM    8  C   UNL     1      -9.505   7.396  70.659  1.00  0.00    -0.164 C  
BRANCH   8   9
HETATM    9  N   UNL     1     -10.819   7.495  69.964  1.00  0.00    -0.250 NA 
HETATM   10  C   UNL     1     -10.716   8.072  68.585  1.00  0.00    -0.026 C  
HETATM   11  C   UNL     1     -10.611   9.621  68.464  1.00  0.00    -0.220 C  
HETATM   12  C   UNL     1     -11.832   8.296  70.706  1.00  0.00    -0.162 C  
HETATM   13  C   UNL     1     -11.634   9.827  70.661  1.00  0.00    -0.313 C  
HETATM   14  N   UNL     1     -11.674  10.252  69.258  1.00  0.00    -0.132 NA 
BRANCH  14  15
HETATM   15  C   UNL     1     -11.728  11.634  69.067  1.00  0.00    -0.324 A  
HETATM   16  N   UNL     1     -11.709  12.420  70.133  1.00  0.00    -0.247 NA 
HETATM   17  C   UNL     1     -11.794  13.721  69.909  1.00  0.00    -0.327 A  
HETATM   18  N   UNL     1     -11.803  12.095  67.821  1.00  0.00    -0.514 NA 
HETATM   19  N   UNL     1     -11.941  14.260  68.709  1.00  0.00    -0.327 NA 
HETATM   20  C   UNL     1     -11.901  13.415  67.689  1.00  0.00    -0.354 A  
BRANCH  17  21
HETATM   21  N   UNL     1     -11.655  14.605  70.963  1.00  0.00    -0.475 NA 
HETATM   22  H   UNL     1     -10.996  14.429  71.721  1.00  0.00     0.000 HD 
BRANCH  21  23
HETATM   23  C   UNL     1     -12.480  15.784  70.945  1.00  0.00    -0.402 C  
BRANCH  23  24
HETATM   24  C   UNL     1     -13.866  15.328  71.277  1.00  0.00    -0.562 C  
HETATM   25  C   UNL     1     -14.169  14.370  72.165  1.00  0.00    -0.626 C  
ENDBRANCH  23  24
ENDBRANCH  21  23
ENDBRANCH  17  21
BRANCH  20  26
HETATM   26  N   UNL     1     -11.856  14.007  66.440  1.00  0.00    -0.397 NA 
HETATM   27  H   UNL     1     -11.292  14.844  66.287  1.00  0.00     0.000 HD 
BRANCH  26  28
HETATM   28  C   UNL     1     -12.614  13.430  65.357  1.00  0.00    -0.475 C  
BRANCH  28  29
HETATM   29  C   UNL     1     -11.733  13.394  64.136  1.00  0.00    -0.466 C  
HETATM   30  C   UNL     1     -11.025  12.331  63.728  1.00  0.00    -0.495 C  
ENDBRANCH  28  29
ENDBRANCH  26  28
ENDBRANCH  20  26
ENDBRANCH  14  15
ENDBRANCH   8   9
BRANCH   8  31
HETATM   31  C   UNL     1      -9.012   5.946  70.889  1.00  0.00    -0.152 A  
HETATM   32  C   UNL     1      -8.103   3.299  71.167  1.00  0.00    -0.062 A  
HETATM   33  C   UNL     1      -7.446   4.328  71.824  1.00  0.00    -0.069 A  
HETATM   34  F   UNL     1      -7.640   2.045  71.264  1.00  0.00    -0.035 F  
HETATM   35  C   UNL     1      -9.686   4.877  70.268  1.00  0.00    -0.287 A  
HETATM   36  C   UNL     1      -7.905   5.643  71.698  1.00  0.00    -0.109 A  
HETATM   37  C   UNL     1      -9.230   3.560  70.402  1.00  0.00    -0.219 A  
ENDBRANCH   8  31
ENDBRANCH   5   8
TORSDOF 10
ENDMDL
MODEL       65
REMARK 921   NORMALIZED FREE ENERGY PREDICTED BY IDOCK:   -4.96 KCAL/MOL
REMARK 922        TOTAL FREE ENERGY PREDICTED BY IDOCK:   -9.21 KCAL/MOL
REMARK 923 INTER-LIGAND FREE ENERGY PREDICTED BY IDOCK:   -8.79 KCAL/MOL
REMARK 924 INTRA-LIGAND FREE ENERGY PREDICTED BY IDOCK:   -0.41 KCAL/MOL
REMARK 927      BINDING AFFINITY PREDICTED BY RF-SCORE:    0.00 PKD
ROOT
HETATM    1  F   UNL     1     -12.594  13.868  62.723  1.00  0.00    -0.177 F  
HETATM    2  C   UNL     1     -12.218  13.408  63.923  1.00  0.00    -0.415 A  
HETATM    3  C   UNL     1     -12.219  14.265  65.017  1.00  0.00    -0.438 A  
HETATM    4  C   UNL     1     -11.798  13.796  66.265  1.00  0.00    -0.426 A  
HETATM    5  C   UNL     1     -11.376  12.462  66.427  1.00  0.00    -0.392 A  
HETATM    6  C   UNL     1     -11.423  11.606  65.309  1.00  0.00    -0.173 A  
HETATM    7  C   UNL     1     -11.834  12.081  64.059  1.00  0.00    -0.500 A  
ENDROOT
BRANCH   5   8
HETATM    8  C   UNL     1     -10.881  11.970  67.800  1.00  0.00    -0.215 C  
BRANCH   8   9
HETATM    9  N   UNL     1      -9.530  11.346  67.719  1.00  0.00    -0.162 NA 
HETATM   10  C   UNL     1      -9.483  10.155  66.811  1.00  0.00    -0.168 C  
HETATM   11  C   UNL     1     -10.001   8.801  67.379  1.00  0.00    -0.208 C  
HETATM   12  C   UNL     1      -8.986  10.921  69.038  1.00  0.00    -0.094 C  
HETATM   13  C   UNL     1      -9.602   9.634  69.630  1.00  0.00    -0.208 C  
HETATM   14  N   UNL     1      -9.372   8.539  68.681  1.00  0.00    -0.142 NA 
BRANCH  14  15
HETATM   15  C   UNL     1      -9.678   7.268  69.170  1.00  0.00    -0.160 A  
HETATM   16  N   UNL     1     -10.343   7.173  70.312  1.00  0.00    -0.198 NA 
HETATM   17  C   UNL     1     -10.585   5.951  70.755  1.00  0.00    -0.265 A  
HETATM   18  N   UNL     1      -9.279   6.210  68.468  1.00  0.00    -0.116 NA 
HETATM   19  N   UNL     1     -10.165   4.848  70.157  1.00  0.00    -0.262 NA 
HETATM   20  C   UNL     1      -9.550   5.020  68.996  1.00  0.00    -0.150 A  
BRANCH  17  21
HETATM   21  N   UNL     1     -11.380   5.776  71.872  1.00  0.00    -0.243 NA 
HETATM   22  H   UNL     1     -12.269   5.278  71.819  1.00  0.00     0.000 HD 
BRANCH  21  23
HETATM   23  C   UNL     1     -10.901   6.326  73.113  1.00  0.00    -0.254 C  
BRANCH  23  24
HETATM   24  C   UNL     1     -10.517   5.159  73.966  1.00  0.00    -0.323 C  
HETATM   25  C   UNL     1     -10.950   3.902  73.792  1.00  0.00    -0.321 C  
ENDBRANCH  23  24
ENDBRANCH  21  23
ENDBRANCH  17  21
BRANCH  20  26
HETATM   26  N   UNL     1      -9.295   3.858  68.291  1.00  0.00    -0.156 NA 
HETATM   27  H   UNL     1      -8.975   3.020  68.778  1.00  0.00     0.000 HD 
BRANCH  26  28
HETATM   28  C   UNL     1      -9.486   3.843  66.862  1.00  0.00    -0.202 C  
BRANCH  28  29
HETATM   29  C   UNL     1      -8.193   3.408  66.221  1.00  0.00    -0.097 C  
HETATM   30  C   UNL     1      -8.091   2.521  65.221  1.00  0.00    -0.083 C  
ENDBRANCH  28  29
ENDBRANCH  26  28
ENDBRANCH  20  26
ENDBRANCH  14  15
ENDBRANCH   8   9
BRANCH   8  31
HETATM   31  C   UNL     1     -10.994  13.116  68.835  1.00  0.00    -0.270 A  
HETATM   32  C   UNL     1     -11.226  15.285  70.610  1.00  0.00    -0.321 A  
HETATM   33  C   UNL     1     -12.024  14.164  70.782  1.00  0.00    -0.377 A  
HETATM   34  F   UNL     1     -11.371  16.335  71.430  1.00  0.00    -0.404 F  
HETATM   35  C   UNL     1     -10.167  14.249  68.711  1.00  0.00    -0.226 A  
HETATM   36  C   UNL     1     -11.900  13.079  69.908  1.00  0.00    -0.377 A  
HETATM   37  C   UNL     1     -10.287  15.331  69.591  1.00  0.00    -0.271 A  
ENDBRANCH   8  31
ENDBRANCH   5   8
TORSDOF 10
ENDMDL
MODEL       66
REMARK 921   NORMALIZED FREE ENERGY PREDICTED BY IDOCK:   -4.95 KCAL/MOL
REMARK 922        TOTAL FREE ENERGY PREDICTED BY IDOCK:   -9.19 KCAL/MOL
REMARK 923 INTER-LIGAND FREE ENERGY PREDICTED BY IDOCK:   -8.27 KCAL/MOL
REMARK 924 INTRA-LIGAND FREE ENERGY PREDICTED BY IDOCK:   -0.92 KCAL/MOL
REMARK 927      BINDING AFFINITY PREDICTED BY RF-SCORE:    0.00 PKD
ROOT
HETATM    1  F   UNL     1     -13.149  11.849  62.638  1.00  0.00    -0.312 F  
HETATM    2  C   UNL     1     -12.353  12.228  63.646  1.00  0.00    -0.562 A  
HETATM    3  C   UNL     1     -10.985  12.348  63.431  1.00  0.00    -0.442 A  
HETATM    4  C   UNL     1     -10.147  12.714  64.488  1.00  0.00    -0.271 A  
HETATM    5  C   UNL     1     -10.673  12.966  65.769  1.00  0.00    -0.293 A  
HETATM    6  C   UNL     1     -12.068  12.874  65.948  1.00  0.00    -0.503 A  
HETATM    7  C   UNL     1     -12.903  12.498  64.891  1.00  0.00    -0.216 A  
ENDROOT
BRANCH   5   8
HETATM    8  C   UNL     1      -9.733  13.333  66.932  1.00  0.00    -0.248 C  
BRANCH   8   9
HETATM    9  N   UNL     1      -8.498  12.497  66.941  1.00  0.00    -0.167 NA 
HETATM   10  C   UNL     1      -8.740  11.082  66.511  1.00  0.00    -0.168 C  
HETATM   11  C   UNL     1      -9.330  10.103  67.568  1.00  0.00    -0.151 C  
HETATM   12  C   UNL     1      -7.816  12.448  68.263  1.00  0.00    -0.150 C  
HETATM   13  C   UNL     1      -8.490  11.557  69.329  1.00  0.00     0.377 C  
HETATM   14  N   UNL     1      -8.547  10.186  68.809  1.00  0.00    -0.126 NA 
BRANCH  14  15
HETATM   15  C   UNL     1      -8.931   9.222  69.742  1.00  0.00    -0.172 A  
HETATM   16  N   UNL     1      -9.897   9.520  70.598  1.00  0.00    -0.274 NA 
HETATM   17  C   UNL     1     -10.207   8.590  71.486  1.00  0.00    -0.250 A  
HETATM   18  N   UNL     1      -8.300   8.050  69.733  1.00  0.00    -0.120 NA 
HETATM   19  N   UNL     1      -9.586   7.426  71.591  1.00  0.00    -0.151 NA 
HETATM   20  C   UNL     1      -8.665   7.180  70.669  1.00  0.00    -0.148 A  
BRANCH  17  21
HETATM   21  N   UNL     1     -11.287   8.784  72.327  1.00  0.00    -0.338 NA 
HETATM   22  H   UNL     1     -11.202   9.327  73.186  1.00  0.00     0.000 HD 
BRANCH  21  23
HETATM   23  C   UNL     1     -12.538   8.187  71.938  1.00  0.00    -0.335 C  
BRANCH  23  24
HETATM   24  C   UNL     1     -13.497   9.318  71.739  1.00  0.00    -0.483 C  
HETATM   25  C   UNL     1     -13.196  10.617  71.885  1.00  0.00    -0.528 C  
ENDBRANCH  23  24
ENDBRANCH  21  23
ENDBRANCH  17  21
BRANCH  20  26
HETATM   26  N   UNL     1      -8.168   5.890  70.671  1.00  0.00    -0.118 NA 
HETATM   27  H   UNL     1      -7.270   5.683  70.233  1.00  0.00     0.000 HD 
BRANCH  26  28
HETATM   28  C   UNL     1      -8.932   4.839  71.297  1.00  0.00    -0.129 C  
BRANCH  28  29
HETATM   29  C   UNL     1      -8.160   3.553  71.161  1.00  0.00    -0.069 C  
HETATM   30  C   UNL     1      -7.534   2.922  72.166  1.00  0.00    -0.052 C  
ENDBRANCH  28  29
ENDBRANCH  26  28
ENDBRANCH  20  26
ENDBRANCH  14  15
ENDBRANCH   8   9
BRANCH   8  31
HETATM   31  C   UNL     1      -9.470  14.859  66.928  1.00  0.00    -0.251 A  
HETATM   32  C   UNL     1      -9.041  17.635  67.051  1.00  0.00    -0.250 A  
HETATM   33  C   UNL     1      -7.990  16.787  66.739  1.00  0.00    -0.275 A  
HETATM   34  F   UNL     1      -8.823  18.954  67.153  1.00  0.00    -0.270 F  
HETATM   35  C   UNL     1     -10.529  15.747  67.199  1.00  0.00    -0.309 A  
HETATM   36  C   UNL     1      -8.205  15.407  66.663  1.00  0.00    -0.199 A  
HETATM   37  C   UNL     1     -10.314  17.128  67.266  1.00  0.00    -0.320 A  
ENDBRANCH   8  31
ENDBRANCH   5   8
TORSDOF 10
ENDMDL
MODEL       67
REMARK 921   NORMALIZED FREE ENERGY PREDICTED BY IDOCK:   -4.95 KCAL/MOL
REMARK 922        TOTAL FREE ENERGY PREDICTED BY IDOCK:   -9.19 KCAL/MOL
REMARK 923 INTER-LIGAND FREE ENERGY PREDICTED BY IDOCK:   -8.23 KCAL/MOL
REMARK 924 INTRA-LIGAND FREE ENERGY PREDICTED BY IDOCK:   -0.96 KCAL/MOL
REMARK 927      BINDING AFFINITY PREDICTED BY RF-SCORE:    0.00 PKD
ROOT
HETATM    1  F   UNL     1      -8.714   2.372  67.341  1.00  0.00    -0.092 F  
HETATM    2  C   UNL     1      -8.977   3.685  67.341  1.00  0.00    -0.141 A  
HETATM    3  C   UNL     1      -8.136   4.552  68.029  1.00  0.00    -0.091 A  
HETATM    4  C   UNL     1      -8.425   5.920  68.057  1.00  0.00    -0.110 A  
HETATM    5  C   UNL     1      -9.557   6.430  67.393  1.00  0.00    -0.133 A  
HETATM    6  C   UNL     1     -10.369   5.532  66.672  1.00  0.00    -0.322 A  
HETATM    7  C   UNL     1     -10.084   4.163  66.654  1.00  0.00    -0.055 A  
ENDROOT
BRANCH   5   8
HETATM    8  C   UNL     1      -9.881   7.934  67.463  1.00  0.00    -0.170 C  
BRANCH   8   9
HETATM    9  N   UNL     1      -9.450   8.541  68.754  1.00  0.00    -0.143 NA 
HETATM   10  C   UNL     1     -10.589   8.803  69.692  1.00  0.00    -0.219 C  
HETATM   11  C   UNL     1     -11.436  10.087  69.448  1.00  0.00    -0.083 C  
HETATM   12  C   UNL     1      -8.701   9.818  68.597  1.00  0.00    -0.122 C  
HETATM   13  C   UNL     1      -9.558  11.053  68.242  1.00  0.00    -0.171 C  
HETATM   14  N   UNL     1     -10.546  11.247  69.309  1.00  0.00    -0.189 NA 
BRANCH  14  15
HETATM   15  C   UNL     1     -11.251  12.450  69.241  1.00  0.00    -0.201 A  
HETATM   16  N   UNL     1     -11.384  13.040  68.063  1.00  0.00    -0.271 NA 
HETATM   17  C   UNL     1     -12.030  14.193  68.048  1.00  0.00    -0.337 A  
HETATM   18  N   UNL     1     -11.750  12.952  70.369  1.00  0.00    -0.141 NA 
HETATM   19  N   UNL     1     -12.498  14.796  69.130  1.00  0.00    -0.055 NA 
HETATM   20  C   UNL     1     -12.371  14.123  70.265  1.00  0.00    -0.356 A  
BRANCH  17  21
HETATM   21  N   UNL     1     -12.315  14.801  66.840  1.00  0.00    -0.341 NA 
HETATM   22  H   UNL     1     -13.253  15.135  66.620  1.00  0.00     0.000 HD 
BRANCH  21  23
HETATM   23  C   UNL     1     -11.230  14.941  65.904  1.00  0.00    -0.328 C  
BRANCH  23  24
HETATM   24  C   UNL     1     -11.678  14.272  64.643  1.00  0.00    -0.439 C  
HETATM   25  C   UNL     1     -12.296  13.084  64.579  1.00  0.00    -0.461 C  
ENDBRANCH  23  24
ENDBRANCH  21  23
ENDBRANCH  17  21
BRANCH  20  26
HETATM   26  N   UNL     1     -13.036  14.670  71.346  1.00  0.00    -0.328 NA 
HETATM   27  H   UNL     1     -13.572  15.532  71.240  1.00  0.00     0.000 HD 
BRANCH  26  28
HETATM   28  C   UNL     1     -12.964  14.011  72.627  1.00  0.00    -0.387 C  
BRANCH  28  29
HETATM   29  C   UNL     1     -12.156  14.878  73.557  1.00  0.00    -0.436 C  
HETATM   30  C   UNL     1     -12.532  16.084  74.006  1.00  0.00    -0.742 C  
ENDBRANCH  28  29
ENDBRANCH  26  28
ENDBRANCH  20  26
ENDBRANCH  14  15
ENDBRANCH   8   9
BRANCH   8  31
HETATM   31  C   UNL     1      -9.324   8.646  66.206  1.00  0.00    -0.282 A  
HETATM   32  C   UNL     1      -8.333  10.061  63.987  1.00  0.00    -0.170 A  
HETATM   33  C   UNL     1      -7.549   9.093  64.596  1.00  0.00    -0.106 A  
HETATM   34  F   UNL     1      -7.841  10.766  62.958  1.00  0.00    -0.145 F  
HETATM   35  C   UNL     1     -10.116   9.603  65.542  1.00  0.00    -0.165 A  
HETATM   36  C   UNL     1      -8.045   8.379  65.690  1.00  0.00    -0.125 A  
HETATM   37  C   UNL     1      -9.619  10.311  64.441  1.00  0.00    -0.378 A  
ENDBRANCH   8  31
ENDBRANCH   5   8
TORSDOF 10
ENDMDL
MODEL       68
REMARK 921   NORMALIZED FREE ENERGY PREDICTED BY IDOCK:   -4.93 KCAL/MOL
REMARK 922        TOTAL FREE ENERGY PREDICTED BY IDOCK:   -9.16 KCAL/MOL
REMARK 923 INTER-LIGAND FREE ENERGY PREDICTED BY IDOCK:   -8.24 KCAL/MOL
REMARK 924 INTRA-LIGAND FREE ENERGY PREDICTED BY IDOCK:   -0.92 KCAL/MOL
REMARK 927      BINDING AFFINITY PREDICTED BY RF-SCORE:    0.00 PKD
ROOT
HETATM    1  F   UNL     1     -14.411  16.026  72.912  1.00  0.00    -0.664 F  
HETATM    2  C   UNL     1     -13.642  15.196  72.194  1.00  0.00    -0.455 A  
HETATM    3  C   UNL     1     -12.664  15.721  71.358  1.00  0.00    -0.509 A  
HETATM    4  C   UNL     1     -11.880  14.860  70.584  1.00  0.00    -0.357 A  
HETATM    5  C   UNL     1     -12.067  13.466  70.646  1.00  0.00    -0.374 A  
HETATM    6  C   UNL     1     -13.039  12.961  71.533  1.00  0.00    -0.390 A  
HETATM    7  C   UNL     1     -13.830  13.825  72.298  1.00  0.00    -0.679 A  
ENDROOT
BRANCH   5   8
HETATM    8  C   UNL     1     -11.220  12.533  69.762  1.00  0.00     0.061 C  
BRANCH   8   9
HETATM    9  N   UNL     1     -11.838  11.185  69.613  1.00  0.00    -0.318 NA 
HETATM   10  C   UNL     1     -11.294  10.176  70.578  1.00  0.00    -0.338 C  
HETATM   11  C   UNL     1      -9.929   9.514  70.227  1.00  0.00    -0.259 C  
HETATM   12  C   UNL     1     -11.704  10.610  68.246  1.00  0.00    -0.057 C  
HETATM   13  C   UNL     1     -10.304  10.064  67.887  1.00  0.00    -0.207 C  
HETATM   14  N   UNL     1      -9.964   9.009  68.848  1.00  0.00    -0.183 NA 
BRANCH  14  15
HETATM   15  C   UNL     1      -8.826   8.269  68.525  1.00  0.00    -0.137 A  
HETATM   16  N   UNL     1      -8.518   7.222  69.276  1.00  0.00    -0.132 NA 
HETATM   17  C   UNL     1      -7.414   6.568  68.955  1.00  0.00    -0.095 A  
HETATM   18  N   UNL     1      -8.097   8.658  67.481  1.00  0.00    -0.106 NA 
HETATM   19  N   UNL     1      -6.597   6.927  67.978  1.00  0.00    -0.056 NA 
HETATM   20  C   UNL     1      -6.996   7.953  67.240  1.00  0.00    -0.074 A  
BRANCH  17  21
HETATM   21  N   UNL     1      -7.100   5.395  69.615  1.00  0.00    -0.061 NA 
HETATM   22  H   UNL     1      -6.194   5.263  70.063  1.00  0.00     0.000 HD 
BRANCH  21  23
HETATM   23  C   UNL     1      -8.108   4.367  69.643  1.00  0.00    -0.060 C  
BRANCH  23  24
HETATM   24  C   UNL     1      -7.985   3.627  68.349  1.00  0.00    -0.072 C  
HETATM   25  C   UNL     1      -9.013   3.261  67.570  1.00  0.00    -0.178 C  
ENDBRANCH  23  24
ENDBRANCH  21  23
ENDBRANCH  17  21
BRANCH  20  26
HETATM   26  N   UNL     1      -6.237   8.189  66.109  1.00  0.00    -0.045 NA 
HETATM   27  H   UNL     1      -6.090   7.448  65.422  1.00  0.00     0.000 HD 
BRANCH  26  28
HETATM   28  C   UNL     1      -5.656   9.494  65.908  1.00  0.00    -0.045 C  
BRANCH  28  29
HETATM   29  C   UNL     1      -5.889   9.896  64.475  1.00  0.00    -0.100 C  
HETATM   30  C   UNL     1      -6.323   9.076  63.507  1.00  0.00    -0.089 C  
ENDBRANCH  28  29
ENDBRANCH  26  28
ENDBRANCH  20  26
ENDBRANCH  14  15
ENDBRANCH   8   9
BRANCH   8  31
HETATM   31  C   UNL     1     -10.896  13.238  68.421  1.00  0.00    -0.279 A  
HETATM   32  C   UNL     1     -10.235  14.405  65.951  1.00  0.00    -0.325 A  
HETATM   33  C   UNL     1     -11.566  14.264  66.313  1.00  0.00    -0.379 A  
HETATM   34  F   UNL     1      -9.924  14.921  64.753  1.00  0.00    -0.361 F  
HETATM   35  C   UNL     1      -9.553  13.434  68.047  1.00  0.00    -0.219 A  
HETATM   36  C   UNL     1     -11.896  13.696  67.548  1.00  0.00    -0.416 A  
HETATM   37  C   UNL     1      -9.224  14.010  66.813  1.00  0.00    -0.280 A  
ENDBRANCH   8  31
ENDBRANCH   5   8
TORSDOF 10
ENDMDL
MODEL       69
REMARK 921   NORMALIZED FREE ENERGY PREDICTED BY IDOCK:   -4.93 KCAL/MOL
REMARK 922        TOTAL FREE ENERGY PREDICTED BY IDOCK:   -9.15 KCAL/MOL
REMARK 923 INTER-LIGAND FREE ENERGY PREDICTED BY IDOCK:   -8.68 KCAL/MOL
REMARK 924 INTRA-LIGAND FREE ENERGY PREDICTED BY IDOCK:   -0.47 KCAL/MOL
REMARK 927      BINDING AFFINITY PREDICTED BY RF-SCORE:    0.00 PKD
ROOT
HETATM    1  F   UNL     1      -8.841  19.670  66.049  1.00  0.00    -0.358 F  
HETATM    2  C   UNL     1      -9.087  18.381  66.316  1.00  0.00    -0.201 A  
HETATM    3  C   UNL     1     -10.294  17.817  65.921  1.00  0.00    -0.257 A  
HETATM    4  C   UNL     1     -10.567  16.481  66.225  1.00  0.00    -0.223 A  
HETATM    5  C   UNL     1      -9.630  15.697  66.925  1.00  0.00    -0.244 A  
HETATM    6  C   UNL     1      -8.399  16.284  67.278  1.00  0.00    -0.203 A  
HETATM    7  C   UNL     1      -8.133  17.625  66.982  1.00  0.00    -0.243 A  
ENDROOT
BRANCH   5   8
HETATM    8  C   UNL     1      -9.960  14.236  67.284  1.00  0.00    -0.252 C  
BRANCH   8   9
HETATM    9  N   UNL     1      -8.750  13.365  67.263  1.00  0.00    -0.209 NA 
HETATM   10  C   UNL     1      -8.833  12.264  66.250  1.00  0.00    -0.007 C  
HETATM   11  C   UNL     1      -9.655  10.999  66.634  1.00  0.00    -0.189 C  
HETATM   12  C   UNL     1      -8.439  12.738  68.577  1.00  0.00    -0.044 C  
HETATM   13  C   UNL     1      -9.347  11.556  68.982  1.00  0.00     0.108 C  
HETATM   14  N   UNL     1      -9.229  10.515  67.955  1.00  0.00    -0.139 NA 
BRANCH  14  15
HETATM   15  C   UNL     1      -9.820   9.295  68.288  1.00  0.00    -0.158 A  
HETATM   16  N   UNL     1     -10.071   9.042  69.563  1.00  0.00    -0.191 NA 
HETATM   17  C   UNL     1     -10.602   7.862  69.838  1.00  0.00    -0.242 A  
HETATM   18  N   UNL     1     -10.096   8.440  67.306  1.00  0.00    -0.227 NA 
HETATM   19  N   UNL     1     -10.844   6.928  68.933  1.00  0.00    -0.224 NA 
HETATM   20  C   UNL     1     -10.614   7.272  67.674  1.00  0.00    -0.246 A  
BRANCH  17  21
HETATM   21  N   UNL     1     -11.005   7.580  71.130  1.00  0.00    -0.243 NA 
HETATM   22  H   UNL     1     -11.230   6.629  71.421  1.00  0.00     0.000 HD 
BRANCH  21  23
HETATM   23  C   UNL     1     -11.095   8.687  72.047  1.00  0.00    -0.367 C  
BRANCH  23  24
HETATM   24  C   UNL     1     -12.555   8.952  72.240  1.00  0.00    -0.455 C  
HETATM   25  C   UNL     1     -13.218  10.006  71.744  1.00  0.00    -0.540 C  
ENDBRANCH  23  24
ENDBRANCH  21  23
ENDBRANCH  17  21
BRANCH  20  26
HETATM   26  N   UNL     1     -11.055   6.364  66.729  1.00  0.00    -0.720 NA 
HETATM   27  H   UNL     1     -11.844   6.593  66.123  1.00  0.00     0.000 HD 
BRANCH  26  28
HETATM   28  C   UNL     1     -10.390   5.090  66.610  1.00  0.00    -0.270 C  
BRANCH  28  29
HETATM   29  C   UNL     1      -9.250   5.246  65.637  1.00  0.00    -0.145 C  
HETATM   30  C   UNL     1      -8.263   4.355  65.459  1.00  0.00    -0.110 C  
ENDBRANCH  28  29
ENDBRANCH  26  28
ENDBRANCH  20  26
ENDBRANCH  14  15
ENDBRANCH   8   9
BRANCH   8  31
HETATM   31  C   UNL     1     -10.755  14.193  68.612  1.00  0.00    -0.263 A  
HETATM   32  C   UNL     1     -12.149  13.984  71.045  1.00  0.00    -0.305 A  
HETATM   33  C   UNL     1     -11.253  15.024  70.849  1.00  0.00    -0.268 A  
HETATM   34  F   UNL     1     -12.779  13.862  72.222  1.00  0.00    -0.389 F  
HETATM   35  C   UNL     1     -11.703  13.172  68.821  1.00  0.00    -0.363 A  
HETATM   36  C   UNL     1     -10.569  15.137  69.635  1.00  0.00    -0.274 A  
HETATM   37  C   UNL     1     -12.392  13.066  70.035  1.00  0.00    -0.222 A  
ENDBRANCH   8  31
ENDBRANCH   5   8
TORSDOF 10
ENDMDL
MODEL       70
REMARK 921   NORMALIZED FREE ENERGY PREDICTED BY IDOCK:   -4.92 KCAL/MOL
REMARK 922        TOTAL FREE ENERGY PREDICTED BY IDOCK:   -9.15 KCAL/MOL
REMARK 923 INTER-LIGAND FREE ENERGY PREDICTED BY IDOCK:   -8.46 KCAL/MOL
REMARK 924 INTRA-LIGAND FREE ENERGY PREDICTED BY IDOCK:   -0.69 KCAL/MOL
REMARK 927      BINDING AFFINITY PREDICTED BY RF-SCORE:    0.00 PKD
ROOT
HETATM    1  F   UNL     1     -10.108  14.206  64.423  1.00  0.00    -0.418 F  
HETATM    2  C   UNL     1     -10.356  13.508  65.538  1.00  0.00    -0.300 A  
HETATM    3  C   UNL     1     -11.388  12.577  65.548  1.00  0.00    -0.368 A  
HETATM    4  C   UNL     1     -11.670  11.868  66.719  1.00  0.00    -0.281 A  
HETATM    5  C   UNL     1     -10.917  12.083  67.889  1.00  0.00    -0.266 A  
HETATM    6  C   UNL     1      -9.852  13.003  67.838  1.00  0.00    -0.224 A  
HETATM    7  C   UNL     1      -9.578  13.720  66.668  1.00  0.00    -0.295 A  
ENDROOT
BRANCH   5   8
HETATM    8  C   UNL     1     -11.263  11.320  69.181  1.00  0.00    -0.273 C  
BRANCH   8   9
HETATM    9  N   UNL     1     -10.058  10.709  69.812  1.00  0.00    -0.101 NA 
HETATM   10  C   UNL     1      -9.037  10.254  68.815  1.00  0.00    -0.159 C  
HETATM   11  C   UNL     1      -9.281   8.885  68.114  1.00  0.00    -0.139 C  
HETATM   12  C   UNL     1     -10.365   9.550  70.694  1.00  0.00    -0.302 C  
HETATM   13  C   UNL     1     -10.716   8.233  69.967  1.00  0.00    -0.239 C  
HETATM   14  N   UNL     1      -9.576   7.859  69.124  1.00  0.00    -0.152 NA 
BRANCH  14  15
HETATM   15  C   UNL     1      -9.652   6.579  68.571  1.00  0.00    -0.123 A  
HETATM   16  N   UNL     1      -9.944   6.463  67.284  1.00  0.00    -0.135 NA 
HETATM   17  C   UNL     1     -10.039   5.233  66.808  1.00  0.00    -0.224 A  
HETATM   18  N   UNL     1      -9.436   5.535  69.367  1.00  0.00    -0.128 NA 
HETATM   19  N   UNL     1      -9.907   4.140  67.544  1.00  0.00    -0.135 NA 
HETATM   20  C   UNL     1      -9.566   4.335  68.810  1.00  0.00    -0.149 A  
BRANCH  17  21
HETATM   21  N   UNL     1     -10.216   5.038  65.451  1.00  0.00    -0.420 NA 
HETATM   22  H   UNL     1     -10.531   5.794  64.843  1.00  0.00     0.000 HD 
BRANCH  21  23
HETATM   23  C   UNL     1      -9.938   3.724  64.934  1.00  0.00    -0.171 C  
BRANCH  23  24
HETATM   24  C   UNL     1      -9.129   3.927  63.692  1.00  0.00    -0.122 C  
HETATM   25  C   UNL     1      -8.302   4.959  63.472  1.00  0.00    -0.122 C  
ENDBRANCH  23  24
ENDBRANCH  21  23
ENDBRANCH  17  21
BRANCH  20  26
HETATM   26  N   UNL     1      -9.240   3.189  69.510  1.00  0.00    -0.139 NA 
HETATM   27  H   UNL     1      -9.806   2.346  69.413  1.00  0.00     0.000 HD 
BRANCH  26  28
HETATM   28  C   UNL     1      -8.089   3.197  70.381  1.00  0.00    -0.045 C  
BRANCH  28  29
HETATM   29  C   UNL     1      -6.853   3.277  69.524  1.00  0.00    -0.037 C  
HETATM   30  C   UNL     1      -6.474   2.351  68.632  1.00  0.00    -0.029 C  
ENDBRANCH  28  29
ENDBRANCH  26  28
ENDBRANCH  20  26
ENDBRANCH  14  15
ENDBRANCH   8   9
BRANCH   8  31
HETATM   31  C   UNL     1     -12.082  12.236  70.124  1.00  0.00    -0.364 A  
HETATM   32  C   UNL     1     -13.497  13.846  71.943  1.00  0.00    -0.427 A  
HETATM   33  C   UNL     1     -12.815  14.432  70.888  1.00  0.00    -0.419 A  
HETATM   34  F   UNL     1     -14.134  14.619  72.835  1.00  0.00    -0.461 F  
HETATM   35  C   UNL     1     -12.820  11.664  71.179  1.00  0.00    -0.392 A  
HETATM   36  C   UNL     1     -12.122  13.631  69.974  1.00  0.00    -0.417 A  
HETATM   37  C   UNL     1     -13.519  12.467  72.088  1.00  0.00    -0.481 A  
ENDBRANCH   8  31
ENDBRANCH   5   8
TORSDOF 10
ENDMDL
MODEL       71
REMARK 921   NORMALIZED FREE ENERGY PREDICTED BY IDOCK:   -4.89 KCAL/MOL
REMARK 922        TOTAL FREE ENERGY PREDICTED BY IDOCK:   -9.10 KCAL/MOL
REMARK 923 INTER-LIGAND FREE ENERGY PREDICTED BY IDOCK:   -9.64 KCAL/MOL
REMARK 924 INTRA-LIGAND FREE ENERGY PREDICTED BY IDOCK:    0.54 KCAL/MOL
REMARK 927      BINDING AFFINITY PREDICTED BY RF-SCORE:    0.00 PKD
ROOT
HETATM    1  F   UNL     1     -11.772  16.829  70.977  1.00  0.00    -0.259 F  
HETATM    2  C   UNL     1     -11.752  15.624  70.393  1.00  0.00    -0.357 A  
HETATM    3  C   UNL     1     -11.466  14.498  71.155  1.00  0.00    -0.102 A  
HETATM    4  C   UNL     1     -11.414  13.242  70.542  1.00  0.00     0.318 A  
HETATM    5  C   UNL     1     -11.653  13.105  69.161  1.00  0.00    -0.368 A  
HETATM    6  C   UNL     1     -11.980  14.259  68.422  1.00  0.00    -0.344 A  
HETATM    7  C   UNL     1     -12.021  15.516  69.035  1.00  0.00    -0.323 A  
ENDROOT
BRANCH   5   8
HETATM    8  C   UNL     1     -11.558  11.720  68.495  1.00  0.00    -0.321 C  
BRANCH   8   9
HETATM    9  N   UNL     1     -10.293  11.554  67.724  1.00  0.00    -0.179 NA 
HETATM   10  C   UNL     1      -9.117  12.224  68.368  1.00  0.00    -0.146 C  
HETATM   11  C   UNL     1      -8.965  13.759  68.158  1.00  0.00    -0.190 C  
HETATM   12  C   UNL     1     -10.374  12.050  66.323  1.00  0.00    -0.221 C  
HETATM   13  C   UNL     1     -10.335  13.584  66.155  1.00  0.00    -0.296 C  
HETATM   14  N   UNL     1      -9.076  14.075  66.727  1.00  0.00    -0.250 NA 
BRANCH  14  15
HETATM   15  C   UNL     1      -8.796  15.416  66.458  1.00  0.00    -0.312 A  
HETATM   16  N   UNL     1      -9.783  16.199  66.052  1.00  0.00    -0.323 NA 
HETATM   17  C   UNL     1      -9.468  17.454  65.777  1.00  0.00     0.144 A  
HETATM   18  N   UNL     1      -7.544  15.841  66.614  1.00  0.00    -0.145 NA 
HETATM   19  N   UNL     1      -8.239  17.941  65.839  1.00  0.00    -0.532 NA 
HETATM   20  C   UNL     1      -7.313  17.112  66.300  1.00  0.00    -0.291 A  
BRANCH  17  21
HETATM   21  N   UNL     1     -10.468  18.357  65.470  1.00  0.00    -0.571 NA 
HETATM   22  H   UNL     1     -11.191  18.137  64.785  1.00  0.00     0.000 HD 
BRANCH  21  23
HETATM   23  C   UNL     1     -10.446  19.621  66.158  1.00  0.00    -0.524 C  
BRANCH  23  24
HETATM   24  C   UNL     1     -10.853  19.335  67.569  1.00  0.00    -0.524 C  
HETATM   25  C   UNL     1     -10.281  19.867  68.658  1.00  0.00    -0.494 C  
ENDBRANCH  23  24
ENDBRANCH  21  23
ENDBRANCH  17  21
BRANCH  20  26
HETATM   26  N   UNL     1      -6.081  17.690  66.546  1.00  0.00    -0.181 NA 
HETATM   27  H   UNL     1      -5.339  17.151  66.995  1.00  0.00     0.000 HD 
BRANCH  26  28
HETATM   28  C   UNL     1      -5.855  19.062  66.163  1.00  0.00    -0.162 C  
BRANCH  28  29
HETATM   29  C   UNL     1      -6.151  19.936  67.353  1.00  0.00    -0.205 C  
HETATM   30  C   UNL     1      -6.961  21.005  67.341  1.00  0.00    -0.415 C  
ENDBRANCH  28  29
ENDBRANCH  26  28
ENDBRANCH  20  26
ENDBRANCH  14  15
ENDBRANCH   8   9
BRANCH   8  31
HETATM   31  C   UNL     1     -11.811  10.616  69.551  1.00  0.00    -0.345 A  
HETATM   32  C   UNL     1     -12.161   8.657  71.537  1.00  0.00    -0.318 A  
HETATM   33  C   UNL     1     -13.195   9.531  71.239  1.00  0.00    -0.400 A  
HETATM   34  F   UNL     1     -12.315   7.754  72.516  1.00  0.00    -0.298 F  
HETATM   35  C   UNL     1     -10.794   9.687  69.843  1.00  0.00    -0.287 A  
HETATM   36  C   UNL     1     -13.028  10.496  70.242  1.00  0.00    -0.115 A  
HETATM   37  C   UNL     1     -10.966   8.716  70.837  1.00  0.00    -0.301 A  
ENDBRANCH   8  31
ENDBRANCH   5   8
TORSDOF 10
ENDMDL
MODEL       72
REMARK 921   NORMALIZED FREE ENERGY PREDICTED BY IDOCK:   -4.87 KCAL/MOL
REMARK 922        TOTAL FREE ENERGY PREDICTED BY IDOCK:   -9.06 KCAL/MOL
REMARK 923 INTER-LIGAND FREE ENERGY PREDICTED BY IDOCK:   -8.07 KCAL/MOL
REMARK 924 INTRA-LIGAND FREE ENERGY PREDICTED BY IDOCK:   -0.99 KCAL/MOL
REMARK 927      BINDING AFFINITY PREDICTED BY RF-SCORE:    0.00 PKD
ROOT
HETATM    1  F   UNL     1     -12.865  10.676  72.160  1.00  0.00    -0.510 F  
HETATM    2  C   UNL     1     -12.076  10.332  71.134  1.00  0.00    -0.395 A  
HETATM    3  C   UNL     1     -11.094   9.366  71.319  1.00  0.00    -0.446 A  
HETATM    4  C   UNL     1     -10.249   9.027  70.259  1.00  0.00    -0.235 A  
HETATM    5  C   UNL     1     -10.383   9.649  69.003  1.00  0.00    -0.218 A  
HETATM    6  C   UNL     1     -11.413  10.595  68.834  1.00  0.00    -0.334 A  
HETATM    7  C   UNL     1     -12.251  10.942  69.899  1.00  0.00    -0.408 A  
ENDROOT
BRANCH   5   8
HETATM    8  C   UNL     1      -9.421   9.289  67.856  1.00  0.00    -0.137 C  
BRANCH   8   9
HETATM    9  N   UNL     1      -8.028   9.742  68.129  1.00  0.00    -0.099 NA 
HETATM   10  C   UNL     1      -7.938  10.736  69.246  1.00  0.00    -0.106 C  
HETATM   11  C   UNL     1      -8.284  12.218  68.915  1.00  0.00     0.192 C  
HETATM   12  C   UNL     1      -7.348  10.340  66.947  1.00  0.00    -0.097 C  
HETATM   13  C   UNL     1      -7.795  11.770  66.574  1.00  0.00     0.020 C  
HETATM   14  N   UNL     1      -7.537  12.645  67.723  1.00  0.00    -0.127 NA 
BRANCH  14  15
HETATM   15  C   UNL     1      -7.686  14.008  67.465  1.00  0.00    -0.182 A  
HETATM   16  N   UNL     1      -8.906  14.486  67.274  1.00  0.00    -0.197 NA 
HETATM   17  C   UNL     1      -8.999  15.777  67.001  1.00  0.00    -0.224 A  
HETATM   18  N   UNL     1      -6.590  14.763  67.417  1.00  0.00    -0.301 NA 
HETATM   19  N   UNL     1      -7.959  16.584  66.866  1.00  0.00    -0.199 NA 
HETATM   20  C   UNL     1      -6.775  16.046  67.121  1.00  0.00    -0.170 A  
BRANCH  17  21
HETATM   21  N   UNL     1     -10.246  16.367  66.914  1.00  0.00    -0.285 NA 
HETATM   22  H   UNL     1     -10.958  16.215  67.629  1.00  0.00     0.000 HD 
BRANCH  21  23
HETATM   23  C   UNL     1     -10.498  17.205  65.770  1.00  0.00    -0.233 C  
BRANCH  23  24
HETATM   24  C   UNL     1     -10.503  18.612  66.278  1.00  0.00    -0.468 C  
HETATM   25  C   UNL     1     -10.599  18.966  67.567  1.00  0.00    -0.524 C  
ENDBRANCH  23  24
ENDBRANCH  21  23
ENDBRANCH  17  21
BRANCH  20  26
HETATM   26  N   UNL     1      -5.724  16.943  67.170  1.00  0.00    -0.150 NA 
HETATM   27  H   UNL     1      -5.258  17.239  66.312  1.00  0.00     0.000 HD 
BRANCH  26  28
HETATM   28  C   UNL     1      -5.292  17.456  68.447  1.00  0.00    -0.145 C  
BRANCH  28  29
HETATM   29  C   UNL     1      -5.475  18.951  68.439  1.00  0.00    -0.191 C  
HETATM   30  C   UNL     1      -6.619  19.588  68.727  1.00  0.00    -0.330 C  
ENDBRANCH  28  29
ENDBRANCH  26  28
ENDBRANCH  20  26
ENDBRANCH  14  15
ENDBRANCH   8   9
BRANCH   8  31
HETATM   31  C   UNL     1      -9.549   7.782  67.523  1.00  0.00    -0.184 A  
HETATM   32  C   UNL     1      -9.749   5.018  67.051  1.00  0.00    -0.165 A  
HETATM   33  C   UNL     1     -10.822   5.847  66.762  1.00  0.00    -0.347 A  
HETATM   34  F   UNL     1      -9.863   3.694  66.867  1.00  0.00    -0.235 F  
HETATM   35  C   UNL     1      -8.460   6.923  67.765  1.00  0.00    -0.123 A  
HETATM   36  C   UNL     1     -10.719   7.224  66.983  1.00  0.00    -0.406 A  
HETATM   37  C   UNL     1      -8.562   5.545  67.536  1.00  0.00    -0.108 A  
ENDBRANCH   8  31
ENDBRANCH   5   8
TORSDOF 10
ENDMDL
MODEL       73
REMARK 921   NORMALIZED FREE ENERGY PREDICTED BY IDOCK:   -4.86 KCAL/MOL
REMARK 922        TOTAL FREE ENERGY PREDICTED BY IDOCK:   -9.05 KCAL/MOL
REMARK 923 INTER-LIGAND FREE ENERGY PREDICTED BY IDOCK:   -7.76 KCAL/MOL
REMARK 924 INTRA-LIGAND FREE ENERGY PREDICTED BY IDOCK:   -1.29 KCAL/MOL
REMARK 927      BINDING AFFINITY PREDICTED BY RF-SCORE:    0.00 PKD
ROOT
HETATM    1  F   UNL     1      -7.549   3.414  64.354  1.00  0.00    -0.070 F  
HETATM    2  C   UNL     1      -7.898   4.127  65.433  1.00  0.00    -0.086 A  
HETATM    3  C   UNL     1      -9.072   3.815  66.110  1.00  0.00    -0.151 A  
HETATM    4  C   UNL     1      -9.455   4.575  67.218  1.00  0.00    -0.184 A  
HETATM    5  C   UNL     1      -8.663   5.652  67.661  1.00  0.00    -0.107 A  
HETATM    6  C   UNL     1      -7.459   5.919  66.980  1.00  0.00    -0.084 A  
HETATM    7  C   UNL     1      -7.083   5.164  65.864  1.00  0.00    -0.068 A  
ENDROOT
BRANCH   5   8
HETATM    8  C   UNL     1      -9.118   6.501  68.862  1.00  0.00    -0.131 C  
BRANCH   8   9
HETATM    9  N   UNL     1     -10.563   6.857  68.783  1.00  0.00    -0.211 NA 
HETATM   10  C   UNL     1     -10.966   7.397  67.445  1.00  0.00    -0.144 C  
HETATM   11  C   UNL     1     -10.650   8.893  67.151  1.00  0.00    -0.231 C  
HETATM   12  C   UNL     1     -10.994   7.847  69.809  1.00  0.00    -0.148 C  
HETATM   13  C   UNL     1     -10.567   9.307  69.547  1.00  0.00    -0.224 C  
HETATM   14  N   UNL     1     -11.134   9.726  68.260  1.00  0.00    -0.161 NA 
BRANCH  14  15
HETATM   15  C   UNL     1     -11.019  11.090  67.987  1.00  0.00    -0.258 A  
HETATM   16  N   UNL     1     -10.130  11.798  68.667  1.00  0.00    -0.212 NA 
HETATM   17  C   UNL     1     -10.075  13.092  68.400  1.00  0.00    -0.231 A  
HETATM   18  N   UNL     1     -11.816  11.617  67.060  1.00  0.00    -0.575 NA 
HETATM   19  N   UNL     1     -10.876  13.708  67.544  1.00  0.00    -0.262 NA 
HETATM   20  C   UNL     1     -11.705  12.927  66.866  1.00  0.00    -0.382 A  
BRANCH  17  21
HETATM   21  N   UNL     1      -9.088  13.867  68.979  1.00  0.00    -0.383 NA 
HETATM   22  H   UNL     1      -9.216  14.290  69.899  1.00  0.00     0.000 HD 
BRANCH  21  23
HETATM   23  C   UNL     1      -7.873  14.052  68.230  1.00  0.00    -0.140 C  
BRANCH  23  24
HETATM   24  C   UNL     1      -7.772  15.519  67.954  1.00  0.00    -0.142 C  
HETATM   25  C   UNL     1      -7.637  16.471  68.889  1.00  0.00    -0.238 C  
ENDBRANCH  23  24
ENDBRANCH  21  23
ENDBRANCH  17  21
BRANCH  20  26
HETATM   26  N   UNL     1     -12.391  13.553  65.842  1.00  0.00    -0.455 NA 
HETATM   27  H   UNL     1     -13.404  13.665  65.892  1.00  0.00     0.000 HD 
BRANCH  26  28
HETATM   28  C   UNL     1     -11.659  14.045  64.700  1.00  0.00    -0.392 C  
BRANCH  28  29
HETATM   29  C   UNL     1     -12.111  13.275  63.486  1.00  0.00    -0.550 C  
HETATM   30  C   UNL     1     -12.436  11.974  63.477  1.00  0.00    -0.654 C  
ENDBRANCH  28  29
ENDBRANCH  26  28
ENDBRANCH  20  26
ENDBRANCH  14  15
ENDBRANCH   8   9
BRANCH   8  31
HETATM   31  C   UNL     1      -8.703   5.803  70.181  1.00  0.00    -0.140 A  
HETATM   32  C   UNL     1      -7.946   4.415  72.505  1.00  0.00    -0.093 A  
HETATM   33  C   UNL     1      -7.185   5.486  72.062  1.00  0.00    -0.088 A  
HETATM   34  F   UNL     1      -7.558   3.726  73.588  1.00  0.00    -0.063 F  
HETATM   35  C   UNL     1      -9.482   4.741  70.678  1.00  0.00    -0.238 A  
HETATM   36  C   UNL     1      -7.568   6.186  70.914  1.00  0.00    -0.097 A  
HETATM   37  C   UNL     1      -9.101   4.046  71.832  1.00  0.00    -0.167 A  
ENDBRANCH   8  31
ENDBRANCH   5   8
TORSDOF 10
ENDMDL
MODEL       74
REMARK 921   NORMALIZED FREE ENERGY PREDICTED BY IDOCK:   -4.84 KCAL/MOL
REMARK 922        TOTAL FREE ENERGY PREDICTED BY IDOCK:   -9.01 KCAL/MOL
REMARK 923 INTER-LIGAND FREE ENERGY PREDICTED BY IDOCK:   -7.60 KCAL/MOL
REMARK 924 INTRA-LIGAND FREE ENERGY PREDICTED BY IDOCK:   -1.40 KCAL/MOL
REMARK 927      BINDING AFFINITY PREDICTED BY RF-SCORE:    0.00 PKD
ROOT
HETATM    1  F   UNL     1     -12.052  16.592  71.834  1.00  0.00    -0.437 F  
HETATM    2  C   UNL     1     -11.724  15.581  71.019  1.00  0.00    -0.381 A  
HETATM    3  C   UNL     1     -10.726  15.762  70.070  1.00  0.00    -0.347 A  
HETATM    4  C   UNL     1     -10.402  14.719  69.198  1.00  0.00    -0.237 A  
HETATM    5  C   UNL     1     -11.072  13.483  69.274  1.00  0.00    -0.230 A  
HETATM    6  C   UNL     1     -12.052  13.315  70.272  1.00  0.00    -0.405 A  
HETATM    7  C   UNL     1     -12.382  14.364  71.137  1.00  0.00    -0.428 A  
ENDROOT
BRANCH   5   8
HETATM    8  C   UNL     1     -10.728  12.355  68.283  1.00  0.00    -0.230 C  
BRANCH   8   9
HETATM    9  N   UNL     1     -11.290  11.042  68.710  1.00  0.00    -0.258 NA 
HETATM   10  C   UNL     1     -10.598  10.465  69.907  1.00  0.00    -0.251 C  
HETATM   11  C   UNL     1      -9.245   9.732  69.667  1.00  0.00    -0.223 C  
HETATM   12  C   UNL     1     -11.269  10.005  67.642  1.00  0.00    -0.024 C  
HETATM   13  C   UNL     1      -9.889   9.378  67.348  1.00  0.00    -0.172 C  
HETATM   14  N   UNL     1      -9.398   8.754  68.582  1.00  0.00    -0.141 NA 
BRANCH  14  15
HETATM   15  C   UNL     1      -8.263   7.957  68.423  1.00  0.00    -0.124 A  
HETATM   16  N   UNL     1      -7.326   8.354  67.575  1.00  0.00    -0.091 NA 
HETATM   17  C   UNL     1      -6.283   7.555  67.431  1.00  0.00    -0.049 A  
HETATM   18  N   UNL     1      -8.180   6.831  69.128  1.00  0.00    -0.120 NA 
HETATM   19  N   UNL     1      -6.153   6.386  68.039  1.00  0.00    -0.026 NA 
HETATM   20  C   UNL     1      -7.105   6.080  68.909  1.00  0.00    -0.081 A  
BRANCH  17  21
HETATM   21  N   UNL     1      -5.212   7.964  66.659  1.00  0.00    -0.027 NA 
HETATM   22  H   UNL     1      -4.304   8.170  67.076  1.00  0.00     0.000 HD 
BRANCH  21  23
HETATM   23  C   UNL     1      -5.432   8.088  65.242  1.00  0.00    -0.032 C  
BRANCH  23  24
HETATM   24  C   UNL     1      -5.297   9.544  64.924  1.00  0.00    -0.050 C  
HETATM   25  C   UNL     1      -6.134  10.243  64.144  1.00  0.00    -0.120 C  
ENDBRANCH  23  24
ENDBRANCH  21  23
ENDBRANCH  17  21
BRANCH  20  26
HETATM   26  N   UNL     1      -6.856   4.958  69.677  1.00  0.00    -0.051 NA 
HETATM   27  H   UNL     1      -5.954   4.840  70.140  1.00  0.00     0.000 HD 
BRANCH  26  28
HETATM   28  C   UNL     1      -7.884   3.956  69.818  1.00  0.00    -0.051 C  
BRANCH  28  29
HETATM   29  C   UNL     1      -8.148   3.362  68.459  1.00  0.00    -0.073 C  
HETATM   30  C   UNL     1      -9.352   3.291  67.872  1.00  0.00    -0.246 C  
ENDBRANCH  28  29
ENDBRANCH  26  28
ENDBRANCH  20  26
ENDBRANCH  14  15
ENDBRANCH   8   9
BRANCH   8  31
HETATM   31  C   UNL     1     -11.124  12.783  66.849  1.00  0.00    -0.308 A  
HETATM   32  C   UNL     1     -11.809  13.432  64.200  1.00  0.00    -0.442 A  
HETATM   33  C   UNL     1     -12.746  13.580  65.211  1.00  0.00    -0.481 A  
HETATM   34  F   UNL     1     -12.152  13.699  62.932  1.00  0.00    -0.456 F  
HETATM   35  C   UNL     1     -10.180  12.685  65.809  1.00  0.00    -0.288 A  
HETATM   36  C   UNL     1     -12.402  13.271  66.531  1.00  0.00    -0.311 A  
HETATM   37  C   UNL     1     -10.523  13.002  64.489  1.00  0.00    -0.413 A  
ENDBRANCH   8  31
ENDBRANCH   5   8
TORSDOF 10
ENDMDL
MODEL       75
REMARK 921   NORMALIZED FREE ENERGY PREDICTED BY IDOCK:   -4.83 KCAL/MOL
REMARK 922        TOTAL FREE ENERGY PREDICTED BY IDOCK:   -9.00 KCAL/MOL
REMARK 923 INTER-LIGAND FREE ENERGY PREDICTED BY IDOCK:   -7.73 KCAL/MOL
REMARK 924 INTRA-LIGAND FREE ENERGY PREDICTED BY IDOCK:   -1.27 KCAL/MOL
REMARK 927      BINDING AFFINITY PREDICTED BY RF-SCORE:    0.00 PKD
ROOT
HETATM    1  F   UNL     1     -13.627  14.181  65.434  1.00  0.00    -0.346 F  
HETATM    2  C   UNL     1     -12.422  14.070  66.007  1.00  0.00    -0.455 A  
HETATM    3  C   UNL     1     -12.323  13.586  67.306  1.00  0.00    -0.179 A  
HETATM    4  C   UNL     1     -11.070  13.497  67.918  1.00  0.00    -0.288 A  
HETATM    5  C   UNL     1      -9.904  13.888  67.231  1.00  0.00    -0.244 A  
HETATM    6  C   UNL     1     -10.031  14.336  65.902  1.00  0.00    -0.340 A  
HETATM    7  C   UNL     1     -11.288  14.435  65.295  1.00  0.00    -0.346 A  
ENDROOT
BRANCH   5   8
HETATM    8  C   UNL     1      -8.535  13.816  67.932  1.00  0.00    -0.176 C  
BRANCH   8   9
HETATM    9  N   UNL     1      -7.662  12.756  67.352  1.00  0.00    -0.170 NA 
HETATM   10  C   UNL     1      -8.428  11.689  66.631  1.00  0.00    -0.165 C  
HETATM   11  C   UNL     1      -9.091  10.576  67.496  1.00  0.00    -0.138 C  
HETATM   12  C   UNL     1      -6.793  12.079  68.354  1.00  0.00    -0.072 C  
HETATM   13  C   UNL     1      -7.504  11.063  69.274  1.00  0.00    -0.100 C  
HETATM   14  N   UNL     1      -8.102  10.022  68.431  1.00  0.00    -0.100 NA 
BRANCH  14  15
HETATM   15  C   UNL     1      -8.593   8.916  69.126  1.00  0.00    -0.134 A  
HETATM   16  N   UNL     1      -7.734   8.148  69.779  1.00  0.00    -0.097 NA 
HETATM   17  C   UNL     1      -8.236   7.093  70.398  1.00  0.00    -0.126 A  
HETATM   18  N   UNL     1      -9.903   8.682  69.094  1.00  0.00    -0.180 NA 
HETATM   19  N   UNL     1      -9.514   6.749  70.360  1.00  0.00    -0.166 NA 
HETATM   20  C   UNL     1     -10.319   7.592  69.731  1.00  0.00    -0.221 A  
BRANCH  17  21
HETATM   21  N   UNL     1      -7.418   6.319  71.200  1.00  0.00    -0.084 NA 
HETATM   22  H   UNL     1      -6.491   6.029  70.891  1.00  0.00     0.000 HD 
BRANCH  21  23
HETATM   23  C   UNL     1      -7.932   5.941  72.491  1.00  0.00    -0.102 C  
BRANCH  23  24
HETATM   24  C   UNL     1      -7.882   7.174  73.337  1.00  0.00    -0.112 C  
HETATM   25  C   UNL     1      -8.953   7.823  73.816  1.00  0.00    -0.335 C  
ENDBRANCH  23  24
ENDBRANCH  21  23
ENDBRANCH  17  21
BRANCH  20  26
HETATM   26  N   UNL     1     -11.669   7.324  69.869  1.00  0.00    -0.526 NA 
HETATM   27  H   UNL     1     -12.304   7.457  69.081  1.00  0.00     0.000 HD 
BRANCH  26  28
HETATM   28  C   UNL     1     -12.170   6.855  71.137  1.00  0.00    -0.379 C  
BRANCH  28  29
HETATM   29  C   UNL     1     -13.098   7.904  71.692  1.00  0.00    -0.361 C  
HETATM   30  C   UNL     1     -12.754   9.172  71.958  1.00  0.00    -0.473 C  
ENDBRANCH  28  29
ENDBRANCH  26  28
ENDBRANCH  20  26
ENDBRANCH  14  15
ENDBRANCH   8   9
BRANCH   8  31
HETATM   31  C   UNL     1      -7.892  15.225  67.964  1.00  0.00    -0.137 A  
HETATM   32  C   UNL     1      -6.727  17.782  67.884  1.00  0.00    -0.191 A  
HETATM   33  C   UNL     1      -7.910  17.584  68.579  1.00  0.00    -0.274 A  
HETATM   34  F   UNL     1      -6.198  19.012  67.809  1.00  0.00    -0.199 F  
HETATM   35  C   UNL     1      -6.668  15.445  67.304  1.00  0.00    -0.096 A  
HETATM   36  C   UNL     1      -8.484  16.310  68.632  1.00  0.00    -0.221 A  
HETATM   37  C   UNL     1      -6.092  16.721  67.259  1.00  0.00    -0.204 A  
ENDBRANCH   8  31
ENDBRANCH   5   8
TORSDOF 10
ENDMDL
MODEL       76
REMARK 921   NORMALIZED FREE ENERGY PREDICTED BY IDOCK:   -4.83 KCAL/MOL
REMARK 922        TOTAL FREE ENERGY PREDICTED BY IDOCK:   -8.99 KCAL/MOL
REMARK 923 INTER-LIGAND FREE ENERGY PREDICTED BY IDOCK:   -8.26 KCAL/MOL
REMARK 924 INTRA-LIGAND FREE ENERGY PREDICTED BY IDOCK:   -0.74 KCAL/MOL
REMARK 927      BINDING AFFINITY PREDICTED BY RF-SCORE:    0.00 PKD
ROOT
HETATM    1  F   UNL     1     -11.240  16.665  64.589  1.00  0.00    -0.464 F  
HETATM    2  C   UNL     1     -10.917  15.440  65.021  1.00  0.00    -0.436 A  
HETATM    3  C   UNL     1     -11.720  14.358  64.678  1.00  0.00    -0.438 A  
HETATM    4  C   UNL     1     -11.403  13.082  65.153  1.00  0.00    -0.320 A  
HETATM    5  C   UNL     1     -10.275  12.879  65.971  1.00  0.00    -0.293 A  
HETATM    6  C   UNL     1      -9.457  13.987  66.269  1.00  0.00    -0.249 A  
HETATM    7  C   UNL     1      -9.783  15.264  65.802  1.00  0.00    -0.385 A  
ENDROOT
BRANCH   5   8
HETATM    8  C   UNL     1      -9.959  11.473  66.514  1.00  0.00    -0.210 C  
BRANCH   8   9
HETATM    9  N   UNL     1     -11.183  10.766  66.988  1.00  0.00    -0.310 NA 
HETATM   10  C   UNL     1     -11.656  11.239  68.329  1.00  0.00    -0.300 C  
HETATM   11  C   UNL     1     -10.927  10.677  69.584  1.00  0.00    -0.278 C  
HETATM   12  C   UNL     1     -11.029   9.287  67.068  1.00  0.00     0.158 C  
HETATM   13  C   UNL     1     -10.202   8.767  68.264  1.00  0.00    -0.201 C  
HETATM   14  N   UNL     1     -10.856   9.212  69.500  1.00  0.00    -0.215 NA 
BRANCH  14  15
HETATM   15  C   UNL     1     -10.350   8.638  70.667  1.00  0.00    -0.202 A  
HETATM   16  N   UNL     1      -9.143   8.997  71.077  1.00  0.00    -0.243 NA 
HETATM   17  C   UNL     1      -8.689   8.406  72.170  1.00  0.00    -0.205 A  
HETATM   18  N   UNL     1     -11.105   7.750  71.310  1.00  0.00    -0.243 NA 
HETATM   19  N   UNL     1      -9.344   7.464  72.830  1.00  0.00    -0.152 NA 
HETATM   20  C   UNL     1     -10.564   7.194  72.391  1.00  0.00    -0.226 A  
BRANCH  17  21
HETATM   21  N   UNL     1      -7.493   8.822  72.723  1.00  0.00    -0.359 NA 
HETATM   22  H   UNL     1      -7.468   9.403  73.561  1.00  0.00     0.000 HD 
BRANCH  21  23
HETATM   23  C   UNL     1      -6.283   8.400  72.067  1.00  0.00    -0.064 C  
BRANCH  23  24
HETATM   24  C   UNL     1      -6.434   6.932  71.819  1.00  0.00    -0.049 C  
HETATM   25  C   UNL     1      -6.083   6.302  70.689  1.00  0.00    -0.034 C  
ENDBRANCH  23  24
ENDBRANCH  21  23
ENDBRANCH  17  21
BRANCH  20  26
HETATM   26  N   UNL     1     -11.307   6.357  73.203  1.00  0.00    -0.471 NA 
HETATM   27  H   UNL     1     -12.139   6.706  73.680  1.00  0.00     0.000 HD 
BRANCH  26  28
HETATM   28  C   UNL     1     -10.893   4.986  73.371  1.00  0.00    -0.299 C  
BRANCH  28  29
HETATM   29  C   UNL     1      -9.944   4.642  72.252  1.00  0.00    -0.235 C  
HETATM   30  C   UNL     1      -9.698   3.401  71.807  1.00  0.00    -0.236 C  
ENDBRANCH  28  29
ENDBRANCH  26  28
ENDBRANCH  20  26
ENDBRANCH  14  15
ENDBRANCH   8   9
BRANCH   8  31
HETATM   31  C   UNL     1      -9.130  10.685  65.470  1.00  0.00    -0.214 A  
HETATM   32  C   UNL     1      -7.620   9.148  63.665  1.00  0.00    -0.113 A  
HETATM   33  C   UNL     1      -8.856   9.644  63.282  1.00  0.00    -0.254 A  
HETATM   34  F   UNL     1      -6.922   8.377  62.818  1.00  0.00    -0.089 F  
HETATM   35  C   UNL     1      -7.852  10.206  65.816  1.00  0.00    -0.139 A  
HETATM   36  C   UNL     1      -9.603  10.420  64.174  1.00  0.00    -0.381 A  
HETATM   37  C   UNL     1      -7.103   9.435  64.919  1.00  0.00    -0.105 A  
ENDBRANCH   8  31
ENDBRANCH   5   8
TORSDOF 10
ENDMDL
MODEL       77
REMARK 921   NORMALIZED FREE ENERGY PREDICTED BY IDOCK:   -4.81 KCAL/MOL
REMARK 922        TOTAL FREE ENERGY PREDICTED BY IDOCK:   -8.97 KCAL/MOL
REMARK 923 INTER-LIGAND FREE ENERGY PREDICTED BY IDOCK:   -8.17 KCAL/MOL
REMARK 924 INTRA-LIGAND FREE ENERGY PREDICTED BY IDOCK:   -0.80 KCAL/MOL
REMARK 927      BINDING AFFINITY PREDICTED BY RF-SCORE:    0.00 PKD
ROOT
HETATM    1  F   UNL     1      -6.933   9.794  63.563  1.00  0.00    -0.099 F  
HETATM    2  C   UNL     1      -7.247   9.508  64.833  1.00  0.00    -0.111 A  
HETATM    3  C   UNL     1      -7.265  10.524  65.781  1.00  0.00    -0.135 A  
HETATM    4  C   UNL     1      -7.563  10.224  67.113  1.00  0.00    -0.092 A  
HETATM    5  C   UNL     1      -7.850   8.902  67.505  1.00  0.00    -0.101 A  
HETATM    6  C   UNL     1      -7.864   7.900  66.516  1.00  0.00    -0.098 A  
HETATM    7  C   UNL     1      -7.555   8.201  65.185  1.00  0.00    -0.097 A  
ENDROOT
BRANCH   5   8
HETATM    8  C   UNL     1      -8.142   8.582  68.983  1.00  0.00    -0.115 C  
BRANCH   8   9
HETATM    9  N   UNL     1      -9.603   8.472  69.256  1.00  0.00    -0.168 NA 
HETATM   10  C   UNL     1     -10.436   8.451  68.011  1.00  0.00    -0.184 C  
HETATM   11  C   UNL     1     -10.735   9.818  67.326  1.00  0.00    -0.227 C  
HETATM   12  C   UNL     1     -10.134   9.556  70.127  1.00  0.00    -0.249 C  
HETATM   13  C   UNL     1     -10.312  10.931  69.448  1.00  0.00    -0.145 C  
HETATM   14  N   UNL     1     -11.242  10.770  68.324  1.00  0.00    -0.276 NA 
BRANCH  14  15
HETATM   15  C   UNL     1     -11.673  11.964  67.745  1.00  0.00    -0.292 A  
HETATM   16  N   UNL     1     -12.003  11.962  66.463  1.00  0.00    -0.545 NA 
HETATM   17  C   UNL     1     -12.375  13.121  65.946  1.00  0.00    -0.398 A  
HETATM   18  N   UNL     1     -11.723  13.053  68.510  1.00  0.00    -0.322 NA 
HETATM   19  N   UNL     1     -12.388  14.263  66.616  1.00  0.00    -0.392 NA 
HETATM   20  C   UNL     1     -12.093  14.178  67.906  1.00  0.00    -0.274 A  
BRANCH  17  21
HETATM   21  N   UNL     1     -12.853  13.168  64.650  1.00  0.00    -0.720 NA 
HETATM   22  H   UNL     1     -13.848  13.078  64.446  1.00  0.00     0.000 HD 
BRANCH  21  23
HETATM   23  C   UNL     1     -11.885  13.351  63.600  1.00  0.00    -0.398 C  
BRANCH  23  24
HETATM   24  C   UNL     1     -11.408  11.981  63.230  1.00  0.00    -0.396 C  
HETATM   25  C   UNL     1     -10.142  11.553  63.335  1.00  0.00    -0.454 C  
ENDBRANCH  23  24
ENDBRANCH  21  23
ENDBRANCH  17  21
BRANCH  20  26
HETATM   26  N   UNL     1     -12.302  15.336  68.631  1.00  0.00    -0.560 NA 
HETATM   27  H   UNL     1     -13.241  15.724  68.723  1.00  0.00     0.000 HD 
BRANCH  26  28
HETATM   28  C   UNL     1     -11.179  15.990  69.256  1.00  0.00    -0.346 C  
BRANCH  28  29
HETATM   29  C   UNL     1     -10.592  16.962  68.266  1.00  0.00    -0.363 C  
HETATM   30  C   UNL     1      -9.509  17.722  68.484  1.00  0.00    -0.304 C  
ENDBRANCH  28  29
ENDBRANCH  26  28
ENDBRANCH  20  26
ENDBRANCH  14  15
ENDBRANCH   8   9
BRANCH   8  31
HETATM   31  C   UNL     1      -7.316   7.347  69.421  1.00  0.00    -0.086 A  
HETATM   32  C   UNL     1      -5.872   5.035  70.109  1.00  0.00    -0.017 A  
HETATM   33  C   UNL     1      -5.200   6.226  69.880  1.00  0.00    -0.013 A  
HETATM   34  F   UNL     1      -5.177   3.924  70.393  1.00  0.00    -0.003 F  
HETATM   35  C   UNL     1      -7.976   6.135  69.702  1.00  0.00    -0.107 A  
HETATM   36  C   UNL     1      -5.918   7.380  69.552  1.00  0.00    -0.027 A  
HETATM   37  C   UNL     1      -7.256   4.982  70.039  1.00  0.00    -0.058 A  
ENDBRANCH   8  31
ENDBRANCH   5   8
TORSDOF 10
ENDMDL
MODEL       78
REMARK 921   NORMALIZED FREE ENERGY PREDICTED BY IDOCK:   -4.81 KCAL/MOL
REMARK 922        TOTAL FREE ENERGY PREDICTED BY IDOCK:   -8.97 KCAL/MOL
REMARK 923 INTER-LIGAND FREE ENERGY PREDICTED BY IDOCK:   -7.89 KCAL/MOL
REMARK 924 INTRA-LIGAND FREE ENERGY PREDICTED BY IDOCK:   -1.09 KCAL/MOL
REMARK 927      BINDING AFFINITY PREDICTED BY RF-SCORE:    0.00 PKD
ROOT
HETATM    1  F   UNL     1      -5.736   2.144  67.875  1.00  0.00    -0.016 F  
HETATM    2  C   UNL     1      -6.383   3.308  68.010  1.00  0.00    -0.036 A  
HETATM    3  C   UNL     1      -5.877   4.278  68.868  1.00  0.00    -0.022 A  
HETATM    4  C   UNL     1      -6.565   5.482  69.035  1.00  0.00    -0.051 A  
HETATM    5  C   UNL     1      -7.764   5.728  68.339  1.00  0.00    -0.096 A  
HETATM    6  C   UNL     1      -8.232   4.744  67.446  1.00  0.00    -0.105 A  
HETATM    7  C   UNL     1      -7.547   3.534  67.289  1.00  0.00    -0.078 A  
ENDROOT
BRANCH   5   8
HETATM    8  C   UNL     1      -8.529   7.046  68.560  1.00  0.00    -0.121 C  
BRANCH   8   9
HETATM    9  N   UNL     1      -9.446   7.360  67.427  1.00  0.00    -0.137 NA 
HETATM   10  C   UNL     1      -8.816   8.230  66.382  1.00  0.00    -0.152 C  
HETATM   11  C   UNL     1      -8.751   9.759  66.667  1.00  0.00    -0.131 C  
HETATM   12  C   UNL     1     -10.714   8.018  67.845  1.00  0.00    -0.071 C  
HETATM   13  C   UNL     1     -10.597   9.508  68.232  1.00  0.00    -0.216 C  
HETATM   14  N   UNL     1     -10.079  10.242  67.072  1.00  0.00    -0.208 NA 
BRANCH  14  15
HETATM   15  C   UNL     1     -10.122  11.632  67.192  1.00  0.00    -0.204 A  
HETATM   16  N   UNL     1      -9.898  12.367  66.114  1.00  0.00    -0.249 NA 
HETATM   17  C   UNL     1      -9.917  13.680  66.278  1.00  0.00    -0.300 A  
HETATM   18  N   UNL     1     -10.380  12.153  68.390  1.00  0.00    -0.225 NA 
HETATM   19  N   UNL     1     -10.096  14.279  67.445  1.00  0.00    -0.245 NA 
HETATM   20  C   UNL     1     -10.364  13.480  68.468  1.00  0.00    -0.240 A  
BRANCH  17  21
HETATM   21  N   UNL     1      -9.816  14.507  65.176  1.00  0.00    -0.516 NA 
HETATM   22  H   UNL     1      -9.176  14.296  64.409  1.00  0.00     0.000 HD 
BRANCH  21  23
HETATM   23  C   UNL     1     -10.651  15.679  65.154  1.00  0.00    -0.424 C  
BRANCH  23  24
HETATM   24  C   UNL     1     -11.770  15.376  64.207  1.00  0.00    -0.212 C  
HETATM   25  C   UNL     1     -12.385  14.190  64.096  1.00  0.00    -0.372 C  
ENDBRANCH  23  24
ENDBRANCH  21  23
ENDBRANCH  17  21
BRANCH  20  26
HETATM   26  N   UNL     1     -10.743  14.126  69.630  1.00  0.00    -0.452 NA 
HETATM   27  H   UNL     1     -10.103  14.773  70.093  1.00  0.00     0.000 HD 
BRANCH  26  28
HETATM   28  C   UNL     1     -12.051  13.876  70.183  1.00  0.00    -0.349 C  
BRANCH  28  29
HETATM   29  C   UNL     1     -12.188  14.681  71.449  1.00  0.00    -0.411 C  
HETATM   30  C   UNL     1     -11.901  15.985  71.565  1.00  0.00    -0.554 C  
ENDBRANCH  28  29
ENDBRANCH  26  28
ENDBRANCH  20  26
ENDBRANCH  14  15
ENDBRANCH   8   9
BRANCH   8  31
HETATM   31  C   UNL     1      -9.215   7.024  69.948  1.00  0.00    -0.144 A  
HETATM   32  C   UNL     1     -10.508   7.112  72.443  1.00  0.00    -0.218 A  
HETATM   33  C   UNL     1     -10.800   6.093  71.550  1.00  0.00    -0.313 A  
HETATM   34  F   UNL     1     -11.158   7.177  73.614  1.00  0.00    -0.344 F  
HETATM   35  C   UNL     1      -8.905   8.022  70.892  1.00  0.00    -0.147 A  
HETATM   36  C   UNL     1     -10.148   6.040  70.314  1.00  0.00    -0.249 A  
HETATM   37  C   UNL     1      -9.554   8.069  72.132  1.00  0.00    -0.277 A  
ENDBRANCH   8  31
ENDBRANCH   5   8
TORSDOF 10
ENDMDL
MODEL       79
REMARK 921   NORMALIZED FREE ENERGY PREDICTED BY IDOCK:   -4.81 KCAL/MOL
REMARK 922        TOTAL FREE ENERGY PREDICTED BY IDOCK:   -8.97 KCAL/MOL
REMARK 923 INTER-LIGAND FREE ENERGY PREDICTED BY IDOCK:  -10.02 KCAL/MOL
REMARK 924 INTRA-LIGAND FREE ENERGY PREDICTED BY IDOCK:    1.06 KCAL/MOL
REMARK 927      BINDING AFFINITY PREDICTED BY RF-SCORE:    0.00 PKD
ROOT
HETATM    1  F   UNL     1     -10.224   7.605  73.396  1.00  0.00    -0.312 F  
HETATM    2  C   UNL     1     -10.118   8.085  72.150  1.00  0.00    -0.234 A  
HETATM    3  C   UNL     1     -11.157   7.887  71.249  1.00  0.00    -0.278 A  
HETATM    4  C   UNL     1     -11.037   8.359  69.939  1.00  0.00    -0.109 A  
HETATM    5  C   UNL     1      -9.876   9.038  69.522  1.00  0.00    -0.181 A  
HETATM    6  C   UNL     1      -8.856   9.258  70.468  1.00  0.00    -0.285 A  
HETATM    7  C   UNL     1      -8.973   8.775  71.776  1.00  0.00    -0.283 A  
ENDROOT
BRANCH   5   8
HETATM    8  C   UNL     1      -9.744   9.521  68.066  1.00  0.00    -0.147 C  
BRANCH   8   9
HETATM    9  N   UNL     1     -11.005  10.136  67.562  1.00  0.00    -0.294 NA 
HETATM   10  C   UNL     1     -10.773  11.202  66.535  1.00  0.00    -0.260 C  
HETATM   11  C   UNL     1     -10.368  12.615  67.049  1.00  0.00    -0.232 C  
HETATM   12  C   UNL     1     -11.854  10.729  68.633  1.00  0.00    -0.138 C  
HETATM   13  C   UNL     1     -11.363  12.077  69.203  1.00  0.00    -0.281 C  
HETATM   14  N   UNL     1     -11.299  13.044  68.101  1.00  0.00    -0.274 NA 
BRANCH  14  15
HETATM   15  C   UNL     1     -11.082  14.365  68.494  1.00  0.00    -0.253 A  
HETATM   16  N   UNL     1     -11.500  14.745  69.692  1.00  0.00    -0.276 NA 
HETATM   17  C   UNL     1     -11.303  16.013  70.012  1.00  0.00    -0.352 A  
HETATM   18  N   UNL     1     -10.470  15.184  67.641  1.00  0.00    -0.249 NA 
HETATM   19  N   UNL     1     -10.766  16.909  69.199  1.00  0.00    -0.325 NA 
HETATM   20  C   UNL     1     -10.327  16.445  68.038  1.00  0.00    -0.288 A  
BRANCH  17  21
HETATM   21  N   UNL     1     -11.599  16.448  71.290  1.00  0.00    -0.609 NA 
HETATM   22  H   UNL     1     -11.052  17.179  71.744  1.00  0.00     0.000 HD 
BRANCH  21  23
HETATM   23  C   UNL     1     -12.714  15.824  71.954  1.00  0.00    -0.451 C  
BRANCH  23  24
HETATM   24  C   UNL     1     -12.657  16.276  73.379  1.00  0.00    -0.589 C  
HETATM   25  C   UNL     1     -12.391  15.485  74.428  1.00  0.00    -0.798 C  
ENDBRANCH  23  24
ENDBRANCH  21  23
ENDBRANCH  17  21
BRANCH  20  26
HETATM   26  N   UNL     1      -9.595  17.345  67.287  1.00  0.00    -0.253 NA 
HETATM   27  H   UNL     1      -8.613  17.521  67.505  1.00  0.00     0.000 HD 
BRANCH  26  28
HETATM   28  C   UNL     1     -10.232  18.034  66.192  1.00  0.00    -0.363 C  
BRANCH  28  29
HETATM   29  C   UNL     1     -10.591  19.422  66.657  1.00  0.00    -0.566 C  
HETATM   30  C   UNL     1      -9.815  20.201  67.423  1.00  0.00    -0.573 C  
ENDBRANCH  28  29
ENDBRANCH  26  28
ENDBRANCH  20  26
ENDBRANCH  14  15
ENDBRANCH   8   9
BRANCH   8  31
HETATM   31  C   UNL     1      -8.494  10.425  67.928  1.00  0.00    -0.114 A  
HETATM   32  C   UNL     1      -6.275  12.110  67.555  1.00  0.00    -0.130 A  
HETATM   33  C   UNL     1      -7.047  12.228  68.700  1.00  0.00    -0.103 A  
HETATM   34  F   UNL     1      -5.245  12.946  67.358  1.00  0.00    -0.106 F  
HETATM   35  C   UNL     1      -7.667  10.297  66.795  1.00  0.00    -0.111 A  
HETATM   36  C   UNL     1      -8.142  11.381  68.894  1.00  0.00    -0.067 A  
HETATM   37  C   UNL     1      -6.566  11.141  66.607  1.00  0.00    -0.137 A  
ENDBRANCH   8  31
ENDBRANCH   5   8
TORSDOF 10
ENDMDL
MODEL       80
REMARK 921   NORMALIZED FREE ENERGY PREDICTED BY IDOCK:   -4.80 KCAL/MOL
REMARK 922        TOTAL FREE ENERGY PREDICTED BY IDOCK:   -8.95 KCAL/MOL
REMARK 923 INTER-LIGAND FREE ENERGY PREDICTED BY IDOCK:   -8.45 KCAL/MOL
REMARK 924 INTRA-LIGAND FREE ENERGY PREDICTED BY IDOCK:   -0.50 KCAL/MOL
REMARK 927      BINDING AFFINITY PREDICTED BY RF-SCORE:    0.00 PKD
ROOT
HETATM    1  F   UNL     1      -6.265   6.564  63.333  1.00  0.00    -0.031 F  
HETATM    2  C   UNL     1      -7.060   7.386  64.030  1.00  0.00    -0.071 A  
HETATM    3  C   UNL     1      -6.954   8.760  63.848  1.00  0.00    -0.087 A  
HETATM    4  C   UNL     1      -7.761   9.622  64.596  1.00  0.00    -0.130 A  
HETATM    5  C   UNL     1      -8.683   9.114  65.531  1.00  0.00    -0.210 A  
HETATM    6  C   UNL     1      -8.796   7.716  65.665  1.00  0.00    -0.086 A  
HETATM    7  C   UNL     1      -7.981   6.856  64.923  1.00  0.00    -0.124 A  
ENDROOT
BRANCH   5   8
HETATM    8  C   UNL     1      -9.540  10.078  66.372  1.00  0.00    -0.196 C  
BRANCH   8   9
HETATM    9  N   UNL     1      -8.732  10.795  67.399  1.00  0.00    -0.126 NA 
HETATM   10  C   UNL     1      -7.729   9.916  68.082  1.00  0.00    -0.082 C  
HETATM   11  C   UNL     1      -8.245   8.996  69.227  1.00  0.00    -0.117 C  
HETATM   12  C   UNL     1      -9.549  11.443  68.462  1.00  0.00    -0.189 C  
HETATM   13  C   UNL     1     -10.144  10.489  69.521  1.00  0.00    -0.178 C  
HETATM   14  N   UNL     1      -9.035   9.789  70.179  1.00  0.00    -0.228 NA 
BRANCH  14  15
HETATM   15  C   UNL     1      -9.397   9.054  71.309  1.00  0.00    -0.254 A  
HETATM   16  N   UNL     1      -8.485   8.847  72.247  1.00  0.00    -0.371 NA 
HETATM   17  C   UNL     1      -8.860   8.118  73.285  1.00  0.00    -0.256 A  
HETATM   18  N   UNL     1     -10.641   8.588  71.386  1.00  0.00    -0.227 NA 
HETATM   19  N   UNL     1     -10.053   7.560  73.408  1.00  0.00    -0.325 NA 
HETATM   20  C   UNL     1     -10.927   7.853  72.456  1.00  0.00    -0.350 A  
BRANCH  17  21
HETATM   21  N   UNL     1      -8.001   7.967  74.358  1.00  0.00    -0.231 NA 
HETATM   22  H   UNL     1      -8.345   7.967  75.318  1.00  0.00     0.000 HD 
BRANCH  21  23
HETATM   23  C   UNL     1      -6.601   7.810  74.062  1.00  0.00    -0.092 C  
BRANCH  23  24
HETATM   24  C   UNL     1      -6.348   6.336  74.016  1.00  0.00    -0.070 C  
HETATM   25  C   UNL     1      -6.409   5.578  72.912  1.00  0.00    -0.060 C  
ENDBRANCH  23  24
ENDBRANCH  21  23
ENDBRANCH  17  21
BRANCH  20  26
HETATM   26  N   UNL     1     -12.220   7.428  72.698  1.00  0.00    -0.528 NA 
HETATM   27  H   UNL     1     -12.613   7.483  73.639  1.00  0.00     0.000 HD 
BRANCH  26  28
HETATM   28  C   UNL     1     -13.009   6.907  71.609  1.00  0.00    -0.307 C  
BRANCH  28  29
HETATM   29  C   UNL     1     -14.270   7.726  71.509  1.00  0.00    -0.540 C  
HETATM   30  C   UNL     1     -14.337   9.056  71.661  1.00  0.00    -0.240 C  
ENDBRANCH  28  29
ENDBRANCH  26  28
ENDBRANCH  20  26
ENDBRANCH  14  15
ENDBRANCH   8   9
BRANCH   8  31
HETATM   31  C   UNL     1     -10.352  11.007  65.436  1.00  0.00    -0.330 A  
HETATM   32  C   UNL     1     -11.887  12.580  63.683  1.00  0.00    -0.530 A  
HETATM   33  C   UNL     1     -11.949  12.807  65.049  1.00  0.00    -0.456 A  
HETATM   34  F   UNL     1     -12.654  13.301  62.853  1.00  0.00    -0.443 F  
HETATM   35  C   UNL     1     -10.274  10.827  64.042  1.00  0.00    -0.390 A  
HETATM   36  C   UNL     1     -11.176  12.035  65.921  1.00  0.00    -0.385 A  
HETATM   37  C   UNL     1     -11.043  11.606  63.169  1.00  0.00    -0.209 A  
ENDBRANCH   8  31
ENDBRANCH   5   8
TORSDOF 10
ENDMDL
MODEL       81
REMARK 921   NORMALIZED FREE ENERGY PREDICTED BY IDOCK:   -4.73 KCAL/MOL
REMARK 922        TOTAL FREE ENERGY PREDICTED BY IDOCK:   -8.84 KCAL/MOL
REMARK 923 INTER-LIGAND FREE ENERGY PREDICTED BY IDOCK:   -9.67 KCAL/MOL
REMARK 924 INTRA-LIGAND FREE ENERGY PREDICTED BY IDOCK:    0.84 KCAL/MOL
REMARK 927      BINDING AFFINITY PREDICTED BY RF-SCORE:    0.00 PKD
ROOT
HETATM    1  F   UNL     1     -11.067   8.683  72.695  1.00  0.00    -0.411 F  
HETATM    2  C   UNL     1     -11.137   9.211  71.466  1.00  0.00    -0.365 A  
HETATM    3  C   UNL     1     -12.074  10.203  71.199  1.00  0.00    -0.485 A  
HETATM    4  C   UNL     1     -12.171  10.735  69.911  1.00  0.00    -0.384 A  
HETATM    5  C   UNL     1     -11.326  10.280  68.879  1.00  0.00    -0.230 A  
HETATM    6  C   UNL     1     -10.360   9.303  69.189  1.00  0.00    -0.222 A  
HETATM    7  C   UNL     1     -10.272   8.765  70.477  1.00  0.00    -0.240 A  
ENDROOT
BRANCH   5   8
HETATM    8  C   UNL     1     -11.469  10.852  67.456  1.00  0.00    -0.152 C  
BRANCH   8   9
HETATM    9  N   UNL     1     -12.079  12.212  67.456  1.00  0.00    -0.499 NA 
HETATM   10  C   UNL     1     -11.847  12.962  66.179  1.00  0.00    -0.429 C  
HETATM   11  C   UNL     1     -10.464  13.654  65.996  1.00  0.00    -0.300 C  
HETATM   12  C   UNL     1     -11.610  13.080  68.571  1.00  0.00    -0.328 C  
HETATM   13  C   UNL     1     -10.188  13.660  68.413  1.00  0.00    -0.245 C  
HETATM   14  N   UNL     1     -10.155  14.461  67.184  1.00  0.00    -0.251 NA 
BRANCH  14  15
HETATM   15  C   UNL     1      -9.001  15.228  67.017  1.00  0.00    -0.233 A  
HETATM   16  N   UNL     1      -7.836  14.701  67.365  1.00  0.00    -0.192 NA 
HETATM   17  C   UNL     1      -6.772  15.473  67.220  1.00  0.00    -0.093 A  
HETATM   18  N   UNL     1      -9.127  16.457  66.522  1.00  0.00    -0.252 NA 
HETATM   19  N   UNL     1      -6.816  16.728  66.801  1.00  0.00    -0.218 NA 
HETATM   20  C   UNL     1      -8.008  17.168  66.425  1.00  0.00    -0.311 A  
BRANCH  17  21
HETATM   21  N   UNL     1      -5.513  14.947  67.444  1.00  0.00    -0.316 NA 
HETATM   22  H   UNL     1      -4.670  15.498  67.280  1.00  0.00     0.000 HD 
BRANCH  21  23
HETATM   23  C   UNL     1      -5.443  13.591  67.920  1.00  0.00    -0.107 C  
BRANCH  23  24
HETATM   24  C   UNL     1      -5.179  13.678  69.391  1.00  0.00    -0.082 C  
HETATM   25  C   UNL     1      -5.896  13.060  70.340  1.00  0.00    -0.152 C  
ENDBRANCH  23  24
ENDBRANCH  21  23
ENDBRANCH  17  21
BRANCH  20  26
HETATM   26  N   UNL     1      -8.006  18.405  65.807  1.00  0.00    -0.493 NA 
HETATM   27  H   UNL     1      -8.102  18.475  64.794  1.00  0.00     0.000 HD 
BRANCH  26  28
HETATM   28  C   UNL     1      -7.866  19.595  66.610  1.00  0.00    -0.287 C  
BRANCH  28  29
HETATM   29  C   UNL     1      -9.221  19.947  67.167  1.00  0.00    -0.463 C  
HETATM   30  C   UNL     1     -10.354  20.006  66.453  1.00  0.00    -0.573 C  
ENDBRANCH  28  29
ENDBRANCH  26  28
ENDBRANCH  20  26
ENDBRANCH  14  15
ENDBRANCH   8   9
BRANCH   8  31
HETATM   31  C   UNL     1     -10.110  10.761  66.719  1.00  0.00    -0.267 A  
HETATM   32  C   UNL     1      -7.599  10.510  65.481  1.00  0.00    -0.120 A  
HETATM   33  C   UNL     1      -8.750  10.201  64.775  1.00  0.00    -0.202 A  
HETATM   34  F   UNL     1      -6.400  10.346  64.903  1.00  0.00    -0.117 F  
HETATM   35  C   UNL     1      -8.927  11.110  67.399  1.00  0.00    -0.139 A  
HETATM   36  C   UNL     1     -10.001  10.339  65.384  1.00  0.00    -0.371 A  
HETATM   37  C   UNL     1      -7.676  10.979  66.784  1.00  0.00    -0.146 A  
ENDBRANCH   8  31
ENDBRANCH   5   8
TORSDOF 10
ENDMDL
MODEL       82
REMARK 921   NORMALIZED FREE ENERGY PREDICTED BY IDOCK:   -4.72 KCAL/MOL
REMARK 922        TOTAL FREE ENERGY PREDICTED BY IDOCK:   -8.82 KCAL/MOL
REMARK 923 INTER-LIGAND FREE ENERGY PREDICTED BY IDOCK:   -7.83 KCAL/MOL
REMARK 924 INTRA-LIGAND FREE ENERGY PREDICTED BY IDOCK:   -0.99 KCAL/MOL
REMARK 927      BINDING AFFINITY PREDICTED BY RF-SCORE:    0.00 PKD
ROOT
HETATM    1  F   UNL     1     -10.355  18.331  69.480  1.00  0.00    -0.303 F  
HETATM    2  C   UNL     1     -10.263  17.076  69.022  1.00  0.00    -0.313 A  
HETATM    3  C   UNL     1     -10.801  16.034  69.767  1.00  0.00    -0.337 A  
HETATM    4  C   UNL     1     -10.681  14.720  69.307  1.00  0.00    -0.263 A  
HETATM    5  C   UNL     1     -10.023  14.440  68.094  1.00  0.00    -0.223 A  
HETATM    6  C   UNL     1      -9.522  15.520  67.341  1.00  0.00    -0.213 A  
HETATM    7  C   UNL     1      -9.634  16.834  67.809  1.00  0.00    -0.241 A  
ENDROOT
BRANCH   5   8
HETATM    8  C   UNL     1      -9.867  12.983  67.618  1.00  0.00    -0.212 C  
BRANCH   8   9
HETATM    9  N   UNL     1     -10.176  12.004  68.698  1.00  0.00    -0.205 NA 
HETATM   10  C   UNL     1      -8.988  11.191  69.115  1.00  0.00     0.074 C  
HETATM   11  C   UNL     1      -8.601   9.978  68.218  1.00  0.00    -0.115 C  
HETATM   12  C   UNL     1     -11.266  11.051  68.351  1.00  0.00    -0.274 C  
HETATM   13  C   UNL     1     -10.879   9.925  67.369  1.00  0.00    -0.227 C  
HETATM   14  N   UNL     1      -9.788   9.149  67.969  1.00  0.00    -0.162 NA 
BRANCH  14  15
HETATM   15  C   UNL     1      -9.475   7.965  67.299  1.00  0.00    -0.149 A  
HETATM   16  N   UNL     1      -8.990   8.044  66.069  1.00  0.00    -0.173 NA 
HETATM   17  C   UNL     1      -8.738   6.898  65.459  1.00  0.00    -0.025 A  
HETATM   18  N   UNL     1      -9.687   6.811  67.928  1.00  0.00    -0.127 NA 
HETATM   19  N   UNL     1      -8.983   5.708  65.984  1.00  0.00    -0.151 NA 
HETATM   20  C   UNL     1      -9.420   5.708  67.235  1.00  0.00    -0.115 A  
BRANCH  17  21
HETATM   21  N   UNL     1      -8.115   6.905  64.225  1.00  0.00    -0.280 NA 
HETATM   22  H   UNL     1      -8.310   6.187  63.527  1.00  0.00     0.000 HD 
BRANCH  21  23
HETATM   23  C   UNL     1      -7.179   7.968  63.967  1.00  0.00    -0.087 C  
BRANCH  23  24
HETATM   24  C   UNL     1      -7.730   8.735  62.806  1.00  0.00    -0.119 C  
HETATM   25  C   UNL     1      -7.571  10.051  62.607  1.00  0.00    -0.136 C  
ENDBRANCH  23  24
ENDBRANCH  21  23
ENDBRANCH  17  21
BRANCH  20  26
HETATM   26  N   UNL     1      -9.482   4.463  67.833  1.00  0.00    -0.153 NA 
HETATM   27  H   UNL     1      -9.871   4.361  68.771  1.00  0.00     0.000 HD 
BRANCH  26  28
HETATM   28  C   UNL     1      -8.992   3.311  67.118  1.00  0.00    -0.157 C  
BRANCH  28  29
HETATM   29  C   UNL     1      -7.754   2.815  67.819  1.00  0.00    -0.060 C  
HETATM   30  C   UNL     1      -6.498   3.148  67.489  1.00  0.00    -0.037 C  
ENDBRANCH  28  29
ENDBRANCH  26  28
ENDBRANCH  20  26
ENDBRANCH  14  15
ENDBRANCH   8   9
BRANCH   8  31
HETATM   31  C   UNL     1     -10.676  12.772  66.315  1.00  0.00    -0.291 A  
HETATM   32  C   UNL     1     -12.121  12.251  63.960  1.00  0.00    -0.471 A  
HETATM   33  C   UNL     1     -12.723  12.939  65.002  1.00  0.00    -0.474 A  
HETATM   34  F   UNL     1     -12.827  11.964  62.857  1.00  0.00    -0.608 F  
HETATM   35  C   UNL     1     -10.075  12.113  65.224  1.00  0.00    -0.291 A  
HETATM   36  C   UNL     1     -12.001  13.212  66.168  1.00  0.00    -0.478 A  
HETATM   37  C   UNL     1     -10.797  11.848  64.054  1.00  0.00    -0.438 A  
ENDBRANCH   8  31
ENDBRANCH   5   8
TORSDOF 10
ENDMDL
MODEL       83
REMARK 921   NORMALIZED FREE ENERGY PREDICTED BY IDOCK:   -4.72 KCAL/MOL
REMARK 922        TOTAL FREE ENERGY PREDICTED BY IDOCK:   -8.82 KCAL/MOL
REMARK 923 INTER-LIGAND FREE ENERGY PREDICTED BY IDOCK:   -8.94 KCAL/MOL
REMARK 924 INTRA-LIGAND FREE ENERGY PREDICTED BY IDOCK:    0.12 KCAL/MOL
REMARK 927      BINDING AFFINITY PREDICTED BY RF-SCORE:    0.00 PKD
ROOT
HETATM    1  F   UNL     1      -9.596   1.558  69.492  1.00  0.00    -0.160 F  
HETATM    2  C   UNL     1      -9.552   2.894  69.579  1.00  0.00     0.007 A  
HETATM    3  C   UNL     1      -9.530   3.499  70.830  1.00  0.00    -0.240 A  
HETATM    4  C   UNL     1      -9.515   4.893  70.925  1.00  0.00    -0.227 A  
HETATM    5  C   UNL     1      -9.517   5.693  69.766  1.00  0.00    -0.189 A  
HETATM    6  C   UNL     1      -9.499   5.052  68.512  1.00  0.00    -0.185 A  
HETATM    7  C   UNL     1      -9.526   3.656  68.419  1.00  0.00    -0.214 A  
ENDROOT
BRANCH   5   8
HETATM    8  C   UNL     1      -9.536   7.228  69.888  1.00  0.00    -0.157 C  
BRANCH   8   9
HETATM    9  N   UNL     1      -9.286   7.898  68.580  1.00  0.00    -0.139 NA 
HETATM   10  C   UNL     1      -8.490   9.161  68.706  1.00  0.00    -0.130 C  
HETATM   11  C   UNL     1      -9.252  10.447  69.144  1.00  0.00    -0.191 C  
HETATM   12  C   UNL     1     -10.527   8.229  67.828  1.00  0.00    -0.215 C  
HETATM   13  C   UNL     1     -11.323   9.442  68.356  1.00  0.00     0.348 C  
HETATM   14  N   UNL     1     -10.448  10.619  68.308  1.00  0.00    -0.176 NA 
BRANCH  14  15
HETATM   15  C   UNL     1     -11.091  11.835  68.548  1.00  0.00    -0.239 A  
HETATM   16  N   UNL     1     -11.072  12.758  67.599  1.00  0.00    -0.247 NA 
HETATM   17  C   UNL     1     -11.665  13.907  67.879  1.00  0.00    -0.361 A  
HETATM   18  N   UNL     1     -11.685  12.012  69.726  1.00  0.00    -0.323 NA 
HETATM   19  N   UNL     1     -12.219  14.191  69.047  1.00  0.00    -0.303 NA 
HETATM   20  C   UNL     1     -12.243  13.202  69.929  1.00  0.00    -0.225 A  
BRANCH  17  21
HETATM   21  N   UNL     1     -11.793  14.867  66.892  1.00  0.00    -0.262 NA 
HETATM   22  H   UNL     1     -12.686  15.322  66.706  1.00  0.00     0.000 HD 
BRANCH  21  23
HETATM   23  C   UNL     1     -10.611  15.197  66.140  1.00  0.00    -0.313 C  
BRANCH  23  24
HETATM   24  C   UNL     1     -10.825  14.647  64.765  1.00  0.00    -0.402 C  
HETATM   25  C   UNL     1     -11.988  14.169  64.299  1.00  0.00    -0.460 C  
ENDBRANCH  23  24
ENDBRANCH  21  23
ENDBRANCH  17  21
BRANCH  20  26
HETATM   26  N   UNL     1     -12.995  13.448  71.062  1.00  0.00    -0.234 NA 
HETATM   27  H   UNL     1     -13.123  12.718  71.765  1.00  0.00     0.000 HD 
BRANCH  26  28
HETATM   28  C   UNL     1     -13.598  14.745  71.242  1.00  0.00    -0.412 C  
BRANCH  28  29
HETATM   29  C   UNL     1     -12.799  15.495  72.276  1.00  0.00    -0.493 C  
HETATM   30  C   UNL     1     -12.108  14.926  73.275  1.00  0.00    -0.391 C  
ENDBRANCH  28  29
ENDBRANCH  26  28
ENDBRANCH  20  26
ENDBRANCH  14  15
ENDBRANCH   8   9
BRANCH   8  31
HETATM   31  C   UNL     1     -10.837   7.678  70.597  1.00  0.00    -0.245 A  
HETATM   32  C   UNL     1     -13.203   8.372  71.947  1.00  0.00    -0.357 A  
HETATM   33  C   UNL     1     -12.071   9.159  72.090  1.00  0.00    -0.389 A  
HETATM   34  F   UNL     1     -14.317   8.679  72.627  1.00  0.00    -0.477 F  
HETATM   35  C   UNL     1     -12.013   6.922  70.435  1.00  0.00    -0.312 A  
HETATM   36  C   UNL     1     -10.897   8.823  71.408  1.00  0.00    -0.359 A  
HETATM   37  C   UNL     1     -13.190   7.264  71.113  1.00  0.00    -0.273 A  
ENDBRANCH   8  31
ENDBRANCH   5   8
TORSDOF 10
ENDMDL
MODEL       84
REMARK 921   NORMALIZED FREE ENERGY PREDICTED BY IDOCK:   -4.69 KCAL/MOL
REMARK 922        TOTAL FREE ENERGY PREDICTED BY IDOCK:   -8.77 KCAL/MOL
REMARK 923 INTER-LIGAND FREE ENERGY PREDICTED BY IDOCK:  -10.35 KCAL/MOL
REMARK 924 INTRA-LIGAND FREE ENERGY PREDICTED BY IDOCK:    1.58 KCAL/MOL
REMARK 927      BINDING AFFINITY PREDICTED BY RF-SCORE:    0.00 PKD
ROOT
HETATM    1  F   UNL     1     -12.767  13.702  63.141  1.00  0.00    -0.366 F  
HETATM    2  C   UNL     1     -12.302  13.086  64.235  1.00  0.00    -0.366 A  
HETATM    3  C   UNL     1     -12.489  13.670  65.482  1.00  0.00    -0.544 A  
HETATM    4  C   UNL     1     -11.978  13.045  66.623  1.00  0.00    -0.453 A  
HETATM    5  C   UNL     1     -11.280  11.826  66.524  1.00  0.00    -0.380 A  
HETATM    6  C   UNL     1     -11.141  11.237  65.251  1.00  0.00    -0.146 A  
HETATM    7  C   UNL     1     -11.643  11.871  64.109  1.00  0.00    -0.434 A  
ENDROOT
BRANCH   5   8
HETATM    8  C   UNL     1     -10.693  11.167  67.786  1.00  0.00    -0.222 C  
BRANCH   8   9
HETATM    9  N   UNL     1      -9.226  11.399  67.909  1.00  0.00    -0.159 NA 
HETATM   10  C   UNL     1      -8.878  12.460  68.910  1.00  0.00     0.304 C  
HETATM   11  C   UNL     1      -9.006  13.943  68.454  1.00  0.00    -0.178 C  
HETATM   12  C   UNL     1      -8.565  11.765  66.626  1.00  0.00    -0.170 C  
HETATM   13  C   UNL     1      -8.805  13.212  66.142  1.00  0.00     0.349 C  
HETATM   14  N   UNL     1      -8.308  14.129  67.174  1.00  0.00    -0.194 NA 
BRANCH  14  15
HETATM   15  C   UNL     1      -8.256  15.469  66.789  1.00  0.00    -0.242 A  
HETATM   16  N   UNL     1      -9.353  16.031  66.304  1.00  0.00    -0.293 NA 
HETATM   17  C   UNL     1      -9.251  17.293  65.922  1.00  0.00     0.030 A  
HETATM   18  N   UNL     1      -7.101  16.118  66.921  1.00  0.00    -0.214 NA 
HETATM   19  N   UNL     1      -8.127  17.990  65.954  1.00  0.00    -0.534 NA 
HETATM   20  C   UNL     1      -7.085  17.378  66.498  1.00  0.00    -0.265 A  
BRANCH  17  21
HETATM   21  N   UNL     1     -10.384  17.978  65.524  1.00  0.00    -0.577 NA 
HETATM   22  H   UNL     1     -11.091  17.540  64.933  1.00  0.00     0.000 HD 
BRANCH  21  23
HETATM   23  C   UNL     1     -10.524  19.337  65.979  1.00  0.00    -0.487 C  
BRANCH  23  24
HETATM   24  C   UNL     1     -10.886  19.256  67.428  1.00  0.00    -0.554 C  
HETATM   25  C   UNL     1     -10.157  19.760  68.434  1.00  0.00    -0.568 C  
ENDBRANCH  23  24
ENDBRANCH  21  23
ENDBRANCH  17  21
BRANCH  20  26
HETATM   26  N   UNL     1      -5.978  18.181  66.705  1.00  0.00    -0.145 NA 
HETATM   27  H   UNL     1      -5.057  17.882  66.382  1.00  0.00     0.000 HD 
BRANCH  26  28
HETATM   28  C   UNL     1      -6.139  19.444  67.383  1.00  0.00    -0.190 C  
BRANCH  28  29
HETATM   29  C   UNL     1      -6.448  19.163  68.831  1.00  0.00    -0.299 C  
HETATM   30  C   UNL     1      -5.579  18.663  69.720  1.00  0.00    -0.234 C  
ENDBRANCH  28  29
ENDBRANCH  26  28
ENDBRANCH  20  26
ENDBRANCH  14  15
ENDBRANCH   8   9
BRANCH   8  31
HETATM   31  C   UNL     1     -11.513  11.596  69.027  1.00  0.00    -0.356 A  
HETATM   32  C   UNL     1     -12.911  12.309  71.360  1.00  0.00    -0.271 A  
HETATM   33  C   UNL     1     -12.476  13.295  70.488  1.00  0.00    -0.332 A  
HETATM   34  F   UNL     1     -13.537  12.654  72.495  1.00  0.00    -0.622 F  
HETATM   35  C   UNL     1     -12.005  10.614  69.908  1.00  0.00    -0.385 A  
HETATM   36  C   UNL     1     -11.793  12.941  69.320  1.00  0.00    -0.363 A  
HETATM   37  C   UNL     1     -12.695  10.970  71.073  1.00  0.00    -0.485 A  
ENDBRANCH   8  31
ENDBRANCH   5   8
TORSDOF 10
ENDMDL
MODEL       85
REMARK 921   NORMALIZED FREE ENERGY PREDICTED BY IDOCK:   -4.68 KCAL/MOL
REMARK 922        TOTAL FREE ENERGY PREDICTED BY IDOCK:   -8.76 KCAL/MOL
REMARK 923 INTER-LIGAND FREE ENERGY PREDICTED BY IDOCK:   -8.89 KCAL/MOL
REMARK 924 INTRA-LIGAND FREE ENERGY PREDICTED BY IDOCK:    0.13 KCAL/MOL
REMARK 927      BINDING AFFINITY PREDICTED BY RF-SCORE:    0.00 PKD
ROOT
HETATM    1  F   UNL     1     -14.303  15.834  73.080  1.00  0.00    -0.553 F  
HETATM    2  C   UNL     1     -13.599  15.058  72.247  1.00  0.00    -0.443 A  
HETATM    3  C   UNL     1     -13.062  15.606  71.088  1.00  0.00    -0.523 A  
HETATM    4  C   UNL     1     -12.352  14.792  70.201  1.00  0.00    -0.381 A  
HETATM    5  C   UNL     1     -12.170  13.422  70.470  1.00  0.00    -0.425 A  
HETATM    6  C   UNL     1     -12.692  12.903  71.672  1.00  0.00    -0.299 A  
HETATM    7  C   UNL     1     -13.411  13.717  72.553  1.00  0.00    -0.682 A  
ENDROOT
BRANCH   5   8
HETATM    8  C   UNL     1     -11.416  12.531  69.466  1.00  0.00    -0.230 C  
BRANCH   8   9
HETATM    9  N   UNL     1     -12.156  11.273  69.165  1.00  0.00    -0.392 NA 
HETATM   10  C   UNL     1     -12.591  10.535  70.396  1.00  0.00    -0.286 C  
HETATM   11  C   UNL     1     -11.526   9.658  71.118  1.00  0.00    -0.384 C  
HETATM   12  C   UNL     1     -11.393  10.314  68.320  1.00  0.00    -0.177 C  
HETATM   13  C   UNL     1     -10.266   9.541  69.040  1.00  0.00    -0.200 C  
HETATM   14  N   UNL     1     -10.865   8.780  70.142  1.00  0.00    -0.228 NA 
BRANCH  14  15
HETATM   15  C   UNL     1     -10.009   7.861  70.751  1.00  0.00    -0.184 A  
HETATM   16  N   UNL     1     -10.496   6.680  71.101  1.00  0.00    -0.214 NA 
HETATM   17  C   UNL     1      -9.660   5.851  71.704  1.00  0.00    -0.152 A  
HETATM   18  N   UNL     1      -8.744   8.220  70.958  1.00  0.00    -0.136 NA 
HETATM   19  N   UNL     1      -8.408   6.152  72.010  1.00  0.00    -0.114 NA 
HETATM   20  C   UNL     1      -7.978   7.331  71.584  1.00  0.00    -0.096 A  
BRANCH  17  21
HETATM   21  N   UNL     1     -10.064   4.559  71.984  1.00  0.00    -0.193 NA 
HETATM   22  H   UNL     1     -10.636   4.346  72.800  1.00  0.00     0.000 HD 
BRANCH  21  23
HETATM   23  C   UNL     1      -9.642   3.527  71.073  1.00  0.00    -0.173 C  
BRANCH  23  24
HETATM   24  C   UNL     1      -8.721   2.638  71.848  1.00  0.00    -0.106 C  
HETATM   25  C   UNL     1      -8.498   2.723  73.167  1.00  0.00    -0.075 C  
ENDBRANCH  23  24
ENDBRANCH  21  23
ENDBRANCH  17  21
BRANCH  20  26
HETATM   26  N   UNL     1      -6.621   7.548  71.735  1.00  0.00    -0.042 NA 
HETATM   27  H   UNL     1      -6.156   8.289  71.210  1.00  0.00     0.000 HD 
BRANCH  26  28
HETATM   28  C   UNL     1      -5.870   6.717  72.644  1.00  0.00    -0.038 C  
BRANCH  28  29
HETATM   29  C   UNL     1      -5.264   5.587  71.853  1.00  0.00    -0.012 C  
HETATM   30  C   UNL     1      -5.258   5.501  70.515  1.00  0.00    -0.005 C  
ENDBRANCH  28  29
ENDBRANCH  26  28
ENDBRANCH  20  26
ENDBRANCH  14  15
ENDBRANCH   8   9
BRANCH   8  31
HETATM   31  C   UNL     1     -11.036  13.362  68.216  1.00  0.00    -0.289 A  
HETATM   32  C   UNL     1     -10.227  14.799  65.939  1.00  0.00    -0.313 A  
HETATM   33  C   UNL     1     -11.433  14.115  65.931  1.00  0.00    -0.338 A  
HETATM   34  F   UNL     1      -9.822  15.446  64.836  1.00  0.00    -0.287 F  
HETATM   35  C   UNL     1      -9.838  14.102  68.211  1.00  0.00    -0.235 A  
HETATM   36  C   UNL     1     -11.843  13.411  67.067  1.00  0.00    -0.443 A  
HETATM   37  C   UNL     1      -9.433  14.813  67.075  1.00  0.00    -0.241 A  
ENDBRANCH   8  31
ENDBRANCH   5   8
TORSDOF 10
ENDMDL
MODEL       86
REMARK 921   NORMALIZED FREE ENERGY PREDICTED BY IDOCK:   -4.68 KCAL/MOL
REMARK 922        TOTAL FREE ENERGY PREDICTED BY IDOCK:   -8.76 KCAL/MOL
REMARK 923 INTER-LIGAND FREE ENERGY PREDICTED BY IDOCK:   -7.40 KCAL/MOL
REMARK 924 INTRA-LIGAND FREE ENERGY PREDICTED BY IDOCK:   -1.36 KCAL/MOL
REMARK 927      BINDING AFFINITY PREDICTED BY RF-SCORE:    0.00 PKD
ROOT
HETATM    1  F   UNL     1     -13.492  13.963  65.386  1.00  0.00    -0.395 F  
HETATM    2  C   UNL     1     -12.298  14.104  65.977  1.00  0.00    -0.445 A  
HETATM    3  C   UNL     1     -12.144  13.729  67.306  1.00  0.00    -0.393 A  
HETATM    4  C   UNL     1     -10.908  13.902  67.935  1.00  0.00    -0.256 A  
HETATM    5  C   UNL     1      -9.815  14.449  67.236  1.00  0.00    -0.247 A  
HETATM    6  C   UNL     1      -9.990  14.783  65.878  1.00  0.00    -0.351 A  
HETATM    7  C   UNL     1     -11.231  14.618  65.254  1.00  0.00    -0.358 A  
ENDROOT
BRANCH   5   8
HETATM    8  C   UNL     1      -8.470  14.666  67.953  1.00  0.00    -0.158 C  
BRANCH   8   9
HETATM    9  N   UNL     1      -7.433  13.692  67.509  1.00  0.00    -0.177 NA 
HETATM   10  C   UNL     1      -8.006  12.380  67.066  1.00  0.00    -0.106 C  
HETATM   11  C   UNL     1      -8.396  11.358  68.174  1.00  0.00    -0.149 C  
HETATM   12  C   UNL     1      -6.402  13.399  68.543  1.00  0.00    -0.087 C  
HETATM   13  C   UNL     1      -6.856  12.472  69.692  1.00  0.00     0.165 C  
HETATM   14  N   UNL     1      -7.276  11.193  69.110  1.00  0.00    -0.118 NA 
BRANCH  14  15
HETATM   15  C   UNL     1      -7.506  10.176  70.037  1.00  0.00    -0.162 A  
HETATM   16  N   UNL     1      -8.730   9.680  70.140  1.00  0.00    -0.227 NA 
HETATM   17  C   UNL     1      -8.912   8.740  71.053  1.00  0.00    -0.217 A  
HETATM   18  N   UNL     1      -6.484   9.757  70.780  1.00  0.00    -0.158 NA 
HETATM   19  N   UNL     1      -7.970   8.315  71.879  1.00  0.00    -0.117 NA 
HETATM   20  C   UNL     1      -6.761   8.821  71.683  1.00  0.00    -0.076 A  
BRANCH  17  21
HETATM   21  N   UNL     1     -10.131   8.092  71.130  1.00  0.00    -0.187 NA 
HETATM   22  H   UNL     1     -10.352   7.302  70.524  1.00  0.00     0.000 HD 
BRANCH  21  23
HETATM   23  C   UNL     1     -11.074   8.579  72.103  1.00  0.00    -0.366 C  
BRANCH  23  24
HETATM   24  C   UNL     1     -12.138   9.293  71.331  1.00  0.00    -0.424 C  
HETATM   25  C   UNL     1     -13.169   9.957  71.873  1.00  0.00    -0.558 C  
ENDBRANCH  23  24
ENDBRANCH  21  23
ENDBRANCH  17  21
BRANCH  20  26
HETATM   26  N   UNL     1      -5.752   8.225  72.417  1.00  0.00    -0.044 NA 
HETATM   27  H   UNL     1      -4.820   8.640  72.444  1.00  0.00     0.000 HD 
BRANCH  26  28
HETATM   28  C   UNL     1      -6.030   7.011  73.144  1.00  0.00    -0.056 C  
BRANCH  28  29
HETATM   29  C   UNL     1      -5.158   5.918  72.584  1.00  0.00    -0.022 C  
HETATM   30  C   UNL     1      -5.400   5.247  71.449  1.00  0.00    -0.005 C  
ENDBRANCH  28  29
ENDBRANCH  26  28
ENDBRANCH  20  26
ENDBRANCH  14  15
ENDBRANCH   8   9
BRANCH   8  31
HETATM   31  C   UNL     1      -8.046  16.151  67.827  1.00  0.00    -0.157 A  
HETATM   32  C   UNL     1      -7.303  18.838  67.462  1.00  0.00    -0.223 A  
HETATM   33  C   UNL     1      -8.297  18.513  68.374  1.00  0.00    -0.355 A  
HETATM   34  F   UNL     1      -6.983  20.123  67.257  1.00  0.00    -0.233 F  
HETATM   35  C   UNL     1      -7.010  16.504  66.941  1.00  0.00    -0.258 A  
HETATM   36  C   UNL     1      -8.657  17.176  68.566  1.00  0.00    -0.258 A  
HETATM   37  C   UNL     1      -6.645  17.843  66.755  1.00  0.00    -0.216 A  
ENDBRANCH   8  31
ENDBRANCH   5   8
TORSDOF 10
ENDMDL
MODEL       87
REMARK 921   NORMALIZED FREE ENERGY PREDICTED BY IDOCK:   -4.67 KCAL/MOL
REMARK 922        TOTAL FREE ENERGY PREDICTED BY IDOCK:   -8.75 KCAL/MOL
REMARK 923 INTER-LIGAND FREE ENERGY PREDICTED BY IDOCK:   -8.80 KCAL/MOL
REMARK 924 INTRA-LIGAND FREE ENERGY PREDICTED BY IDOCK:    0.05 KCAL/MOL
REMARK 927      BINDING AFFINITY PREDICTED BY RF-SCORE:    0.00 PKD
ROOT
HETATM    1  F   UNL     1     -12.767  13.073  62.660  1.00  0.00    -0.117 F  
HETATM    2  C   UNL     1     -11.961  12.538  63.586  1.00  0.00    -0.537 A  
HETATM    3  C   UNL     1     -12.453  12.293  64.863  1.00  0.00    -0.327 A  
HETATM    4  C   UNL     1     -11.607  11.764  65.841  1.00  0.00    -0.200 A  
HETATM    5  C   UNL     1     -10.261  11.472  65.547  1.00  0.00    -0.303 A  
HETATM    6  C   UNL     1      -9.802  11.693  64.234  1.00  0.00    -0.259 A  
HETATM    7  C   UNL     1     -10.647  12.233  63.259  1.00  0.00    -0.312 A  
ENDROOT
BRANCH   5   8
HETATM    8  C   UNL     1      -9.332  10.922  66.645  1.00  0.00    -0.171 C  
BRANCH   8   9
HETATM    9  N   UNL     1      -9.608  11.539  67.974  1.00  0.00    -0.174 NA 
HETATM   10  C   UNL     1     -10.534  12.715  67.899  1.00  0.00    -0.218 C  
HETATM   11  C   UNL     1      -9.924  14.080  67.466  1.00  0.00    -0.236 C  
HETATM   12  C   UNL     1      -8.384  11.985  68.695  1.00  0.00    -0.036 C  
HETATM   13  C   UNL     1      -7.735  13.284  68.168  1.00  0.00    -0.143 C  
HETATM   14  N   UNL     1      -8.725  14.362  68.267  1.00  0.00    -0.173 NA 
BRANCH  14  15
HETATM   15  C   UNL     1      -8.221  15.642  68.034  1.00  0.00    -0.144 A  
HETATM   16  N   UNL     1      -7.155  15.770  67.257  1.00  0.00    -0.203 NA 
HETATM   17  C   UNL     1      -6.691  16.996  67.088  1.00  0.00    -0.179 A  
HETATM   18  N   UNL     1      -8.832  16.675  68.610  1.00  0.00    -0.241 NA 
HETATM   19  N   UNL     1      -7.194  18.069  67.677  1.00  0.00    -0.204 NA 
HETATM   20  C   UNL     1      -8.289  17.870  68.398  1.00  0.00    -0.304 A  
BRANCH  17  21
HETATM   21  N   UNL     1      -5.661  17.218  66.193  1.00  0.00    -0.313 NA 
HETATM   22  H   UNL     1      -5.273  16.460  65.630  1.00  0.00     0.000 HD 
BRANCH  21  23
HETATM   23  C   UNL     1      -5.158  18.563  66.089  1.00  0.00    -0.143 C  
BRANCH  23  24
HETATM   24  C   UNL     1      -5.817  19.162  64.887  1.00  0.00    -0.301 C  
HETATM   25  C   UNL     1      -6.731  20.143  64.918  1.00  0.00    -0.275 C  
ENDBRANCH  23  24
ENDBRANCH  21  23
ENDBRANCH  17  21
BRANCH  20  26
HETATM   26  N   UNL     1      -8.913  19.021  68.842  1.00  0.00    -0.308 NA 
HETATM   27  H   UNL     1      -9.114  19.149  69.834  1.00  0.00     0.000 HD 
BRANCH  26  28
HETATM   28  C   UNL     1      -9.279  20.039  67.888  1.00  0.00    -0.309 C  
BRANCH  28  29
HETATM   29  C   UNL     1     -10.525  19.585  67.173  1.00  0.00    -0.592 C  
HETATM   30  C   UNL     1     -10.634  19.419  65.847  1.00  0.00    -0.551 C  
ENDBRANCH  28  29
ENDBRANCH  26  28
ENDBRANCH  20  26
ENDBRANCH  14  15
ENDBRANCH   8   9
BRANCH   8  31
HETATM   31  C   UNL     1      -9.377   9.374  66.639  1.00  0.00    -0.211 A  
HETATM   32  C   UNL     1      -9.576   6.571  66.555  1.00  0.00    -0.140 A  
HETATM   33  C   UNL     1      -8.435   7.197  66.077  1.00  0.00    -0.148 A  
HETATM   34  F   UNL     1      -9.688   5.237  66.471  1.00  0.00    -0.131 F  
HETATM   35  C   UNL     1     -10.505   8.710  67.158  1.00  0.00    -0.360 A  
HETATM   36  C   UNL     1      -8.329   8.590  66.131  1.00  0.00    -0.121 A  
HETATM   37  C   UNL     1     -10.607   7.315  67.109  1.00  0.00    -0.416 A  
ENDBRANCH   8  31
ENDBRANCH   5   8
TORSDOF 10
ENDMDL
MODEL       88
REMARK 921   NORMALIZED FREE ENERGY PREDICTED BY IDOCK:   -4.62 KCAL/MOL
REMARK 922        TOTAL FREE ENERGY PREDICTED BY IDOCK:   -8.66 KCAL/MOL
REMARK 923 INTER-LIGAND FREE ENERGY PREDICTED BY IDOCK:   -9.76 KCAL/MOL
REMARK 924 INTRA-LIGAND FREE ENERGY PREDICTED BY IDOCK:    1.10 KCAL/MOL
REMARK 927      BINDING AFFINITY PREDICTED BY RF-SCORE:    0.00 PKD
ROOT
HETATM    1  F   UNL     1      -5.664   9.742  62.335  1.00  0.00    -0.088 F  
HETATM    2  C   UNL     1      -6.754  10.013  63.065  1.00  0.00    -0.129 A  
HETATM    3  C   UNL     1      -6.738   9.774  64.434  1.00  0.00    -0.119 A  
HETATM    4  C   UNL     1      -7.884  10.027  65.194  1.00  0.00    -0.136 A  
HETATM    5  C   UNL     1      -9.053  10.526  64.589  1.00  0.00    -0.248 A  
HETATM    6  C   UNL     1      -9.026  10.796  63.206  1.00  0.00    -0.223 A  
HETATM    7  C   UNL     1      -7.883  10.532  62.446  1.00  0.00    -0.200 A  
ENDROOT
BRANCH   5   8
HETATM    8  C   UNL     1     -10.318  10.766  65.434  1.00  0.00    -0.247 C  
BRANCH   8   9
HETATM    9  N   UNL     1     -10.072  10.544  66.887  1.00  0.00    -0.208 NA 
HETATM   10  C   UNL     1     -11.259  10.867  67.743  1.00  0.00    -0.317 C  
HETATM   11  C   UNL     1     -11.510  12.366  68.082  1.00  0.00    -0.318 C  
HETATM   12  C   UNL     1      -8.916  11.312  67.425  1.00  0.00    -0.144 C  
HETATM   13  C   UNL     1      -9.161  12.820  67.644  1.00  0.00    -0.193 C  
HETATM   14  N   UNL     1     -10.272  12.971  68.591  1.00  0.00    -0.207 NA 
BRANCH  14  15
HETATM   15  C   UNL     1     -10.470  14.271  69.057  1.00  0.00    -0.204 A  
HETATM   16  N   UNL     1     -11.444  14.488  69.928  1.00  0.00    -0.267 NA 
HETATM   17  C   UNL     1     -11.619  15.739  70.320  1.00  0.00    -0.365 A  
HETATM   18  N   UNL     1      -9.675  15.234  68.597  1.00  0.00    -0.205 NA 
HETATM   19  N   UNL     1     -10.920  16.765  69.862  1.00  0.00    -0.199 NA 
HETATM   20  C   UNL     1      -9.931  16.464  69.032  1.00  0.00    -0.267 A  
BRANCH  17  21
HETATM   21  N   UNL     1     -12.532  16.020  71.319  1.00  0.00    -0.569 NA 
HETATM   22  H   UNL     1     -13.506  16.236  71.104  1.00  0.00     0.000 HD 
BRANCH  21  23
HETATM   23  C   UNL     1     -12.051  15.993  72.675  1.00  0.00    -0.538 C  
BRANCH  23  24
HETATM   24  C   UNL     1     -12.686  14.801  73.319  1.00  0.00    -0.596 C  
HETATM   25  C   UNL     1     -13.426  13.884  72.681  1.00  0.00    -0.652 C  
ENDBRANCH  23  24
ENDBRANCH  21  23
ENDBRANCH  17  21
BRANCH  20  26
HETATM   26  N   UNL     1      -9.089  17.515  68.719  1.00  0.00    -0.250 NA 
HETATM   27  H   UNL     1      -9.289  18.456  69.063  1.00  0.00     0.000 HD 
BRANCH  26  28
HETATM   28  C   UNL     1      -7.926  17.270  67.903  1.00  0.00    -0.205 C  
BRANCH  28  29
HETATM   29  C   UNL     1      -8.265  17.638  66.481  1.00  0.00    -0.307 C  
HETATM   30  C   UNL     1      -9.460  18.078  66.065  1.00  0.00    -0.057 C  
ENDBRANCH  28  29
ENDBRANCH  26  28
ENDBRANCH  20  26
ENDBRANCH  14  15
ENDBRANCH   8   9
BRANCH   8  31
HETATM   31  C   UNL     1     -10.917  12.153  65.093  1.00  0.00    -0.355 A  
HETATM   32  C   UNL     1     -11.914  14.680  64.368  1.00  0.00    -0.437 A  
HETATM   33  C   UNL     1     -12.771  13.592  64.432  1.00  0.00    -0.126 A  
HETATM   34  F   UNL     1     -12.383  15.874  63.979  1.00  0.00    -0.403 F  
HETATM   35  C   UNL     1     -10.078  13.283  65.063  1.00  0.00    -0.247 A  
HETATM   36  C   UNL     1     -12.279  12.337  64.806  1.00  0.00    -0.438 A  
HETATM   37  C   UNL     1     -10.574  14.540  64.696  1.00  0.00    -0.298 A  
ENDBRANCH   8  31
ENDBRANCH   5   8
TORSDOF 10
ENDMDL
MODEL       89
REMARK 921   NORMALIZED FREE ENERGY PREDICTED BY IDOCK:   -4.61 KCAL/MOL
REMARK 922        TOTAL FREE ENERGY PREDICTED BY IDOCK:   -8.66 KCAL/MOL
REMARK 923 INTER-LIGAND FREE ENERGY PREDICTED BY IDOCK:   -7.64 KCAL/MOL
REMARK 924 INTRA-LIGAND FREE ENERGY PREDICTED BY IDOCK:   -1.02 KCAL/MOL
REMARK 927      BINDING AFFINITY PREDICTED BY RF-SCORE:    0.00 PKD
ROOT
HETATM    1  F   UNL     1     -11.646  15.348  64.015  1.00  0.00    -0.268 F  
HETATM    2  C   UNL     1     -11.392  14.417  64.943  1.00  0.00    -0.380 A  
HETATM    3  C   UNL     1     -12.246  13.328  65.074  1.00  0.00    -0.477 A  
HETATM    4  C   UNL     1     -12.001  12.370  66.061  1.00  0.00    -0.419 A  
HETATM    5  C   UNL     1     -10.894  12.492  66.924  1.00  0.00    -0.280 A  
HETATM    6  C   UNL     1     -10.024  13.585  66.742  1.00  0.00    -0.269 A  
HETATM    7  C   UNL     1     -10.278  14.548  65.760  1.00  0.00    -0.354 A  
ENDROOT
BRANCH   5   8
HETATM    8  C   UNL     1     -10.658  11.447  68.029  1.00  0.00    -0.191 C  
BRANCH   8   9
HETATM    9  N   UNL     1      -9.207  11.201  68.269  1.00  0.00    -0.162 NA 
HETATM   10  C   UNL     1      -8.560  10.388  67.189  1.00  0.00    -0.130 C  
HETATM   11  C   UNL     1      -8.761   8.844  67.238  1.00  0.00    -0.121 C  
HETATM   12  C   UNL     1      -8.918  10.528  69.565  1.00  0.00    -0.032 C  
HETATM   13  C   UNL     1      -9.236   9.018  69.618  1.00  0.00    -0.159 C  
HETATM   14  N   UNL     1      -8.441   8.347  68.583  1.00  0.00    -0.127 NA 
BRANCH  14  15
HETATM   15  C   UNL     1      -8.454   6.953  68.649  1.00  0.00    -0.121 A  
HETATM   16  N   UNL     1      -8.160   6.372  69.802  1.00  0.00    -0.119 NA 
HETATM   17  C   UNL     1      -8.152   5.049  69.813  1.00  0.00    -0.074 A  
HETATM   18  N   UNL     1      -8.753   6.273  67.544  1.00  0.00    -0.107 NA 
HETATM   19  N   UNL     1      -8.370   4.297  68.746  1.00  0.00    -0.082 NA 
HETATM   20  C   UNL     1      -8.706   4.947  67.641  1.00  0.00    -0.103 A  
BRANCH  17  21
HETATM   21  N   UNL     1      -7.977   4.378  71.008  1.00  0.00    -0.071 NA 
HETATM   22  H   UNL     1      -8.767   4.157  71.614  1.00  0.00     0.000 HD 
BRANCH  21  23
HETATM   23  C   UNL     1      -6.633   4.004  71.362  1.00  0.00    -0.026 C  
BRANCH  23  24
HETATM   24  C   UNL     1      -6.559   2.518  71.206  1.00  0.00    -0.023 C  
HETATM   25  C   UNL     1      -5.535   1.851  70.654  1.00  0.00    -0.012 C  
ENDBRANCH  23  24
ENDBRANCH  21  23
ENDBRANCH  17  21
BRANCH  20  26
HETATM   26  N   UNL     1      -9.122   4.146  66.594  1.00  0.00    -0.126 NA 
HETATM   27  H   UNL     1      -9.403   3.179  66.765  1.00  0.00     0.000 HD 
BRANCH  26  28
HETATM   28  C   UNL     1      -9.155   4.689  65.259  1.00  0.00    -0.151 C  
BRANCH  28  29
HETATM   29  C   UNL     1     -10.453   4.274  64.616  1.00  0.00    -0.134 C  
HETATM   30  C   UNL     1     -10.604   3.961  63.321  1.00  0.00    -0.177 C  
ENDBRANCH  28  29
ENDBRANCH  26  28
ENDBRANCH  20  26
ENDBRANCH  14  15
ENDBRANCH   8   9
BRANCH   8  31
HETATM   31  C   UNL     1     -11.456  11.839  69.297  1.00  0.00    -0.369 A  
HETATM   32  C   UNL     1     -12.987  12.631  71.518  1.00  0.00    -0.282 A  
HETATM   33  C   UNL     1     -12.847  11.285  71.221  1.00  0.00    -0.491 A  
HETATM   34  F   UNL     1     -13.755  13.008  72.551  1.00  0.00    -0.613 F  
HETATM   35  C   UNL     1     -11.579  13.198  69.647  1.00  0.00    -0.321 A  
HETATM   36  C   UNL     1     -12.074  10.888  70.125  1.00  0.00    -0.431 A  
HETATM   37  C   UNL     1     -12.347  13.592  70.750  1.00  0.00    -0.440 A  
ENDBRANCH   8  31
ENDBRANCH   5   8
TORSDOF 10
ENDMDL
MODEL       90
REMARK 921   NORMALIZED FREE ENERGY PREDICTED BY IDOCK:   -4.60 KCAL/MOL
REMARK 922        TOTAL FREE ENERGY PREDICTED BY IDOCK:   -8.63 KCAL/MOL
REMARK 923 INTER-LIGAND FREE ENERGY PREDICTED BY IDOCK:  -10.32 KCAL/MOL
REMARK 924 INTRA-LIGAND FREE ENERGY PREDICTED BY IDOCK:    1.69 KCAL/MOL
REMARK 927      BINDING AFFINITY PREDICTED BY RF-SCORE:    0.00 PKD
ROOT
HETATM    1  F   UNL     1     -12.139  12.731  63.263  1.00  0.00    -0.534 F  
HETATM    2  C   UNL     1     -11.292  12.007  64.005  1.00  0.00    -0.403 A  
HETATM    3  C   UNL     1     -11.634  11.679  65.312  1.00  0.00    -0.105 A  
HETATM    4  C   UNL     1     -10.739  10.949  66.100  1.00  0.00    -0.225 A  
HETATM    5  C   UNL     1      -9.496  10.537  65.582  1.00  0.00    -0.259 A  
HETATM    6  C   UNL     1      -9.194  10.849  64.242  1.00  0.00    -0.221 A  
HETATM    7  C   UNL     1     -10.086  11.589  63.459  1.00  0.00    -0.446 A  
ENDROOT
BRANCH   5   8
HETATM    8  C   UNL     1      -8.507   9.764  66.474  1.00  0.00    -0.124 C  
BRANCH   8   9
HETATM    9  N   UNL     1      -7.699  10.672  67.336  1.00  0.00    -0.104 NA 
HETATM   10  C   UNL     1      -8.297  10.884  68.694  1.00  0.00    -0.148 C  
HETATM   11  C   UNL     1      -9.458  11.914  68.812  1.00  0.00     0.009 C  
HETATM   12  C   UNL     1      -7.466  12.016  66.739  1.00  0.00     0.024 C  
HETATM   13  C   UNL     1      -8.675  12.978  66.769  1.00  0.00    -0.096 C  
HETATM   14  N   UNL     1      -9.067  13.176  68.169  1.00  0.00    -0.198 NA 
BRANCH  14  15
HETATM   15  C   UNL     1     -10.005  14.189  68.375  1.00  0.00    -0.235 A  
HETATM   16  N   UNL     1     -11.076  13.918  69.105  1.00  0.00    -0.252 NA 
HETATM   17  C   UNL     1     -11.955  14.896  69.249  1.00  0.00    -0.291 A  
HETATM   18  N   UNL     1      -9.781  15.378  67.820  1.00  0.00    -0.211 NA 
HETATM   19  N   UNL     1     -11.845  16.084  68.676  1.00  0.00    -0.294 NA 
HETATM   20  C   UNL     1     -10.723  16.297  68.003  1.00  0.00    -0.331 A  
BRANCH  17  21
HETATM   21  N   UNL     1     -13.032  14.725  70.099  1.00  0.00    -0.587 NA 
HETATM   22  H   UNL     1     -13.790  14.081  69.873  1.00  0.00     0.000 HD 
BRANCH  21  23
HETATM   23  C   UNL     1     -13.038  15.495  71.315  1.00  0.00    -0.511 C  
BRANCH  23  24
HETATM   24  C   UNL     1     -13.296  14.522  72.422  1.00  0.00    -0.526 C  
HETATM   25  C   UNL     1     -13.673  13.246  72.255  1.00  0.00    -0.686 C  
ENDBRANCH  23  24
ENDBRANCH  21  23
ENDBRANCH  17  21
BRANCH  20  26
HETATM   26  N   UNL     1     -10.534  17.600  67.581  1.00  0.00    -0.364 NA 
HETATM   27  H   UNL     1     -10.621  17.840  66.593  1.00  0.00     0.000 HD 
BRANCH  26  28
HETATM   28  C   UNL     1     -10.210  18.617  68.551  1.00  0.00    -0.353 C  
BRANCH  28  29
HETATM   29  C   UNL     1     -10.237  19.953  67.857  1.00  0.00    -0.571 C  
HETATM   30  C   UNL     1      -9.994  20.147  66.552  1.00  0.00    -0.586 C  
ENDBRANCH  28  29
ENDBRANCH  26  28
ENDBRANCH  20  26
ENDBRANCH  14  15
ENDBRANCH   8   9
BRANCH   8  31
HETATM   31  C   UNL     1      -9.261   8.654  67.248  1.00  0.00    -0.167 A  
HETATM   32  C   UNL     1     -10.603   6.553  68.547  1.00  0.00    -0.244 A  
HETATM   33  C   UNL     1      -9.552   7.197  69.181  1.00  0.00    -0.154 A  
HETATM   34  F   UNL     1     -11.212   5.521  69.150  1.00  0.00    -0.313 F  
HETATM   35  C   UNL     1     -10.360   8.011  66.645  1.00  0.00    -0.273 A  
HETATM   36  C   UNL     1      -8.893   8.251  68.542  1.00  0.00    -0.137 A  
HETATM   37  C   UNL     1     -11.024   6.961  67.290  1.00  0.00    -0.406 A  
ENDBRANCH   8  31
ENDBRANCH   5   8
TORSDOF 10
ENDMDL
MODEL       91
REMARK 921   NORMALIZED FREE ENERGY PREDICTED BY IDOCK:   -4.59 KCAL/MOL
REMARK 922        TOTAL FREE ENERGY PREDICTED BY IDOCK:   -8.61 KCAL/MOL
REMARK 923 INTER-LIGAND FREE ENERGY PREDICTED BY IDOCK:  -10.19 KCAL/MOL
REMARK 924 INTRA-LIGAND FREE ENERGY PREDICTED BY IDOCK:    1.58 KCAL/MOL
REMARK 927      BINDING AFFINITY PREDICTED BY RF-SCORE:    0.00 PKD
ROOT
HETATM    1  F   UNL     1     -11.913  12.802  63.392  1.00  0.00    -0.496 F  
HETATM    2  C   UNL     1     -11.107  12.037  64.140  1.00  0.00    -0.368 A  
HETATM    3  C   UNL     1     -11.449  11.767  65.459  1.00  0.00    -0.241 A  
HETATM    4  C   UNL     1     -10.596  10.995  66.252  1.00  0.00    -0.295 A  
HETATM    5  C   UNL     1      -9.395  10.481  65.727  1.00  0.00    -0.229 A  
HETATM    6  C   UNL     1      -9.094  10.737  64.375  1.00  0.00    -0.217 A  
HETATM    7  C   UNL     1      -9.944  11.520  63.586  1.00  0.00    -0.409 A  
ENDROOT
BRANCH   5   8
HETATM    8  C   UNL     1      -8.449   9.661  66.623  1.00  0.00    -0.123 C  
BRANCH   8   9
HETATM    9  N   UNL     1      -7.632  10.528  67.519  1.00  0.00    -0.093 NA 
HETATM   10  C   UNL     1      -8.375  10.982  68.739  1.00  0.00    -0.144 C  
HETATM   11  C   UNL     1      -9.351  12.185  68.575  1.00  0.00    -0.106 C  
HETATM   12  C   UNL     1      -7.092  11.743  66.850  1.00  0.00    -0.097 C  
HETATM   13  C   UNL     1      -8.112  12.875  66.599  1.00  0.00     0.297 C  
HETATM   14  N   UNL     1      -8.664  13.290  67.894  1.00  0.00    -0.180 NA 
BRANCH  14  15
HETATM   15  C   UNL     1      -9.437  14.451  67.855  1.00  0.00    -0.214 A  
HETATM   16  N   UNL     1      -9.099  15.407  67.003  1.00  0.00    -0.214 NA 
HETATM   17  C   UNL     1      -9.839  16.503  67.021  1.00  0.00    -0.257 A  
HETATM   18  N   UNL     1     -10.475  14.545  68.683  1.00  0.00    -0.241 NA 
HETATM   19  N   UNL     1     -10.844  16.707  67.858  1.00  0.00    -0.344 NA 
HETATM   20  C   UNL     1     -11.154  15.687  68.646  1.00  0.00    -0.317 A  
BRANCH  17  21
HETATM   21  N   UNL     1      -9.622  17.488  66.075  1.00  0.00    -0.509 NA 
HETATM   22  H   UNL     1      -8.811  17.463  65.458  1.00  0.00     0.000 HD 
BRANCH  21  23
HETATM   23  C   UNL     1     -10.590  18.551  66.000  1.00  0.00    -0.331 C  
BRANCH  23  24
HETATM   24  C   UNL     1      -9.826  19.825  66.176  1.00  0.00    -0.544 C  
HETATM   25  C   UNL     1      -9.496  20.368  67.357  1.00  0.00    -0.561 C  
ENDBRANCH  23  24
ENDBRANCH  21  23
ENDBRANCH  17  21
BRANCH  20  26
HETATM   26  N   UNL     1     -12.322  15.841  69.369  1.00  0.00    -0.514 NA 
HETATM   27  H   UNL     1     -13.040  16.496  69.057  1.00  0.00     0.000 HD 
BRANCH  26  28
HETATM   28  C   UNL     1     -12.516  15.066  70.570  1.00  0.00    -0.371 C  
BRANCH  28  29
HETATM   29  C   UNL     1     -11.941  15.842  71.727  1.00  0.00    -0.573 C  
HETATM   30  C   UNL     1     -12.510  15.955  72.935  1.00  0.00    -0.582 C  
ENDBRANCH  28  29
ENDBRANCH  26  28
ENDBRANCH  20  26
ENDBRANCH  14  15
ENDBRANCH   8   9
BRANCH   8  31
HETATM   31  C   UNL     1      -9.252   8.560  67.359  1.00  0.00    -0.163 A  
HETATM   32  C   UNL     1     -10.754   6.658  68.784  1.00  0.00    -0.258 A  
HETATM   33  C   UNL     1     -10.972   6.833  67.426  1.00  0.00    -0.407 A  
HETATM   34  F   UNL     1     -11.503   5.783  69.470  1.00  0.00    -0.442 F  
HETATM   35  C   UNL     1      -9.021   8.331  68.729  1.00  0.00    -0.144 A  
HETATM   36  C   UNL     1     -10.216   7.768  66.713  1.00  0.00    -0.346 A  
HETATM   37  C   UNL     1      -9.774   7.388  69.439  1.00  0.00    -0.159 A  
ENDBRANCH   8  31
ENDBRANCH   5   8
TORSDOF 10
ENDMDL
MODEL       92
REMARK 921   NORMALIZED FREE ENERGY PREDICTED BY IDOCK:   -4.57 KCAL/MOL
REMARK 922        TOTAL FREE ENERGY PREDICTED BY IDOCK:   -8.59 KCAL/MOL
REMARK 923 INTER-LIGAND FREE ENERGY PREDICTED BY IDOCK:   -7.34 KCAL/MOL
REMARK 924 INTRA-LIGAND FREE ENERGY PREDICTED BY IDOCK:   -1.24 KCAL/MOL
REMARK 927      BINDING AFFINITY PREDICTED BY RF-SCORE:    0.00 PKD
ROOT
HETATM    1  F   UNL     1      -9.012  17.677  68.910  1.00  0.00    -0.279 F  
HETATM    2  C   UNL     1      -9.255  16.422  68.508  1.00  0.00    -0.226 A  
HETATM    3  C   UNL     1     -10.215  15.665  69.169  1.00  0.00    -0.233 A  
HETATM    4  C   UNL     1     -10.450  14.346  68.772  1.00  0.00    -0.244 A  
HETATM    5  C   UNL     1      -9.728  13.776  67.706  1.00  0.00    -0.230 A  
HETATM    6  C   UNL     1      -8.791  14.580  67.029  1.00  0.00    -0.256 A  
HETATM    7  C   UNL     1      -8.550  15.897  67.435  1.00  0.00    -0.189 A  
ENDROOT
BRANCH   5   8
HETATM    8  C   UNL     1      -9.974  12.310  67.303  1.00  0.00    -0.204 C  
BRANCH   8   9
HETATM    9  N   UNL     1     -10.509  11.499  68.434  1.00  0.00    -0.199 NA 
HETATM   10  C   UNL     1      -9.437  10.943  69.321  1.00  0.00    -0.026 C  
HETATM   11  C   UNL     1      -8.703   9.658  68.835  1.00  0.00    -0.132 C  
HETATM   12  C   UNL     1     -11.366  10.360  68.004  1.00  0.00    -0.204 C  
HETATM   13  C   UNL     1     -10.613   9.144  67.420  1.00  0.00    -0.244 C  
HETATM   14  N   UNL     1      -9.690   8.643  68.444  1.00  0.00    -0.159 NA 
BRANCH  14  15
HETATM   15  C   UNL     1      -9.097   7.415  68.146  1.00  0.00    -0.131 A  
HETATM   16  N   UNL     1      -8.396   6.806  69.090  1.00  0.00    -0.124 NA 
HETATM   17  C   UNL     1      -7.824   5.661  68.756  1.00  0.00    -0.096 A  
HETATM   18  N   UNL     1      -9.258   6.918  66.921  1.00  0.00    -0.140 NA 
HETATM   19  N   UNL     1      -7.876   5.131  67.544  1.00  0.00    -0.095 NA 
HETATM   20  C   UNL     1      -8.636   5.771  66.667  1.00  0.00    -0.118 A  
BRANCH  17  21
HETATM   21  N   UNL     1      -7.183   4.911  69.724  1.00  0.00    -0.054 NA 
HETATM   22  H   UNL     1      -6.605   4.108  69.478  1.00  0.00     0.000 HD 
BRANCH  21  23
HETATM   23  C   UNL     1      -7.368   5.311  71.094  1.00  0.00    -0.082 C  
BRANCH  23  24
HETATM   24  C   UNL     1      -8.181   4.232  71.738  1.00  0.00    -0.096 C  
HETATM   25  C   UNL     1      -9.304   3.707  71.228  1.00  0.00    -0.214 C  
ENDBRANCH  23  24
ENDBRANCH  21  23
ENDBRANCH  17  21
BRANCH  20  26
HETATM   26  N   UNL     1      -8.840   5.104  65.474  1.00  0.00    -0.146 NA 
HETATM   27  H   UNL     1      -8.507   5.504  64.596  1.00  0.00     0.000 HD 
BRANCH  26  28
HETATM   28  C   UNL     1      -9.529   3.837  65.481  1.00  0.00    -0.169 C  
BRANCH  28  29
HETATM   29  C   UNL     1      -9.599   3.333  64.063  1.00  0.00    -0.141 C  
HETATM   30  C   UNL     1      -9.985   4.062  63.006  1.00  0.00    -0.145 C  
ENDBRANCH  28  29
ENDBRANCH  26  28
ENDBRANCH  20  26
ENDBRANCH  14  15
ENDBRANCH   8   9
BRANCH   8  31
HETATM   31  C   UNL     1     -10.837  12.260  66.018  1.00  0.00    -0.310 A  
HETATM   32  C   UNL     1     -12.389  12.031  63.685  1.00  0.00    -0.539 A  
HETATM   33  C   UNL     1     -12.911  12.665  64.802  1.00  0.00    -0.349 A  
HETATM   34  F   UNL     1     -13.147  11.883  62.589  1.00  0.00    -0.312 F  
HETATM   35  C   UNL     1     -10.316  11.660  64.855  1.00  0.00    -0.331 A  
HETATM   36  C   UNL     1     -12.135  12.792  65.958  1.00  0.00    -0.458 A  
HETATM   37  C   UNL     1     -11.092  11.540  63.696  1.00  0.00    -0.469 A  
ENDBRANCH   8  31
ENDBRANCH   5   8
TORSDOF 10
ENDMDL
MODEL       93
REMARK 921   NORMALIZED FREE ENERGY PREDICTED BY IDOCK:   -4.56 KCAL/MOL
REMARK 922        TOTAL FREE ENERGY PREDICTED BY IDOCK:   -8.57 KCAL/MOL
REMARK 923 INTER-LIGAND FREE ENERGY PREDICTED BY IDOCK:   -8.49 KCAL/MOL
REMARK 924 INTRA-LIGAND FREE ENERGY PREDICTED BY IDOCK:   -0.08 KCAL/MOL
REMARK 927      BINDING AFFINITY PREDICTED BY RF-SCORE:    0.00 PKD
ROOT
HETATM    1  F   UNL     1     -14.262  15.795  73.194  1.00  0.00    -0.541 F  
HETATM    2  C   UNL     1     -13.569  15.036  72.335  1.00  0.00    -0.460 A  
HETATM    3  C   UNL     1     -13.030  15.613  71.192  1.00  0.00    -0.539 A  
HETATM    4  C   UNL     1     -12.333  14.819  70.277  1.00  0.00    -0.400 A  
HETATM    5  C   UNL     1     -12.167  13.439  70.503  1.00  0.00    -0.425 A  
HETATM    6  C   UNL     1     -12.690  12.889  71.690  1.00  0.00    -0.299 A  
HETATM    7  C   UNL     1     -13.397  13.684  72.599  1.00  0.00    -0.587 A  
ENDROOT
BRANCH   5   8
HETATM    8  C   UNL     1     -11.427  12.571  69.469  1.00  0.00    -0.230 C  
BRANCH   8   9
HETATM    9  N   UNL     1     -12.243  11.404  69.028  1.00  0.00    -0.424 NA 
HETATM   10  C   UNL     1     -12.807  10.613  70.169  1.00  0.00    -0.084 C  
HETATM   11  C   UNL     1     -11.859   9.598  70.873  1.00  0.00    -0.323 C  
HETATM   12  C   UNL     1     -11.507  10.454  68.149  1.00  0.00    -0.118 C  
HETATM   13  C   UNL     1     -10.490   9.537  68.864  1.00  0.00    -0.216 C  
HETATM   14  N   UNL     1     -11.212   8.746  69.866  1.00  0.00    -0.125 NA 
BRANCH  14  15
HETATM   15  C   UNL     1     -10.469   7.715  70.444  1.00  0.00    -0.220 A  
HETATM   16  N   UNL     1      -9.199   7.943  70.742  1.00  0.00    -0.156 NA 
HETATM   17  C   UNL     1      -8.522   6.930  71.258  1.00  0.00    -0.120 A  
HETATM   18  N   UNL     1     -11.071   6.549  70.660  1.00  0.00    -0.287 NA 
HETATM   19  N   UNL     1      -9.024   5.719  71.442  1.00  0.00    -0.140 NA 
HETATM   20  C   UNL     1     -10.313   5.582  71.167  1.00  0.00    -0.234 A  
BRANCH  17  21
HETATM   21  N   UNL     1      -7.231   7.131  71.708  1.00  0.00    -0.075 NA 
HETATM   22  H   UNL     1      -6.825   8.066  71.759  1.00  0.00     0.000 HD 
BRANCH  21  23
HETATM   23  C   UNL     1      -6.483   5.966  72.104  1.00  0.00    -0.054 C  
BRANCH  23  24
HETATM   24  C   UNL     1      -5.907   6.277  73.449  1.00  0.00    -0.053 C  
HETATM   25  C   UNL     1      -6.106   5.551  74.558  1.00  0.00    -0.063 C  
ENDBRANCH  23  24
ENDBRANCH  21  23
ENDBRANCH  17  21
BRANCH  20  26
HETATM   26  N   UNL     1     -10.866   4.374  71.549  1.00  0.00     0.331 NA 
HETATM   27  H   UNL     1     -11.845   4.167  71.344  1.00  0.00     0.000 HD 
BRANCH  26  28
HETATM   28  C   UNL     1     -10.047   3.409  72.240  1.00  0.00    -0.149 C  
BRANCH  28  29
HETATM   29  C   UNL     1     -10.693   3.110  73.568  1.00  0.00    -0.298 C  
HETATM   30  C   UNL     1     -10.312   2.137  74.408  1.00  0.00    -0.183 C  
ENDBRANCH  28  29
ENDBRANCH  26  28
ENDBRANCH  20  26
ENDBRANCH  14  15
ENDBRANCH   8   9
BRANCH   8  31
HETATM   31  C   UNL     1     -10.912  13.463  68.313  1.00  0.00    -0.282 A  
HETATM   32  C   UNL     1     -10.099  15.150  66.216  1.00  0.00    -0.283 A  
HETATM   33  C   UNL     1      -9.342  15.076  67.375  1.00  0.00    -0.204 A  
HETATM   34  F   UNL     1      -9.733  15.989  65.236  1.00  0.00    -0.299 F  
HETATM   35  C   UNL     1     -11.636  13.524  67.107  1.00  0.00    -0.393 A  
HETATM   36  C   UNL     1      -9.738  14.227  68.413  1.00  0.00    -0.225 A  
HETATM   37  C   UNL     1     -11.235  14.369  66.066  1.00  0.00    -0.333 A  
ENDBRANCH   8  31
ENDBRANCH   5   8
TORSDOF 10
ENDMDL
MODEL       94
REMARK 921   NORMALIZED FREE ENERGY PREDICTED BY IDOCK:   -4.55 KCAL/MOL
REMARK 922        TOTAL FREE ENERGY PREDICTED BY IDOCK:   -8.56 KCAL/MOL
REMARK 923 INTER-LIGAND FREE ENERGY PREDICTED BY IDOCK:   -9.11 KCAL/MOL
REMARK 924 INTRA-LIGAND FREE ENERGY PREDICTED BY IDOCK:    0.55 KCAL/MOL
REMARK 927      BINDING AFFINITY PREDICTED BY RF-SCORE:    0.00 PKD
ROOT
HETATM    1  F   UNL     1     -10.753   3.280  62.838  1.00  0.00    -0.160 F  
HETATM    2  C   UNL     1     -10.196   3.879  63.898  1.00  0.00    -0.197 A  
HETATM    3  C   UNL     1      -8.837   4.172  63.884  1.00  0.00    -0.127 A  
HETATM    4  C   UNL     1      -8.245   4.769  65.000  1.00  0.00    -0.126 A  
HETATM    5  C   UNL     1      -9.012   5.083  66.139  1.00  0.00    -0.131 A  
HETATM    6  C   UNL     1     -10.394   4.812  66.109  1.00  0.00    -0.337 A  
HETATM    7  C   UNL     1     -10.982   4.204  64.995  1.00  0.00     0.027 A  
ENDROOT
BRANCH   5   8
HETATM    8  C   UNL     1      -8.338   5.709  67.374  1.00  0.00    -0.100 C  
BRANCH   8   9
HETATM    9  N   UNL     1      -7.701   7.020  67.063  1.00  0.00    -0.105 NA 
HETATM   10  C   UNL     1      -7.552   7.904  68.263  1.00  0.00    -0.116 C  
HETATM   11  C   UNL     1      -8.808   8.701  68.726  1.00  0.00    -0.139 C  
HETATM   12  C   UNL     1      -8.418   7.804  66.020  1.00  0.00    -0.139 C  
HETATM   13  C   UNL     1      -9.723   8.489  66.481  1.00  0.00    -0.260 C  
HETATM   14  N   UNL     1      -9.395   9.407  67.578  1.00  0.00    -0.126 NA 
BRANCH  14  15
HETATM   15  C   UNL     1     -10.432  10.261  67.957  1.00  0.00    -0.196 A  
HETATM   16  N   UNL     1     -10.688  11.317  67.200  1.00  0.00    -0.239 NA 
HETATM   17  C   UNL     1     -11.658  12.117  67.611  1.00  0.00    -0.343 A  
HETATM   18  N   UNL     1     -11.109   9.976  69.066  1.00  0.00    -0.209 NA 
HETATM   19  N   UNL     1     -12.334  11.947  68.736  1.00  0.00    -0.181 NA 
HETATM   20  C   UNL     1     -12.056  10.842  69.414  1.00  0.00    -0.290 A  
BRANCH  17  21
HETATM   21  N   UNL     1     -12.062  13.167  66.808  1.00  0.00    -0.364 NA 
HETATM   22  H   UNL     1     -12.786  13.819  67.110  1.00  0.00     0.000 HD 
BRANCH  21  23
HETATM   23  C   UNL     1     -11.419  13.300  65.527  1.00  0.00    -0.311 C  
BRANCH  23  24
HETATM   24  C   UNL     1     -12.354  12.698  64.526  1.00  0.00    -0.537 C  
HETATM   25  C   UNL     1     -11.995  11.861  63.543  1.00  0.00    -0.567 C  
ENDBRANCH  23  24
ENDBRANCH  21  23
ENDBRANCH  17  21
BRANCH  20  26
HETATM   26  N   UNL     1     -12.904  10.578  70.474  1.00  0.00    -0.435 NA 
HETATM   27  H   UNL     1     -13.871  10.904  70.455  1.00  0.00     0.000 HD 
BRANCH  26  28
HETATM   28  C   UNL     1     -12.407   9.837  71.607  1.00  0.00    -0.408 C  
BRANCH  28  29
HETATM   29  C   UNL     1     -13.563   9.096  72.227  1.00  0.00    -0.548 C  
HETATM   30  C   UNL     1     -14.290   8.152  71.612  1.00  0.00    -0.570 C  
ENDBRANCH  28  29
ENDBRANCH  26  28
ENDBRANCH  20  26
ENDBRANCH  14  15
ENDBRANCH   8   9
BRANCH   8  31
HETATM   31  C   UNL     1      -9.345   5.753  68.551  1.00  0.00    -0.133 A  
HETATM   32  C   UNL     1     -11.083   5.915  70.754  1.00  0.00    -0.254 A  
HETATM   33  C   UNL     1     -11.528   6.289  69.496  1.00  0.00    -0.387 A  
HETATM   34  F   UNL     1     -11.900   6.036  71.811  1.00  0.00    -0.343 F  
HETATM   35  C   UNL     1      -8.934   5.338  69.832  1.00  0.00    -0.146 A  
HETATM   36  C   UNL     1     -10.669   6.196  68.396  1.00  0.00    -0.361 A  
HETATM   37  C   UNL     1      -9.799   5.424  70.930  1.00  0.00    -0.249 A  
ENDBRANCH   8  31
ENDBRANCH   5   8
TORSDOF 10
ENDMDL
MODEL       95
REMARK 921   NORMALIZED FREE ENERGY PREDICTED BY IDOCK:   -4.51 KCAL/MOL
REMARK 922        TOTAL FREE ENERGY PREDICTED BY IDOCK:   -8.49 KCAL/MOL
REMARK 923 INTER-LIGAND FREE ENERGY PREDICTED BY IDOCK:   -9.48 KCAL/MOL
REMARK 924 INTRA-LIGAND FREE ENERGY PREDICTED BY IDOCK:    0.99 KCAL/MOL
REMARK 927      BINDING AFFINITY PREDICTED BY RF-SCORE:    0.00 PKD
ROOT
HETATM    1  F   UNL     1     -10.389   3.603  63.541  1.00  0.00    -0.158 F  
HETATM    2  C   UNL     1      -9.918   4.071  64.704  1.00  0.00    -0.199 A  
HETATM    3  C   UNL     1     -10.784   4.700  65.591  1.00  0.00    -0.193 A  
HETATM    4  C   UNL     1     -10.291   5.217  66.792  1.00  0.00    -0.306 A  
HETATM    5  C   UNL     1      -8.925   5.103  67.117  1.00  0.00    -0.112 A  
HETATM    6  C   UNL     1      -8.079   4.425  66.217  1.00  0.00    -0.102 A  
HETATM    7  C   UNL     1      -8.573   3.919  65.011  1.00  0.00    -0.114 A  
ENDROOT
BRANCH   5   8
HETATM    8  C   UNL     1      -8.391   5.709  68.428  1.00  0.00    -0.106 C  
BRANCH   8   9
HETATM    9  N   UNL     1      -7.564   6.926  68.188  1.00  0.00    -0.105 NA 
HETATM   10  C   UNL     1      -7.624   7.911  69.315  1.00  0.00    -0.097 C  
HETATM   11  C   UNL     1      -8.866   8.849  69.380  1.00  0.00    -0.143 C  
HETATM   12  C   UNL     1      -7.918   7.656  66.940  1.00  0.00    -0.115 C  
HETATM   13  C   UNL     1      -9.218   8.488  67.000  1.00  0.00    -0.152 C  
HETATM   14  N   UNL     1      -9.076   9.481  68.070  1.00  0.00    -0.123 NA 
BRANCH  14  15
HETATM   15  C   UNL     1     -10.080  10.450  68.105  1.00  0.00    -0.155 A  
HETATM   16  N   UNL     1     -10.467  10.917  69.283  1.00  0.00    -0.218 NA 
HETATM   17  C   UNL     1     -11.443  11.810  69.273  1.00  0.00    -0.306 A  
HETATM   18  N   UNL     1     -10.607  10.853  66.951  1.00  0.00    -0.250 NA 
HETATM   19  N   UNL     1     -12.068  12.214  68.179  1.00  0.00    -0.417 NA 
HETATM   20  C   UNL     1     -11.593  11.741  67.035  1.00  0.00    -0.244 A  
BRANCH  17  21
HETATM   21  N   UNL     1     -11.811  12.431  70.451  1.00  0.00    -0.541 NA 
HETATM   22  H   UNL     1     -11.872  11.914  71.328  1.00  0.00     0.000 HD 
BRANCH  21  23
HETATM   23  C   UNL     1     -12.103  13.839  70.389  1.00  0.00    -0.350 C  
BRANCH  23  24
HETATM   24  C   UNL     1     -12.838  14.169  71.649  1.00  0.00    -0.428 C  
HETATM   25  C   UNL     1     -13.746  13.380  72.240  1.00  0.00    -0.705 C  
ENDBRANCH  23  24
ENDBRANCH  21  23
ENDBRANCH  17  21
BRANCH  20  26
HETATM   26  N   UNL     1     -12.123  12.321  65.898  1.00  0.00    -0.620 NA 
HETATM   27  H   UNL     1     -13.127  12.284  65.720  1.00  0.00     0.000 HD 
BRANCH  26  28
HETATM   28  C   UNL     1     -11.242  12.978  64.964  1.00  0.00    -0.297 C  
BRANCH  28  29
HETATM   29  C   UNL     1     -11.257  12.198  63.675  1.00  0.00    -0.540 C  
HETATM   30  C   UNL     1     -10.193  11.593  63.129  1.00  0.00    -0.396 C  
ENDBRANCH  28  29
ENDBRANCH  26  28
ENDBRANCH  20  26
ENDBRANCH  14  15
ENDBRANCH   8   9
BRANCH   8  31
HETATM   31  C   UNL     1      -9.561   5.918  69.420  1.00  0.00    -0.171 A  
HETATM   32  C   UNL     1     -11.602   6.379  71.298  1.00  0.00    -0.311 A  
HETATM   33  C   UNL     1     -11.816   6.671  69.959  1.00  0.00    -0.301 A  
HETATM   34  F   UNL     1     -12.561   6.643  72.197  1.00  0.00    -0.348 F  
HETATM   35  C   UNL     1      -9.386   5.590  70.779  1.00  0.00    -0.199 A  
HETATM   36  C   UNL     1     -10.807   6.428  69.022  1.00  0.00    -0.385 A  
HETATM   37  C   UNL     1     -10.401   5.826  71.714  1.00  0.00    -0.271 A  
ENDBRANCH   8  31
ENDBRANCH   5   8
TORSDOF 10
ENDMDL
MODEL       96
REMARK 921   NORMALIZED FREE ENERGY PREDICTED BY IDOCK:   -4.51 KCAL/MOL
REMARK 922        TOTAL FREE ENERGY PREDICTED BY IDOCK:   -8.49 KCAL/MOL
REMARK 923 INTER-LIGAND FREE ENERGY PREDICTED BY IDOCK:   -7.18 KCAL/MOL
REMARK 924 INTRA-LIGAND FREE ENERGY PREDICTED BY IDOCK:   -1.31 KCAL/MOL
REMARK 927      BINDING AFFINITY PREDICTED BY RF-SCORE:    0.00 PKD
ROOT
HETATM    1  F   UNL     1      -5.503  15.252  68.550  1.00  0.00    -0.084 F  
HETATM    2  C   UNL     1      -6.406  14.335  68.179  1.00  0.00    -0.132 A  
HETATM    3  C   UNL     1      -7.760  14.603  68.342  1.00  0.00    -0.125 A  
HETATM    4  C   UNL     1      -8.705  13.637  67.984  1.00  0.00    -0.176 A  
HETATM    5  C   UNL     1      -8.300  12.395  67.457  1.00  0.00    -0.173 A  
HETATM    6  C   UNL     1      -6.923  12.168  67.266  1.00  0.00    -0.148 A  
HETATM    7  C   UNL     1      -5.979  13.132  67.635  1.00  0.00    -0.136 A  
ENDROOT
BRANCH   5   8
HETATM    8  C   UNL     1      -9.351  11.328  67.101  1.00  0.00    -0.163 C  
BRANCH   8   9
HETATM    9  N   UNL     1     -10.139  10.897  68.290  1.00  0.00    -0.168 NA 
HETATM   10  C   UNL     1      -9.294  10.299  69.373  1.00  0.00    -0.199 C  
HETATM   11  C   UNL     1      -8.861   8.813  69.205  1.00  0.00    -0.137 C  
HETATM   12  C   UNL     1     -11.215   9.918  67.975  1.00  0.00    -0.061 C  
HETATM   13  C   UNL     1     -10.743   8.473  67.701  1.00  0.00    -0.119 C  
HETATM   14  N   UNL     1     -10.036   7.989  68.892  1.00  0.00    -0.196 NA 
BRANCH  14  15
HETATM   15  C   UNL     1      -9.739   6.625  68.881  1.00  0.00    -0.135 A  
HETATM   16  N   UNL     1      -9.821   5.951  70.018  1.00  0.00    -0.168 NA 
HETATM   17  C   UNL     1      -9.500   4.669  69.970  1.00  0.00    -0.172 A  
HETATM   18  N   UNL     1      -9.380   6.068  67.727  1.00  0.00    -0.107 NA 
HETATM   19  N   UNL     1      -9.067   4.052  68.881  1.00  0.00    -0.121 NA 
HETATM   20  C   UNL     1      -9.060   4.778  67.772  1.00  0.00    -0.116 A  
BRANCH  17  21
HETATM   21  N   UNL     1      -9.681   3.878  71.089  1.00  0.00    -0.177 NA 
HETATM   22  H   UNL     1      -9.550   2.867  71.052  1.00  0.00     0.000 HD 
BRANCH  21  23
HETATM   23  C   UNL     1     -10.064   4.542  72.308  1.00  0.00    -0.191 C  
BRANCH  23  24
HETATM   24  C   UNL     1     -10.137   3.477  73.357  1.00  0.00    -0.201 C  
HETATM   25  C   UNL     1     -11.200   2.693  73.585  1.00  0.00    -0.315 C  
ENDBRANCH  23  24
ENDBRANCH  21  23
ENDBRANCH  17  21
BRANCH  20  26
HETATM   26  N   UNL     1      -8.797   4.072  66.613  1.00  0.00    -0.117 NA 
HETATM   27  H   UNL     1      -9.079   3.094  66.530  1.00  0.00     0.000 HD 
BRANCH  26  28
HETATM   28  C   UNL     1      -8.120   4.730  65.523  1.00  0.00    -0.111 C  
BRANCH  28  29
HETATM   29  C   UNL     1      -8.928   4.512  64.270  1.00  0.00    -0.150 C  
HETATM   30  C   UNL     1     -10.099   3.863  64.213  1.00  0.00    -0.216 C  
ENDBRANCH  28  29
ENDBRANCH  26  28
ENDBRANCH  20  26
ENDBRANCH  14  15
ENDBRANCH   8   9
BRANCH   8  31
HETATM   31  C   UNL     1     -10.211  11.820  65.910  1.00  0.00    -0.272 A  
HETATM   32  C   UNL     1     -11.755  12.844  63.795  1.00  0.00    -0.492 A  
HETATM   33  C   UNL     1     -10.643  12.062  63.523  1.00  0.00    -0.514 A  
HETATM   34  F   UNL     1     -12.462  13.368  62.784  1.00  0.00    -0.462 F  
HETATM   35  C   UNL     1     -11.370  12.580  66.158  1.00  0.00    -0.388 A  
HETATM   36  C   UNL     1      -9.882  11.540  64.574  1.00  0.00    -0.278 A  
HETATM   37  C   UNL     1     -12.135  13.095  65.104  1.00  0.00    -0.463 A  
ENDBRANCH   8  31
ENDBRANCH   5   8
TORSDOF 10
ENDMDL
MODEL       97
REMARK 921   NORMALIZED FREE ENERGY PREDICTED BY IDOCK:   -4.48 KCAL/MOL
REMARK 922        TOTAL FREE ENERGY PREDICTED BY IDOCK:   -8.44 KCAL/MOL
REMARK 923 INTER-LIGAND FREE ENERGY PREDICTED BY IDOCK:   -7.88 KCAL/MOL
REMARK 924 INTRA-LIGAND FREE ENERGY PREDICTED BY IDOCK:   -0.56 KCAL/MOL
REMARK 927      BINDING AFFINITY PREDICTED BY RF-SCORE:    0.00 PKD
ROOT
HETATM    1  F   UNL     1     -13.224  13.668  65.722  1.00  0.00    -0.445 F  
HETATM    2  C   UNL     1     -12.047  13.543  66.349  1.00  0.00    -0.417 A  
HETATM    3  C   UNL     1     -12.007  13.002  67.628  1.00  0.00    -0.353 A  
HETATM    4  C   UNL     1     -10.784  12.897  68.297  1.00  0.00    -0.261 A  
HETATM    5  C   UNL     1      -9.591  13.330  67.687  1.00  0.00    -0.213 A  
HETATM    6  C   UNL     1      -9.658  13.838  66.375  1.00  0.00    -0.285 A  
HETATM    7  C   UNL     1     -10.884  13.951  65.712  1.00  0.00    -0.289 A  
ENDROOT
BRANCH   5   8
HETATM    8  C   UNL     1      -8.257  13.241  68.452  1.00  0.00    -0.134 C  
BRANCH   8   9
HETATM    9  N   UNL     1      -7.425  12.091  67.996  1.00  0.00    -0.104 NA 
HETATM   10  C   UNL     1      -8.019  11.357  66.833  1.00  0.00    -0.158 C  
HETATM   11  C   UNL     1      -9.151  10.331  67.137  1.00  0.00    -0.142 C  
HETATM   12  C   UNL     1      -7.152  11.088  69.062  1.00  0.00    -0.106 C  
HETATM   13  C   UNL     1      -8.333  10.159  69.421  1.00  0.00    -0.168 C  
HETATM   14  N   UNL     1      -8.722   9.426  68.211  1.00  0.00    -0.124 NA 
BRANCH  14  15
HETATM   15  C   UNL     1      -9.631   8.388  68.424  1.00  0.00    -0.148 A  
HETATM   16  N   UNL     1     -10.326   8.378  69.551  1.00  0.00    -0.216 NA 
HETATM   17  C   UNL     1     -11.153   7.360  69.727  1.00  0.00    -0.152 A  
HETATM   18  N   UNL     1      -9.750   7.453  67.485  1.00  0.00    -0.141 NA 
HETATM   19  N   UNL     1     -11.282   6.354  68.877  1.00  0.00    -0.343 NA 
HETATM   20  C   UNL     1     -10.592   6.459  67.750  1.00  0.00    -0.266 A  
BRANCH  17  21
HETATM   21  N   UNL     1     -11.999   7.350  70.820  1.00  0.00    -0.457 NA 
HETATM   22  H   UNL     1     -12.709   8.071  70.949  1.00  0.00     0.000 HD 
BRANCH  21  23
HETATM   23  C   UNL     1     -11.837   6.278  71.766  1.00  0.00    -0.286 C  
BRANCH  23  24
HETATM   24  C   UNL     1     -11.220   6.888  72.985  1.00  0.00    -0.220 C  
HETATM   25  C   UNL     1     -10.161   7.711  72.983  1.00  0.00    -0.379 C  
ENDBRANCH  23  24
ENDBRANCH  21  23
ENDBRANCH  17  21
BRANCH  20  26
HETATM   26  N   UNL     1     -10.887   5.505  66.793  1.00  0.00    -0.481 NA 
HETATM   27  H   UNL     1     -11.857   5.257  66.595  1.00  0.00     0.000 HD 
BRANCH  26  28
HETATM   28  C   UNL     1      -9.811   4.865  66.078  1.00  0.00    -0.203 C  
BRANCH  28  29
HETATM   29  C   UNL     1      -9.089   3.953  67.036  1.00  0.00    -0.168 C  
HETATM   30  C   UNL     1      -8.740   2.685  66.774  1.00  0.00    -0.132 C  
ENDBRANCH  28  29
ENDBRANCH  26  28
ENDBRANCH  20  26
ENDBRANCH  14  15
ENDBRANCH   8   9
BRANCH   8  31
HETATM   31  C   UNL     1      -7.535  14.610  68.401  1.00  0.00    -0.117 A  
HETATM   32  C   UNL     1      -6.202  17.085  68.447  1.00  0.00    -0.145 A  
HETATM   33  C   UNL     1      -5.761  16.079  67.601  1.00  0.00    -0.169 A  
HETATM   34  F   UNL     1      -5.536  18.248  68.500  1.00  0.00    -0.166 F  
HETATM   35  C   UNL     1      -7.987  15.664  69.219  1.00  0.00    -0.237 A  
HETATM   36  C   UNL     1      -6.432  14.853  67.566  1.00  0.00    -0.105 A  
HETATM   37  C   UNL     1      -7.319  16.894  69.245  1.00  0.00    -0.150 A  
ENDBRANCH   8  31
ENDBRANCH   5   8
TORSDOF 10
ENDMDL
MODEL       98
REMARK 921   NORMALIZED FREE ENERGY PREDICTED BY IDOCK:   -4.47 KCAL/MOL
REMARK 922        TOTAL FREE ENERGY PREDICTED BY IDOCK:   -8.43 KCAL/MOL
REMARK 923 INTER-LIGAND FREE ENERGY PREDICTED BY IDOCK:   -7.18 KCAL/MOL
REMARK 924 INTRA-LIGAND FREE ENERGY PREDICTED BY IDOCK:   -1.26 KCAL/MOL
REMARK 927      BINDING AFFINITY PREDICTED BY RF-SCORE:    0.00 PKD
ROOT
HETATM    1  F   UNL     1     -13.554  14.087  65.238  1.00  0.00    -0.251 F  
HETATM    2  C   UNL     1     -12.353  14.080  65.830  1.00  0.00    -0.480 A  
HETATM    3  C   UNL     1     -12.259  13.786  67.185  1.00  0.00    -0.352 A  
HETATM    4  C   UNL     1     -11.011  13.807  67.813  1.00  0.00    -0.272 A  
HETATM    5  C   UNL     1      -9.845  14.118  67.087  1.00  0.00    -0.253 A  
HETATM    6  C   UNL     1      -9.966  14.372  65.706  1.00  0.00    -0.354 A  
HETATM    7  C   UNL     1     -11.218  14.361  65.082  1.00  0.00    -0.359 A  
ENDROOT
BRANCH   5   8
HETATM    8  C   UNL     1      -8.482  14.172  67.801  1.00  0.00    -0.178 C  
BRANCH   8   9
HETATM    9  N   UNL     1      -7.521  13.173  67.253  1.00  0.00    -0.115 NA 
HETATM   10  C   UNL     1      -8.192  11.960  66.682  1.00  0.00    -0.088 C  
HETATM   11  C   UNL     1      -8.659  10.863  67.682  1.00  0.00    -0.124 C  
HETATM   12  C   UNL     1      -6.517  12.698  68.244  1.00  0.00    -0.073 C  
HETATM   13  C   UNL     1      -7.040  11.696  69.296  1.00  0.00    -0.055 C  
HETATM   14  N   UNL     1      -7.555  10.518  68.588  1.00  0.00    -0.092 NA 
BRANCH  14  15
HETATM   15  C   UNL     1      -7.863   9.432  69.409  1.00  0.00    -0.087 A  
HETATM   16  N   UNL     1      -7.492   8.221  69.020  1.00  0.00    -0.089 NA 
HETATM   17  C   UNL     1      -7.831   7.216  69.810  1.00  0.00    -0.118 A  
HETATM   18  N   UNL     1      -8.523   9.664  70.541  1.00  0.00    -0.196 NA 
HETATM   19  N   UNL     1      -8.545   7.351  70.917  1.00  0.00    -0.134 NA 
HETATM   20  C   UNL     1      -8.837   8.595  71.267  1.00  0.00    -0.207 A  
BRANCH  17  21
HETATM   21  N   UNL     1      -7.370   5.943  69.532  1.00  0.00    -0.073 NA 
HETATM   22  H   UNL     1      -7.021   5.695  68.606  1.00  0.00     0.000 HD 
BRANCH  21  23
HETATM   23  C   UNL     1      -7.404   4.983  70.604  1.00  0.00    -0.065 C  
BRANCH  23  24
HETATM   24  C   UNL     1      -8.270   3.859  70.129  1.00  0.00    -0.071 C  
HETATM   25  C   UNL     1      -9.603   3.919  69.992  1.00  0.00    -0.269 C  
ENDBRANCH  23  24
ENDBRANCH  21  23
ENDBRANCH  17  21
BRANCH  20  26
HETATM   26  N   UNL     1      -9.407   8.732  72.519  1.00  0.00    -0.322 NA 
HETATM   27  H   UNL     1      -9.851   9.610  72.790  1.00  0.00     0.000 HD 
BRANCH  26  28
HETATM   28  C   UNL     1      -9.368   7.621  73.438  1.00  0.00    -0.268 C  
BRANCH  28  29
HETATM   29  C   UNL     1     -10.693   6.908  73.369  1.00  0.00    -0.352 C  
HETATM   30  C   UNL     1     -10.848   5.580  73.267  1.00  0.00    -0.337 C  
ENDBRANCH  28  29
ENDBRANCH  26  28
ENDBRANCH  20  26
ENDBRANCH  14  15
ENDBRANCH   8   9
BRANCH   8  31
HETATM   31  C   UNL     1      -7.954  15.628  67.807  1.00  0.00    -0.157 A  
HETATM   32  C   UNL     1      -6.989  18.264  67.958  1.00  0.00    -0.221 A  
HETATM   33  C   UNL     1      -6.311  17.323  67.198  1.00  0.00    -0.195 A  
HETATM   34  F   UNL     1      -6.501  19.509  68.064  1.00  0.00    -0.230 F  
HETATM   35  C   UNL     1      -8.646  16.614  68.535  1.00  0.00    -0.234 A  
HETATM   36  C   UNL     1      -6.797  16.015  67.111  1.00  0.00    -0.223 A  
HETATM   37  C   UNL     1      -8.162  17.926  68.615  1.00  0.00    -0.281 A  
ENDBRANCH   8  31
ENDBRANCH   5   8
TORSDOF 10
ENDMDL
MODEL       99
REMARK 921   NORMALIZED FREE ENERGY PREDICTED BY IDOCK:   -4.44 KCAL/MOL
REMARK 922        TOTAL FREE ENERGY PREDICTED BY IDOCK:   -8.38 KCAL/MOL
REMARK 923 INTER-LIGAND FREE ENERGY PREDICTED BY IDOCK:   -9.75 KCAL/MOL
REMARK 924 INTRA-LIGAND FREE ENERGY PREDICTED BY IDOCK:    1.37 KCAL/MOL
REMARK 927      BINDING AFFINITY PREDICTED BY RF-SCORE:    0.00 PKD
ROOT
HETATM    1  F   UNL     1     -12.643  13.584  62.785  1.00  0.00    -0.364 F  
HETATM    2  C   UNL     1     -12.146  12.975  63.870  1.00  0.00    -0.471 A  
HETATM    3  C   UNL     1     -12.476  13.450  65.133  1.00  0.00    -0.509 A  
HETATM    4  C   UNL     1     -11.936  12.836  66.267  1.00  0.00    -0.460 A  
HETATM    5  C   UNL     1     -11.064  11.737  66.143  1.00  0.00    -0.358 A  
HETATM    6  C   UNL     1     -10.779  11.253  64.851  1.00  0.00    -0.337 A  
HETATM    7  C   UNL     1     -11.313  11.876  63.718  1.00  0.00    -0.532 A  
ENDROOT
BRANCH   5   8
HETATM    8  C   UNL     1     -10.449  11.094  67.400  1.00  0.00    -0.220 C  
BRANCH   8   9
HETATM    9  N   UNL     1      -8.973  11.291  67.466  1.00  0.00    -0.139 NA 
HETATM   10  C   UNL     1      -8.503  11.793  68.798  1.00  0.00     0.007 C  
HETATM   11  C   UNL     1      -8.652  13.318  69.080  1.00  0.00     0.430 C  
HETATM   12  C   UNL     1      -8.443  12.219  66.430  1.00  0.00     0.102 C  
HETATM   13  C   UNL     1      -8.706  13.719  66.681  1.00  0.00    -0.002 C  
HETATM   14  N   UNL     1      -8.087  14.084  67.961  1.00  0.00    -0.139 NA 
BRANCH  14  15
HETATM   15  C   UNL     1      -8.051  15.455  68.223  1.00  0.00    -0.136 A  
HETATM   16  N   UNL     1      -6.891  16.006  68.547  1.00  0.00    -0.125 NA 
HETATM   17  C   UNL     1      -6.906  17.300  68.818  1.00  0.00    -0.219 A  
HETATM   18  N   UNL     1      -9.188  16.142  68.142  1.00  0.00    -0.191 NA 
HETATM   19  N   UNL     1      -8.002  18.043  68.829  1.00  0.00    -0.281 NA 
HETATM   20  C   UNL     1      -9.115  17.434  68.446  1.00  0.00    -0.274 A  
BRANCH  17  21
HETATM   21  N   UNL     1      -5.715  17.964  69.041  1.00  0.00    -0.193 NA 
HETATM   22  H   UNL     1      -5.086  18.201  68.273  1.00  0.00     0.000 HD 
BRANCH  21  23
HETATM   23  C   UNL     1      -5.399  18.308  70.403  1.00  0.00    -0.255 C  
BRANCH  23  24
HETATM   24  C   UNL     1      -5.349  19.803  70.454  1.00  0.00    -0.258 C  
HETATM   25  C   UNL     1      -5.445  20.614  69.391  1.00  0.00    -0.389 C  
ENDBRANCH  23  24
ENDBRANCH  21  23
ENDBRANCH  17  21
BRANCH  20  26
HETATM   26  N   UNL     1     -10.206  18.266  68.272  1.00  0.00    -0.376 NA 
HETATM   27  H   UNL     1     -11.146  17.875  68.204  1.00  0.00     0.000 HD 
BRANCH  26  28
HETATM   28  C   UNL     1     -10.001  19.691  68.187  1.00  0.00    -0.437 C  
BRANCH  28  29
HETATM   29  C   UNL     1     -10.217  20.111  66.756  1.00  0.00    -0.562 C  
HETATM   30  C   UNL     1     -10.644  19.305  65.774  1.00  0.00    -0.450 C  
ENDBRANCH  28  29
ENDBRANCH  26  28
ENDBRANCH  20  26
ENDBRANCH  14  15
ENDBRANCH   8   9
BRANCH   8  31
HETATM   31  C   UNL     1     -11.213  11.575  68.658  1.00  0.00    -0.307 A  
HETATM   32  C   UNL     1     -12.501  12.391  71.020  1.00  0.00    -0.256 A  
HETATM   33  C   UNL     1     -12.172  13.329  70.054  1.00  0.00    -0.345 A  
HETATM   34  F   UNL     1     -13.074  12.789  72.166  1.00  0.00    -0.493 F  
HETATM   35  C   UNL     1     -11.598  10.638  69.637  1.00  0.00    -0.368 A  
HETATM   36  C   UNL     1     -11.545  12.923  68.872  1.00  0.00    -0.360 A  
HETATM   37  C   UNL     1     -12.233  11.046  70.816  1.00  0.00    -0.480 A  
ENDBRANCH   8  31
ENDBRANCH   5   8
TORSDOF 10
ENDMDL
MODEL      100
REMARK 921   NORMALIZED FREE ENERGY PREDICTED BY IDOCK:   -4.41 KCAL/MOL
REMARK 922        TOTAL FREE ENERGY PREDICTED BY IDOCK:   -8.34 KCAL/MOL
REMARK 923 INTER-LIGAND FREE ENERGY PREDICTED BY IDOCK:   -7.38 KCAL/MOL
REMARK 924 INTRA-LIGAND FREE ENERGY PREDICTED BY IDOCK:   -0.96 KCAL/MOL
REMARK 927      BINDING AFFINITY PREDICTED BY RF-SCORE:    0.00 PKD
ROOT
HETATM    1  F   UNL     1      -7.512   3.706  65.765  1.00  0.00    -0.071 F  
HETATM    2  C   UNL     1      -7.780   4.892  66.327  1.00  0.00    -0.092 A  
HETATM    3  C   UNL     1      -8.954   5.056  67.053  1.00  0.00    -0.112 A  
HETATM    4  C   UNL     1      -9.252   6.300  67.615  1.00  0.00    -0.111 A  
HETATM    5  C   UNL     1      -8.374   7.390  67.458  1.00  0.00    -0.113 A  
HETATM    6  C   UNL     1      -7.174   7.183  66.750  1.00  0.00    -0.083 A  
HETATM    7  C   UNL     1      -6.882   5.940  66.179  1.00  0.00    -0.061 A  
ENDROOT
BRANCH   5   8
HETATM    8  C   UNL     1      -8.734   8.764  68.053  1.00  0.00    -0.141 C  
BRANCH   8   9
HETATM    9  N   UNL     1     -10.196   8.898  68.312  1.00  0.00    -0.195 NA 
HETATM   10  C   UNL     1     -10.917   9.661  67.244  1.00  0.00    -0.037 C  
HETATM   11  C   UNL     1     -10.834  11.216  67.294  1.00  0.00    -0.274 C  
HETATM   12  C   UNL     1     -10.518   9.544  69.614  1.00  0.00    -0.223 C  
HETATM   13  C   UNL     1     -10.316  11.074  69.667  1.00  0.00     0.043 C  
HETATM   14  N   UNL     1     -11.173  11.685  68.645  1.00  0.00    -0.227 NA 
BRANCH  14  15
HETATM   15  C   UNL     1     -11.266  13.075  68.714  1.00  0.00    -0.282 A  
HETATM   16  N   UNL     1     -10.413  13.802  68.008  1.00  0.00    -0.239 NA 
HETATM   17  C   UNL     1     -10.515  15.115  68.127  1.00  0.00    -0.245 A  
HETATM   18  N   UNL     1     -12.204  13.606  69.496  1.00  0.00    -0.302 NA 
HETATM   19  N   UNL     1     -11.372  15.723  68.932  1.00  0.00    -0.333 NA 
HETATM   20  C   UNL     1     -12.225  14.933  69.568  1.00  0.00    -0.233 A  
BRANCH  17  21
HETATM   21  N   UNL     1      -9.743  15.935  67.325  1.00  0.00    -0.222 NA 
HETATM   22  H   UNL     1      -9.355  15.603  66.442  1.00  0.00     0.000 HD 
BRANCH  21  23
HETATM   23  C   UNL     1      -9.509  17.277  67.790  1.00  0.00    -0.255 C  
BRANCH  23  24
HETATM   24  C   UNL     1      -9.278  18.107  66.566  1.00  0.00    -0.290 C  
HETATM   25  C   UNL     1      -9.649  19.388  66.423  1.00  0.00    -0.443 C  
ENDBRANCH  23  24
ENDBRANCH  21  23
ENDBRANCH  17  21
BRANCH  20  26
HETATM   26  N   UNL     1     -13.235  15.590  70.247  1.00  0.00    -0.732 NA 
HETATM   27  H   UNL     1     -13.708  16.388  69.821  1.00  0.00     0.000 HD 
BRANCH  26  28
HETATM   28  C   UNL     1     -13.613  15.136  71.562  1.00  0.00    -0.477 C  
BRANCH  28  29
HETATM   29  C   UNL     1     -12.516  15.515  72.523  1.00  0.00    -0.502 C  
HETATM   30  C   UNL     1     -12.287  14.921  73.702  1.00  0.00    -0.558 C  
ENDBRANCH  28  29
ENDBRANCH  26  28
ENDBRANCH  20  26
ENDBRANCH  14  15
ENDBRANCH   8   9
BRANCH   8  31
HETATM   31  C   UNL     1      -7.839   9.049  69.284  1.00  0.00    -0.095 A  
HETATM   32  C   UNL     1      -6.157   9.440  71.502  1.00  0.00    -0.037 A  
HETATM   33  C   UNL     1      -6.139  10.347  70.454  1.00  0.00    -0.118 A  
HETATM   34  F   UNL     1      -5.321   9.605  72.538  1.00  0.00    -0.078 F  
HETATM   35  C   UNL     1      -7.868   8.168  70.383  1.00  0.00    -0.090 A  
HETATM   36  C   UNL     1      -6.985  10.161  69.356  1.00  0.00    -0.076 A  
HETATM   37  C   UNL     1      -7.025   8.360  71.484  1.00  0.00    -0.075 A  
ENDBRANCH   8  31
ENDBRANCH   5   8
TORSDOF 10
ENDMDL
MODEL      101
REMARK 921   NORMALIZED FREE ENERGY PREDICTED BY IDOCK:   -4.36 KCAL/MOL
REMARK 922        TOTAL FREE ENERGY PREDICTED BY IDOCK:   -8.26 KCAL/MOL
REMARK 923 INTER-LIGAND FREE ENERGY PREDICTED BY IDOCK:   -9.30 KCAL/MOL
REMARK 924 INTRA-LIGAND FREE ENERGY PREDICTED BY IDOCK:    1.04 KCAL/MOL
REMARK 927      BINDING AFFINITY PREDICTED BY RF-SCORE:    0.00 PKD
ROOT
HETATM    1  F   UNL     1     -10.512   4.008  65.159  1.00  0.00    -0.213 F  
HETATM    2  C   UNL     1     -10.015   4.958  65.961  1.00  0.00    -0.223 A  
HETATM    3  C   UNL     1      -8.639   5.146  66.029  1.00  0.00    -0.124 A  
HETATM    4  C   UNL     1      -8.115   6.116  66.887  1.00  0.00    -0.109 A  
HETATM    5  C   UNL     1      -8.965   6.910  67.681  1.00  0.00    -0.116 A  
HETATM    6  C   UNL     1     -10.356   6.724  67.561  1.00  0.00    -0.267 A  
HETATM    7  C   UNL     1     -10.878   5.745  66.710  1.00  0.00    -0.327 A  
ENDROOT
BRANCH   5   8
HETATM    8  C   UNL     1      -8.369   7.950  68.647  1.00  0.00    -0.128 C  
BRANCH   8   9
HETATM    9  N   UNL     1      -7.689   9.063  67.925  1.00  0.00    -0.096 NA 
HETATM   10  C   UNL     1      -7.544  10.303  68.754  1.00  0.00    -0.093 C  
HETATM   11  C   UNL     1      -8.789  11.232  68.877  1.00  0.00    -0.047 C  
HETATM   12  C   UNL     1      -8.362   9.454  66.656  1.00  0.00    -0.119 C  
HETATM   13  C   UNL     1      -9.658  10.279  66.814  1.00  0.00    -0.172 C  
HETATM   14  N   UNL     1      -9.330  11.511  67.540  1.00  0.00    -0.164 NA 
BRANCH  14  15
HETATM   15  C   UNL     1     -10.352  12.461  67.571  1.00  0.00    -0.215 A  
HETATM   16  N   UNL     1     -11.063  12.660  66.472  1.00  0.00    -0.270 NA 
HETATM   17  C   UNL     1     -12.001  13.591  66.535  1.00  0.00    -0.413 A  
HETATM   18  N   UNL     1     -10.558  13.129  68.704  1.00  0.00    -0.252 NA 
HETATM   19  N   UNL     1     -12.226  14.347  67.597  1.00  0.00    -0.269 NA 
HETATM   20  C   UNL     1     -11.509  14.057  68.674  1.00  0.00    -0.302 A  
BRANCH  17  21
HETATM   21  N   UNL     1     -12.862  13.765  65.467  1.00  0.00    -0.652 NA 
HETATM   22  H   UNL     1     -13.850  13.522  65.537  1.00  0.00     0.000 HD 
BRANCH  21  23
HETATM   23  C   UNL     1     -12.305  14.303  64.254  1.00  0.00    -0.377 C  
BRANCH  23  24
HETATM   24  C   UNL     1     -12.392  13.210  63.235  1.00  0.00    -0.366 C  
HETATM   25  C   UNL     1     -12.350  11.898  63.508  1.00  0.00    -0.603 C  
ENDBRANCH  23  24
ENDBRANCH  21  23
ENDBRANCH  17  21
BRANCH  20  26
HETATM   26  N   UNL     1     -11.892  14.717  69.826  1.00  0.00    -0.298 NA 
HETATM   27  H   UNL     1     -11.589  15.677  69.995  1.00  0.00     0.000 HD 
BRANCH  26  28
HETATM   28  C   UNL     1     -12.723  14.036  70.788  1.00  0.00    -0.326 C  
BRANCH  28  29
HETATM   29  C   UNL     1     -13.742  15.018  71.306  1.00  0.00    -0.523 C  
HETATM   30  C   UNL     1     -13.974  15.273  72.602  1.00  0.00    -0.555 C  
ENDBRANCH  28  29
ENDBRANCH  26  28
ENDBRANCH  20  26
ENDBRANCH  14  15
ENDBRANCH   8   9
BRANCH   8  31
HETATM   31  C   UNL     1      -9.455   8.410  69.651  1.00  0.00    -0.166 A  
HETATM   32  C   UNL     1     -11.340   9.348  71.514  1.00  0.00    -0.394 A  
HETATM   33  C   UNL     1     -11.688   9.235  70.177  1.00  0.00    -0.008 A  
HETATM   34  F   UNL     1     -12.227   9.838  72.393  1.00  0.00    -0.335 F  
HETATM   35  C   UNL     1      -9.142   8.494  71.022  1.00  0.00    -0.221 A  
HETATM   36  C   UNL     1     -10.756   8.755  69.252  1.00  0.00    -0.166 A  
HETATM   37  C   UNL     1     -10.080   8.967  71.948  1.00  0.00    -0.393 A  
ENDBRANCH   8  31
ENDBRANCH   5   8
TORSDOF 10
ENDMDL
MODEL      102
REMARK 921   NORMALIZED FREE ENERGY PREDICTED BY IDOCK:   -4.36 KCAL/MOL
REMARK 922        TOTAL FREE ENERGY PREDICTED BY IDOCK:   -8.25 KCAL/MOL
REMARK 923 INTER-LIGAND FREE ENERGY PREDICTED BY IDOCK:   -8.65 KCAL/MOL
REMARK 924 INTRA-LIGAND FREE ENERGY PREDICTED BY IDOCK:    0.40 KCAL/MOL
REMARK 927      BINDING AFFINITY PREDICTED BY RF-SCORE:    0.00 PKD
ROOT
HETATM    1  F   UNL     1      -8.890  18.592  65.921  1.00  0.00    -0.224 F  
HETATM    2  C   UNL     1      -9.210  17.313  66.158  1.00  0.00    -0.162 A  
HETATM    3  C   UNL     1      -8.210  16.407  66.490  1.00  0.00    -0.341 A  
HETATM    4  C   UNL     1      -8.536  15.065  66.708  1.00  0.00    -0.239 A  
HETATM    5  C   UNL     1      -9.868  14.622  66.600  1.00  0.00    -0.280 A  
HETATM    6  C   UNL     1     -10.865  15.571  66.302  1.00  0.00    -0.283 A  
HETATM    7  C   UNL     1     -10.535  16.911  66.073  1.00  0.00    -0.297 A  
ENDROOT
BRANCH   5   8
HETATM    8  C   UNL     1     -10.205  13.134  66.809  1.00  0.00    -0.252 C  
BRANCH   8   9
HETATM    9  N   UNL     1      -9.019  12.255  66.604  1.00  0.00    -0.205 NA 
HETATM   10  C   UNL     1      -9.229  11.219  65.542  1.00  0.00    -0.202 C  
HETATM   11  C   UNL     1     -10.025   9.940  65.938  1.00  0.00    -0.277 C  
HETATM   12  C   UNL     1      -8.578  11.545  67.836  1.00  0.00    -0.143 C  
HETATM   13  C   UNL     1      -9.455  10.349  68.267  1.00  0.00    -0.148 C  
HETATM   14  N   UNL     1      -9.466   9.372  67.172  1.00  0.00    -0.141 NA 
BRANCH  14  15
HETATM   15  C   UNL     1     -10.037   8.140  67.494  1.00  0.00    -0.224 A  
HETATM   16  N   UNL     1     -10.571   7.986  68.697  1.00  0.00    -0.158 NA 
HETATM   17  C   UNL     1     -11.072   6.793  68.972  1.00  0.00    -0.197 A  
HETATM   18  N   UNL     1     -10.010   7.175  66.578  1.00  0.00    -0.151 NA 
HETATM   19  N   UNL     1     -11.026   5.760  68.147  1.00  0.00    -0.171 NA 
HETATM   20  C   UNL     1     -10.522   6.004  66.945  1.00  0.00    -0.280 A  
BRANCH  17  21
HETATM   21  N   UNL     1     -11.755   6.598  70.158  1.00  0.00    -0.571 NA 
HETATM   22  H   UNL     1     -12.597   6.025  70.198  1.00  0.00     0.000 HD 
BRANCH  21  23
HETATM   23  C   UNL     1     -11.226   7.238  71.334  1.00  0.00    -0.248 C  
BRANCH  23  24
HETATM   24  C   UNL     1     -10.724   6.140  72.217  1.00  0.00    -0.268 C  
HETATM   25  C   UNL     1     -11.495   5.355  72.984  1.00  0.00    -0.324 C  
ENDBRANCH  23  24
ENDBRANCH  21  23
ENDBRANCH  17  21
BRANCH  20  26
HETATM   26  N   UNL     1     -10.661   4.975  66.033  1.00  0.00    -0.616 NA 
HETATM   27  H   UNL     1     -11.442   4.970  65.376  1.00  0.00     0.000 HD 
BRANCH  26  28
HETATM   28  C   UNL     1      -9.692   3.907  66.019  1.00  0.00    -0.162 C  
BRANCH  28  29
HETATM   29  C   UNL     1      -9.159   3.775  64.616  1.00  0.00    -0.138 C  
HETATM   30  C   UNL     1      -9.865   3.341  63.563  1.00  0.00    -0.144 C  
ENDBRANCH  28  29
ENDBRANCH  26  28
ENDBRANCH  20  26
ENDBRANCH  14  15
ENDBRANCH   8   9
BRANCH   8  31
HETATM   31  C   UNL     1     -10.910  12.946  68.175  1.00  0.00    -0.257 A  
HETATM   32  C   UNL     1     -12.257  12.726  70.633  1.00  0.00    -0.288 A  
HETATM   33  C   UNL     1     -12.361  11.710  69.695  1.00  0.00    -0.172 A  
HETATM   34  F   UNL     1     -12.936  12.639  71.786  1.00  0.00    -0.454 F  
HETATM   35  C   UNL     1     -10.787  13.942  69.162  1.00  0.00    -0.220 A  
HETATM   36  C   UNL     1     -11.681  11.812  68.478  1.00  0.00    -0.390 A  
HETATM   37  C   UNL     1     -11.463  13.835  70.384  1.00  0.00    -0.023 A  
ENDBRANCH   8  31
ENDBRANCH   5   8
TORSDOF 10
ENDMDL
MODEL      103
REMARK 921   NORMALIZED FREE ENERGY PREDICTED BY IDOCK:   -4.35 KCAL/MOL
REMARK 922        TOTAL FREE ENERGY PREDICTED BY IDOCK:   -8.24 KCAL/MOL
REMARK 923 INTER-LIGAND FREE ENERGY PREDICTED BY IDOCK:   -7.15 KCAL/MOL
REMARK 924 INTRA-LIGAND FREE ENERGY PREDICTED BY IDOCK:   -1.09 KCAL/MOL
REMARK 927      BINDING AFFINITY PREDICTED BY RF-SCORE:    0.00 PKD
ROOT
HETATM    1  F   UNL     1     -12.098  16.413  71.210  1.00  0.00    -0.433 F  
HETATM    2  C   UNL     1     -11.710  15.353  70.490  1.00  0.00    -0.325 A  
HETATM    3  C   UNL     1     -10.675  15.489  69.573  1.00  0.00    -0.272 A  
HETATM    4  C   UNL     1     -10.287  14.392  68.798  1.00  0.00    -0.241 A  
HETATM    5  C   UNL     1     -10.932  13.148  68.939  1.00  0.00    -0.270 A  
HETATM    6  C   UNL     1     -11.951  13.030  69.904  1.00  0.00    -0.381 A  
HETATM    7  C   UNL     1     -12.344  14.132  70.671  1.00  0.00    -0.435 A  
ENDROOT
BRANCH   5   8
HETATM    8  C   UNL     1     -10.517  11.959  68.053  1.00  0.00    -0.208 C  
BRANCH   8   9
HETATM    9  N   UNL     1     -11.019  10.660  68.586  1.00  0.00    -0.227 NA 
HETATM   10  C   UNL     1     -10.434  10.303  69.919  1.00  0.00    -0.256 C  
HETATM   11  C   UNL     1      -9.007   9.680  69.930  1.00  0.00    -0.221 C  
HETATM   12  C   UNL     1     -10.784   9.506  67.675  1.00  0.00    -0.250 C  
HETATM   13  C   UNL     1      -9.331   8.983  67.622  1.00  0.00    -0.136 C  
HETATM   14  N   UNL     1      -8.946   8.566  68.975  1.00  0.00    -0.145 NA 
BRANCH  14  15
HETATM   15  C   UNL     1      -7.740   7.869  69.051  1.00  0.00    -0.101 A  
HETATM   16  N   UNL     1      -7.138   7.523  67.923  1.00  0.00    -0.082 NA 
HETATM   17  C   UNL     1      -6.013   6.836  68.039  1.00  0.00    -0.031 A  
HETATM   18  N   UNL     1      -7.255   7.577  70.256  1.00  0.00    -0.063 NA 
HETATM   19  N   UNL     1      -5.498   6.446  69.194  1.00  0.00    -0.012 NA 
HETATM   20  C   UNL     1      -6.128   6.871  70.279  1.00  0.00    -0.024 A  
BRANCH  17  21
HETATM   21  N   UNL     1      -5.269   6.551  66.910  1.00  0.00    -0.012 NA 
HETATM   22  H   UNL     1      -4.352   6.108  66.975  1.00  0.00     0.000 HD 
BRANCH  21  23
HETATM   23  C   UNL     1      -5.841   6.907  65.638  1.00  0.00    -0.035 C  
BRANCH  23  24
HETATM   24  C   UNL     1      -5.281   5.939  64.644  1.00  0.00    -0.013 C  
HETATM   25  C   UNL     1      -5.849   5.625  63.470  1.00  0.00    -0.018 C  
ENDBRANCH  23  24
ENDBRANCH  21  23
ENDBRANCH  17  21
BRANCH  20  26
HETATM   26  N   UNL     1      -5.472   6.625  71.471  1.00  0.00    -0.027 NA 
HETATM   27  H   UNL     1      -4.972   5.746  71.612  1.00  0.00     0.000 HD 
BRANCH  26  28
HETATM   28  C   UNL     1      -5.500   7.622  72.512  1.00  0.00    -0.036 C  
BRANCH  28  29
HETATM   29  C   UNL     1      -6.675   7.330  73.409  1.00  0.00    -0.065 C  
HETATM   30  C   UNL     1      -7.224   8.203  74.266  1.00  0.00    -0.215 C  
ENDBRANCH  28  29
ENDBRANCH  26  28
ENDBRANCH  20  26
ENDBRANCH  14  15
ENDBRANCH   8   9
BRANCH   8  31
HETATM   31  C   UNL     1     -10.914  12.241  66.583  1.00  0.00    -0.321 A  
HETATM   32  C   UNL     1     -11.686  12.875  63.955  1.00  0.00    -0.434 A  
HETATM   33  C   UNL     1     -10.361  12.580  64.233  1.00  0.00    -0.396 A  
HETATM   34  F   UNL     1     -12.044  13.222  62.710  1.00  0.00    -0.499 F  
HETATM   35  C   UNL     1     -12.260  12.502  66.265  1.00  0.00    -0.159 A  
HETATM   36  C   UNL     1      -9.977  12.250  65.536  1.00  0.00    -0.264 A  
HETATM   37  C   UNL     1     -12.643  12.824  64.957  1.00  0.00    -0.538 A  
ENDBRANCH   8  31
ENDBRANCH   5   8
TORSDOF 10
ENDMDL
MODEL      104
REMARK 921   NORMALIZED FREE ENERGY PREDICTED BY IDOCK:   -4.34 KCAL/MOL
REMARK 922        TOTAL FREE ENERGY PREDICTED BY IDOCK:   -8.23 KCAL/MOL
REMARK 923 INTER-LIGAND FREE ENERGY PREDICTED BY IDOCK:   -7.34 KCAL/MOL
REMARK 924 INTRA-LIGAND FREE ENERGY PREDICTED BY IDOCK:   -0.89 KCAL/MOL
REMARK 927      BINDING AFFINITY PREDICTED BY RF-SCORE:    0.00 PKD
ROOT
HETATM    1  F   UNL     1      -5.826   8.562  63.273  1.00  0.00    -0.072 F  
HETATM    2  C   UNL     1      -6.794   9.113  64.017  1.00  0.00    -0.089 A  
HETATM    3  C   UNL     1      -6.566  10.331  64.646  1.00  0.00    -0.092 A  
HETATM    4  C   UNL     1      -7.562  10.894  65.448  1.00  0.00     0.132 A  
HETATM    5  C   UNL     1      -8.799  10.243  65.622  1.00  0.00    -0.186 A  
HETATM    6  C   UNL     1      -9.016   9.029  64.941  1.00  0.00    -0.170 A  
HETATM    7  C   UNL     1      -8.013   8.462  64.147  1.00  0.00    -0.151 A  
ENDROOT
BRANCH   5   8
HETATM    8  C   UNL     1      -9.873  10.859  66.537  1.00  0.00    -0.204 C  
BRANCH   8   9
HETATM    9  N   UNL     1      -9.346  11.163  67.897  1.00  0.00    -0.157 NA 
HETATM   10  C   UNL     1      -8.252  10.233  68.328  1.00  0.00    -0.115 C  
HETATM   11  C   UNL     1      -8.673   8.838  68.876  1.00  0.00    -0.134 C  
HETATM   12  C   UNL     1     -10.386  11.148  68.962  1.00  0.00    -0.194 C  
HETATM   13  C   UNL     1     -10.866   9.749  69.405  1.00  0.00    -0.232 C  
HETATM   14  N   UNL     1      -9.706   9.004  69.908  1.00  0.00    -0.176 NA 
BRANCH  14  15
HETATM   15  C   UNL     1     -10.015   7.802  70.546  1.00  0.00    -0.187 A  
HETATM   16  N   UNL     1      -9.929   6.677  69.852  1.00  0.00    -0.170 NA 
HETATM   17  C   UNL     1     -10.261   5.565  70.486  1.00  0.00    -0.242 A  
HETATM   18  N   UNL     1     -10.389   7.845  71.823  1.00  0.00    -0.202 NA 
HETATM   19  N   UNL     1     -10.708   5.525  71.731  1.00  0.00    -0.235 NA 
HETATM   20  C   UNL     1     -10.720   6.682  72.377  1.00  0.00    -0.223 A  
BRANCH  17  21
HETATM   21  N   UNL     1     -10.076   4.345  69.863  1.00  0.00    -0.164 NA 
HETATM   22  H   UNL     1     -10.755   3.590  69.959  1.00  0.00     0.000 HD 
BRANCH  21  23
HETATM   23  C   UNL     1      -8.883   4.184  69.074  1.00  0.00    -0.098 C  
BRANCH  23  24
HETATM   24  C   UNL     1      -9.335   4.074  67.652  1.00  0.00    -0.222 C  
HETATM   25  C   UNL     1      -8.828   3.226  66.745  1.00  0.00    -0.150 C  
ENDBRANCH  23  24
ENDBRANCH  21  23
ENDBRANCH  17  21
BRANCH  20  26
HETATM   26  N   UNL     1     -10.998   6.594  73.728  1.00  0.00    -0.456 NA 
HETATM   27  H   UNL     1     -11.768   7.129  74.131  1.00  0.00     0.000 HD 
BRANCH  26  28
HETATM   28  C   UNL     1     -10.189   5.740  74.562  1.00  0.00    -0.270 C  
BRANCH  28  29
HETATM   29  C   UNL     1      -8.743   6.089  74.327  1.00  0.00    -0.127 C  
HETATM   30  C   UNL     1      -8.208   7.307  74.495  1.00  0.00    -0.216 C  
ENDBRANCH  28  29
ENDBRANCH  26  28
ENDBRANCH  20  26
ENDBRANCH  14  15
ENDBRANCH   8   9
BRANCH   8  31
HETATM   31  C   UNL     1     -10.535  12.065  65.825  1.00  0.00    -0.290 A  
HETATM   32  C   UNL     1     -11.608  14.306  64.510  1.00  0.00    -0.387 A  
HETATM   33  C   UNL     1     -11.915  13.030  64.062  1.00  0.00    -0.523 A  
HETATM   34  F   UNL     1     -12.085  15.373  63.853  1.00  0.00    -0.364 F  
HETATM   35  C   UNL     1     -10.276  13.370  66.285  1.00  0.00    -0.298 A  
HETATM   36  C   UNL     1     -11.393  11.914  64.724  1.00  0.00    -0.344 A  
HETATM   37  C   UNL     1     -10.806  14.486  65.626  1.00  0.00    -0.329 A  
ENDBRANCH   8  31
ENDBRANCH   5   8
TORSDOF 10
ENDMDL
MODEL      105
REMARK 921   NORMALIZED FREE ENERGY PREDICTED BY IDOCK:   -4.30 KCAL/MOL
REMARK 922        TOTAL FREE ENERGY PREDICTED BY IDOCK:   -8.15 KCAL/MOL
REMARK 923 INTER-LIGAND FREE ENERGY PREDICTED BY IDOCK:   -8.08 KCAL/MOL
REMARK 924 INTRA-LIGAND FREE ENERGY PREDICTED BY IDOCK:   -0.08 KCAL/MOL
REMARK 927      BINDING AFFINITY PREDICTED BY RF-SCORE:    0.00 PKD
ROOT
HETATM    1  F   UNL     1     -11.640  12.771  63.024  1.00  0.00    -0.538 F  
HETATM    2  C   UNL     1     -11.415  12.195  64.213  1.00  0.00    -0.367 A  
HETATM    3  C   UNL     1     -12.019  12.716  65.351  1.00  0.00    -0.496 A  
HETATM    4  C   UNL     1     -11.764  12.137  66.597  1.00  0.00    -0.385 A  
HETATM    5  C   UNL     1     -10.904  11.027  66.712  1.00  0.00    -0.307 A  
HETATM    6  C   UNL     1     -10.338  10.497  65.536  1.00  0.00    -0.287 A  
HETATM    7  C   UNL     1     -10.586  11.085  64.292  1.00  0.00    -0.402 A  
ENDROOT
BRANCH   5   8
HETATM    8  C   UNL     1     -10.604  10.423  68.096  1.00  0.00    -0.211 C  
BRANCH   8   9
HETATM    9  N   UNL     1      -9.141  10.271  68.338  1.00  0.00    -0.132 NA 
HETATM   10  C   UNL     1      -8.575   9.010  67.761  1.00  0.00    -0.121 C  
HETATM   11  C   UNL     1      -8.778   7.697  68.573  1.00  0.00    -0.128 C  
HETATM   12  C   UNL     1      -8.764  10.309  69.778  1.00  0.00    -0.044 C  
HETATM   13  C   UNL     1      -9.083   9.031  70.584  1.00  0.00    -0.235 C  
HETATM   14  N   UNL     1      -8.365   7.910  69.967  1.00  0.00    -0.120 NA 
BRANCH  14  15
HETATM   15  C   UNL     1      -8.378   6.728  70.709  1.00  0.00    -0.128 A  
HETATM   16  N   UNL     1      -9.148   6.665  71.785  1.00  0.00    -0.145 NA 
HETATM   17  C   UNL     1      -9.106   5.539  72.477  1.00  0.00    -0.136 A  
HETATM   18  N   UNL     1      -7.608   5.720  70.303  1.00  0.00    -0.087 NA 
HETATM   19  N   UNL     1      -8.319   4.516  72.184  1.00  0.00    -0.108 NA 
HETATM   20  C   UNL     1      -7.616   4.632  71.067  1.00  0.00    -0.072 A  
BRANCH  17  21
HETATM   21  N   UNL     1      -9.975   5.358  73.537  1.00  0.00    -0.167 NA 
HETATM   22  H   UNL     1      -9.759   5.714  74.469  1.00  0.00     0.000 HD 
BRANCH  21  23
HETATM   23  C   UNL     1     -11.197   4.645  73.271  1.00  0.00    -0.325 C  
BRANCH  23  24
HETATM   24  C   UNL     1     -11.044   3.302  73.914  1.00  0.00    -0.223 C  
HETATM   25  C   UNL     1     -10.910   2.143  73.253  1.00  0.00    -0.277 C  
ENDBRANCH  23  24
ENDBRANCH  21  23
ENDBRANCH  17  21
BRANCH  20  26
HETATM   26  N   UNL     1      -6.955   3.484  70.671  1.00  0.00    -0.033 NA 
HETATM   27  H   UNL     1      -6.242   3.067  71.270  1.00  0.00     0.000 HD 
BRANCH  26  28
HETATM   28  C   UNL     1      -7.282   2.883  69.402  1.00  0.00    -0.044 C  
BRANCH  28  29
HETATM   29  C   UNL     1      -6.024   2.813  68.577  1.00  0.00    -0.024 C  
HETATM   30  C   UNL     1      -5.546   1.704  67.996  1.00  0.00    -0.018 C  
ENDBRANCH  28  29
ENDBRANCH  26  28
ENDBRANCH  20  26
ENDBRANCH  14  15
ENDBRANCH   8   9
BRANCH   8  31
HETATM   31  C   UNL     1     -11.352  11.227  69.189  1.00  0.00    -0.349 A  
HETATM   32  C   UNL     1     -12.772  12.759  71.071  1.00  0.00    -0.243 A  
HETATM   33  C   UNL     1     -12.874  11.376  71.088  1.00  0.00    -0.440 A  
HETATM   34  F   UNL     1     -13.486  13.489  71.940  1.00  0.00    -0.422 F  
HETATM   35  C   UNL     1     -11.233  12.630  69.222  1.00  0.00    -0.255 A  
HETATM   36  C   UNL     1     -12.157  10.612  70.161  1.00  0.00    -0.414 A  
HETATM   37  C   UNL     1     -11.945  13.392  70.156  1.00  0.00    -0.396 A  
ENDBRANCH   8  31
ENDBRANCH   5   8
TORSDOF 10
ENDMDL
MODEL      106
REMARK 921   NORMALIZED FREE ENERGY PREDICTED BY IDOCK:   -4.28 KCAL/MOL
REMARK 922        TOTAL FREE ENERGY PREDICTED BY IDOCK:   -8.13 KCAL/MOL
REMARK 923 INTER-LIGAND FREE ENERGY PREDICTED BY IDOCK:   -8.17 KCAL/MOL
REMARK 924 INTRA-LIGAND FREE ENERGY PREDICTED BY IDOCK:    0.04 KCAL/MOL
REMARK 927      BINDING AFFINITY PREDICTED BY RF-SCORE:    0.00 PKD
ROOT
HETATM    1  F   UNL     1      -9.567   5.500  65.489  1.00  0.00    -0.148 F  
HETATM    2  C   UNL     1      -9.515   5.778  66.798  1.00  0.00    -0.143 A  
HETATM    3  C   UNL     1      -8.370   6.360  67.330  1.00  0.00    -0.112 A  
HETATM    4  C   UNL     1      -8.300   6.624  68.700  1.00  0.00    -0.123 A  
HETATM    5  C   UNL     1      -9.378   6.310  69.550  1.00  0.00    -0.147 A  
HETATM    6  C   UNL     1     -10.540   5.757  68.977  1.00  0.00    -0.351 A  
HETATM    7  C   UNL     1     -10.604   5.484  67.606  1.00  0.00    -0.239 A  
ENDROOT
BRANCH   5   8
HETATM    8  C   UNL     1      -9.272   6.574  71.063  1.00  0.00    -0.160 C  
BRANCH   8   9
HETATM    9  N   UNL     1      -9.949   7.841  71.461  1.00  0.00    -0.170 NA 
HETATM   10  C   UNL     1     -11.105   8.195  70.576  1.00  0.00    -0.253 C  
HETATM   11  C   UNL     1     -10.781   8.875  69.213  1.00  0.00    -0.162 C  
HETATM   12  C   UNL     1      -9.042   9.021  71.499  1.00  0.00    -0.161 C  
HETATM   13  C   UNL     1      -8.647   9.603  70.125  1.00  0.00    -0.214 C  
HETATM   14  N   UNL     1      -9.874  10.010  69.430  1.00  0.00    -0.211 NA 
BRANCH  14  15
HETATM   15  C   UNL     1      -9.668  10.754  68.267  1.00  0.00    -0.164 A  
HETATM   16  N   UNL     1      -8.972  11.877  68.351  1.00  0.00    -0.182 NA 
HETATM   17  C   UNL     1      -8.828  12.568  67.232  1.00  0.00    -0.195 A  
HETATM   18  N   UNL     1     -10.189  10.301  67.129  1.00  0.00    -0.213 NA 
HETATM   19  N   UNL     1      -9.370  12.226  66.074  1.00  0.00    -0.190 NA 
HETATM   20  C   UNL     1     -10.010  11.065  66.057  1.00  0.00    -0.237 A  
BRANCH  17  21
HETATM   21  N   UNL     1      -8.011  13.683  67.219  1.00  0.00    -0.305 NA 
HETATM   22  H   UNL     1      -7.177  13.724  66.633  1.00  0.00     0.000 HD 
BRANCH  21  23
HETATM   23  C   UNL     1      -8.388  14.783  68.067  1.00  0.00    -0.143 C  
BRANCH  23  24
HETATM   24  C   UNL     1      -9.249  15.677  67.232  1.00  0.00    -0.214 C  
HETATM   25  C   UNL     1      -8.960  16.082  65.987  1.00  0.00    -0.345 C  
ENDBRANCH  23  24
ENDBRANCH  21  23
ENDBRANCH  17  21
BRANCH  20  26
HETATM   26  N   UNL     1     -10.397  10.629  64.803  1.00  0.00    -0.327 NA 
HETATM   27  H   UNL     1     -10.647   9.651  64.652  1.00  0.00     0.000 HD 
BRANCH  26  28
HETATM   28  C   UNL     1     -10.443  11.570  63.711  1.00  0.00    -0.405 C  
BRANCH  28  29
HETATM   29  C   UNL     1     -11.845  12.114  63.619  1.00  0.00    -0.608 C  
HETATM   30  C   UNL     1     -12.162  13.414  63.532  1.00  0.00    -0.468 C  
ENDBRANCH  28  29
ENDBRANCH  26  28
ENDBRANCH  20  26
ENDBRANCH  14  15
ENDBRANCH   8   9
BRANCH   8  31
HETATM   31  C   UNL     1      -9.746   5.324  71.845  1.00  0.00    -0.204 A  
HETATM   32  C   UNL     1     -10.475   3.035  73.306  1.00  0.00    -0.161 A  
HETATM   33  C   UNL     1     -11.096   4.247  73.565  1.00  0.00    -0.377 A  
HETATM   34  F   UNL     1     -10.792   1.956  74.035  1.00  0.00    -0.169 F  
HETATM   35  C   UNL     1      -9.162   4.072  71.572  1.00  0.00    -0.190 A  
HETATM   36  C   UNL     1     -10.745   5.383  72.830  1.00  0.00    -0.293 A  
HETATM   37  C   UNL     1      -9.521   2.934  72.304  1.00  0.00    -0.184 A  
ENDBRANCH   8  31
ENDBRANCH   5   8
TORSDOF 10
ENDMDL
MODEL      107
REMARK 921   NORMALIZED FREE ENERGY PREDICTED BY IDOCK:   -4.28 KCAL/MOL
REMARK 922        TOTAL FREE ENERGY PREDICTED BY IDOCK:   -8.13 KCAL/MOL
REMARK 923 INTER-LIGAND FREE ENERGY PREDICTED BY IDOCK:   -6.79 KCAL/MOL
REMARK 924 INTRA-LIGAND FREE ENERGY PREDICTED BY IDOCK:   -1.34 KCAL/MOL
REMARK 927      BINDING AFFINITY PREDICTED BY RF-SCORE:    0.00 PKD
ROOT
HETATM    1  F   UNL     1      -5.893  15.528  68.820  1.00  0.00    -0.092 F  
HETATM    2  C   UNL     1      -6.683  14.513  68.449  1.00  0.00    -0.105 A  
HETATM    3  C   UNL     1      -8.051  14.588  68.684  1.00  0.00    -0.150 A  
HETATM    4  C   UNL     1      -8.875  13.518  68.325  1.00  0.00    -0.179 A  
HETATM    5  C   UNL     1      -8.335  12.364  67.724  1.00  0.00    -0.164 A  
HETATM    6  C   UNL     1      -6.951  12.333  67.462  1.00  0.00    -0.142 A  
HETATM    7  C   UNL     1      -6.127  13.401  67.832  1.00  0.00    -0.146 A  
ENDROOT
BRANCH   5   8
HETATM    8  C   UNL     1      -9.251  11.179  67.368  1.00  0.00    -0.153 C  
BRANCH   8   9
HETATM    9  N   UNL     1      -9.978  10.653  68.558  1.00  0.00    -0.160 NA 
HETATM   10  C   UNL     1      -9.095   9.894  69.501  1.00  0.00    -0.223 C  
HETATM   11  C   UNL     1      -8.760   8.418  69.137  1.00  0.00    -0.142 C  
HETATM   12  C   UNL     1     -11.127   9.770  68.218  1.00  0.00    -0.102 C  
HETATM   13  C   UNL     1     -10.757   8.345  67.750  1.00  0.00    -0.095 C  
HETATM   14  N   UNL     1      -9.999   7.693  68.824  1.00  0.00    -0.169 NA 
BRANCH  14  15
HETATM   15  C   UNL     1      -9.781   6.327  68.639  1.00  0.00    -0.127 A  
HETATM   16  N   UNL     1      -9.482   5.893  67.424  1.00  0.00    -0.111 NA 
HETATM   17  C   UNL     1      -9.315   4.588  67.286  1.00  0.00    -0.147 A  
HETATM   18  N   UNL     1      -9.893   5.523  69.694  1.00  0.00    -0.176 NA 
HETATM   19  N   UNL     1      -9.474   3.712  68.266  1.00  0.00    -0.172 NA 
HETATM   20  C   UNL     1      -9.724   4.225  69.462  1.00  0.00    -0.201 A  
BRANCH  17  21
HETATM   21  N   UNL     1      -8.880   4.080  66.077  1.00  0.00    -0.116 NA 
HETATM   22  H   UNL     1      -8.562   3.115  65.989  1.00  0.00     0.000 HD 
BRANCH  21  23
HETATM   23  C   UNL     1      -8.894   4.972  64.946  1.00  0.00    -0.140 C  
BRANCH  23  24
HETATM   24  C   UNL     1      -9.159   4.118  63.746  1.00  0.00    -0.140 C  
HETATM   25  C   UNL     1     -10.179   3.257  63.624  1.00  0.00    -0.204 C  
ENDBRANCH  23  24
ENDBRANCH  21  23
ENDBRANCH  17  21
BRANCH  20  26
HETATM   26  N   UNL     1      -9.691   3.318  70.505  1.00  0.00    -0.138 NA 
HETATM   27  H   UNL     1     -10.398   3.351  71.240  1.00  0.00     0.000 HD 
BRANCH  26  28
HETATM   28  C   UNL     1      -8.646   2.324  70.544  1.00  0.00    -0.053 C  
BRANCH  28  29
HETATM   29  C   UNL     1      -7.586   2.795  71.505  1.00  0.00    -0.041 C  
HETATM   30  C   UNL     1      -7.823   3.439  72.656  1.00  0.00    -0.067 C  
ENDBRANCH  28  29
ENDBRANCH  26  28
ENDBRANCH  20  26
ENDBRANCH  14  15
ENDBRANCH   8   9
BRANCH   8  31
HETATM   31  C   UNL     1     -10.167  11.567  66.181  1.00  0.00    -0.272 A  
HETATM   32  C   UNL     1     -11.852  12.136  64.003  1.00  0.00    -0.434 A  
HETATM   33  C   UNL     1     -12.135  12.667  65.252  1.00  0.00    -0.519 A  
HETATM   34  F   UNL     1     -12.681  12.372  62.976  1.00  0.00    -0.526 F  
HETATM   35  C   UNL     1      -9.879  11.078  64.892  1.00  0.00    -0.327 A  
HETATM   36  C   UNL     1     -11.291  12.396  66.333  1.00  0.00    -0.392 A  
HETATM   37  C   UNL     1     -10.721  11.357  63.809  1.00  0.00    -0.470 A  
ENDBRANCH   8  31
ENDBRANCH   5   8
TORSDOF 10
ENDMDL
MODEL      108
REMARK 921   NORMALIZED FREE ENERGY PREDICTED BY IDOCK:   -4.26 KCAL/MOL
REMARK 922        TOTAL FREE ENERGY PREDICTED BY IDOCK:   -8.09 KCAL/MOL
REMARK 923 INTER-LIGAND FREE ENERGY PREDICTED BY IDOCK:   -7.37 KCAL/MOL
REMARK 924 INTRA-LIGAND FREE ENERGY PREDICTED BY IDOCK:   -0.72 KCAL/MOL
REMARK 927      BINDING AFFINITY PREDICTED BY RF-SCORE:    0.00 PKD
ROOT
HETATM    1  F   UNL     1     -12.007   9.255  71.980  1.00  0.00    -0.409 F  
HETATM    2  C   UNL     1     -11.326   9.825  70.978  1.00  0.00    -0.387 A  
HETATM    3  C   UNL     1     -11.940  10.796  70.197  1.00  0.00    -0.432 A  
HETATM    4  C   UNL     1     -11.243  11.371  69.131  1.00  0.00    -0.335 A  
HETATM    5  C   UNL     1      -9.921  10.980  68.841  1.00  0.00    -0.201 A  
HETATM    6  C   UNL     1      -9.311  10.022  69.674  1.00  0.00    -0.242 A  
HETATM    7  C   UNL     1     -10.015   9.440  70.734  1.00  0.00    -0.358 A  
ENDROOT
BRANCH   5   8
HETATM    8  C   UNL     1      -9.178  11.597  67.642  1.00  0.00    -0.178 C  
BRANCH   8   9
HETATM    9  N   UNL     1      -9.466  10.873  66.371  1.00  0.00    -0.182 NA 
HETATM   10  C   UNL     1     -10.718  10.052  66.429  1.00  0.00     0.007 C  
HETATM   11  C   UNL     1     -10.630   8.661  67.123  1.00  0.00    -0.234 C  
HETATM   12  C   UNL     1      -8.365   9.973  65.930  1.00  0.00    -0.127 C  
HETATM   13  C   UNL     1      -8.232   8.649  66.714  1.00  0.00    -0.108 C  
HETATM   14  N   UNL     1      -9.491   7.909  66.579  1.00  0.00    -0.208 NA 
BRANCH  14  15
HETATM   15  C   UNL     1      -9.451   6.596  67.050  1.00  0.00    -0.144 A  
HETATM   16  N   UNL     1      -9.690   5.611  66.197  1.00  0.00    -0.134 NA 
HETATM   17  C   UNL     1      -9.673   4.384  66.691  1.00  0.00    -0.215 A  
HETATM   18  N   UNL     1      -9.181   6.396  68.338  1.00  0.00    -0.121 NA 
HETATM   19  N   UNL     1      -9.482   4.101  67.970  1.00  0.00    -0.162 NA 
HETATM   20  C   UNL     1      -9.200   5.133  68.752  1.00  0.00    -0.119 A  
BRANCH  17  21
HETATM   21  N   UNL     1      -9.790   3.303  65.837  1.00  0.00    -0.399 NA 
HETATM   22  H   UNL     1     -10.392   2.511  66.061  1.00  0.00     0.000 HD 
BRANCH  21  23
HETATM   23  C   UNL     1      -9.025   3.344  64.618  1.00  0.00    -0.127 C  
BRANCH  23  24
HETATM   24  C   UNL     1      -7.879   2.402  64.813  1.00  0.00    -0.074 C  
HETATM   25  C   UNL     1      -6.630   2.607  64.370  1.00  0.00    -0.031 C  
ENDBRANCH  23  24
ENDBRANCH  21  23
ENDBRANCH  17  21
BRANCH  20  26
HETATM   26  N   UNL     1      -8.810   4.803  70.037  1.00  0.00    -0.085 NA 
HETATM   27  H   UNL     1      -7.827   4.854  70.306  1.00  0.00     0.000 HD 
BRANCH  26  28
HETATM   28  C   UNL     1      -9.806   4.385  70.992  1.00  0.00    -0.190 C  
BRANCH  28  29
HETATM   29  C   UNL     1     -10.347   5.615  71.675  1.00  0.00    -0.270 C  
HETATM   30  C   UNL     1     -11.587   6.100  71.517  1.00  0.00    -0.304 C  
ENDBRANCH  28  29
ENDBRANCH  26  28
ENDBRANCH  20  26
ENDBRANCH  14  15
ENDBRANCH   8   9
BRANCH   8  31
HETATM   31  C   UNL     1      -9.455  13.120  67.585  1.00  0.00    -0.207 A  
HETATM   32  C   UNL     1      -9.819  15.905  67.468  1.00  0.00    -0.230 A  
HETATM   33  C   UNL     1     -10.486  15.083  66.573  1.00  0.00    -0.285 A  
HETATM   34  F   UNL     1      -9.960  17.236  67.381  1.00  0.00    -0.252 F  
HETATM   35  C   UNL     1      -8.824  13.975  68.510  1.00  0.00    -0.160 A  
HETATM   36  C   UNL     1     -10.317  13.697  66.639  1.00  0.00    -0.275 A  
HETATM   37  C   UNL     1      -9.001  15.362  68.447  1.00  0.00    -0.189 A  
ENDBRANCH   8  31
ENDBRANCH   5   8
TORSDOF 10
ENDMDL
MODEL      109
REMARK 921   NORMALIZED FREE ENERGY PREDICTED BY IDOCK:   -4.25 KCAL/MOL
REMARK 922        TOTAL FREE ENERGY PREDICTED BY IDOCK:   -8.08 KCAL/MOL
REMARK 923 INTER-LIGAND FREE ENERGY PREDICTED BY IDOCK:   -7.94 KCAL/MOL
REMARK 924 INTRA-LIGAND FREE ENERGY PREDICTED BY IDOCK:   -0.13 KCAL/MOL
REMARK 927      BINDING AFFINITY PREDICTED BY RF-SCORE:    0.00 PKD
ROOT
HETATM    1  F   UNL     1     -13.090  13.183  65.123  1.00  0.00    -0.501 F  
HETATM    2  C   UNL     1     -12.046  12.504  65.615  1.00  0.00    -0.400 A  
HETATM    3  C   UNL     1     -10.925  12.300  64.819  1.00  0.00    -0.346 A  
HETATM    4  C   UNL     1      -9.846  11.566  65.318  1.00  0.00    -0.286 A  
HETATM    5  C   UNL     1      -9.878  11.035  66.622  1.00  0.00    -0.235 A  
HETATM    6  C   UNL     1     -11.011  11.292  67.420  1.00  0.00    -0.337 A  
HETATM    7  C   UNL     1     -12.094  12.018  66.914  1.00  0.00     0.136 A  
ENDROOT
BRANCH   5   8
HETATM    8  C   UNL     1      -8.696  10.199  67.145  1.00  0.00    -0.129 C  
BRANCH   8   9
HETATM    9  N   UNL     1      -7.908  10.926  68.181  1.00  0.00    -0.109 NA 
HETATM   10  C   UNL     1      -8.694  11.996  68.877  1.00  0.00     0.213 C  
HETATM   11  C   UNL     1      -8.857  13.358  68.140  1.00  0.00    -0.180 C  
HETATM   12  C   UNL     1      -6.666  11.558  67.657  1.00  0.00    -0.079 C  
HETATM   13  C   UNL     1      -6.870  12.847  66.833  1.00  0.00     0.524 C  
HETATM   14  N   UNL     1      -7.544  13.834  67.685  1.00  0.00    -0.166 NA 
BRANCH  14  15
HETATM   15  C   UNL     1      -7.603  15.123  67.153  1.00  0.00    -0.168 A  
HETATM   16  N   UNL     1      -8.751  15.545  66.646  1.00  0.00    -0.269 NA 
HETATM   17  C   UNL     1      -8.755  16.760  66.123  1.00  0.00    -0.264 A  
HETATM   18  N   UNL     1      -6.498  15.864  67.174  1.00  0.00    -0.300 NA 
HETATM   19  N   UNL     1      -7.686  17.536  66.041  1.00  0.00    -0.503 NA 
HETATM   20  C   UNL     1      -6.588  17.067  66.614  1.00  0.00    -0.237 A  
BRANCH  17  21
HETATM   21  N   UNL     1      -9.946  17.312  65.690  1.00  0.00    -0.567 NA 
HETATM   22  H   UNL     1     -10.602  16.780  65.118  1.00  0.00     0.000 HD 
BRANCH  21  23
HETATM   23  C   UNL     1     -10.222  18.670  66.081  1.00  0.00    -0.416 C  
BRANCH  23  24
HETATM   24  C   UNL     1     -10.628  18.615  67.521  1.00  0.00    -0.472 C  
HETATM   25  C   UNL     1     -10.157  19.418  68.485  1.00  0.00    -0.527 C  
ENDBRANCH  23  24
ENDBRANCH  21  23
ENDBRANCH  17  21
BRANCH  20  26
HETATM   26  N   UNL     1      -5.540  17.966  66.695  1.00  0.00    -0.148 NA 
HETATM   27  H   UNL     1      -4.658  17.692  67.129  1.00  0.00     0.000 HD 
BRANCH  26  28
HETATM   28  C   UNL     1      -5.708  19.295  66.160  1.00  0.00    -0.156 C  
BRANCH  28  29
HETATM   29  C   UNL     1      -5.724  20.265  67.312  1.00  0.00    -0.194 C  
HETATM   30  C   UNL     1      -6.232  20.010  68.526  1.00  0.00    -0.317 C  
ENDBRANCH  28  29
ENDBRANCH  26  28
ENDBRANCH  20  26
ENDBRANCH  14  15
ENDBRANCH   8   9
BRANCH   8  31
HETATM   31  C   UNL     1      -9.200   8.804  67.590  1.00  0.00    -0.148 A  
HETATM   32  C   UNL     1     -10.194   6.334  68.494  1.00  0.00    -0.176 A  
HETATM   33  C   UNL     1     -10.335   6.689  67.161  1.00  0.00    -0.319 A  
HETATM   34  F   UNL     1     -10.709   5.176  68.932  1.00  0.00    -0.248 F  
HETATM   35  C   UNL     1      -9.033   8.399  68.928  1.00  0.00    -0.146 A  
HETATM   36  C   UNL     1      -9.828   7.910  66.707  1.00  0.00    -0.318 A  
HETATM   37  C   UNL     1      -9.533   7.172  69.379  1.00  0.00    -0.153 A  
ENDBRANCH   8  31
ENDBRANCH   5   8
TORSDOF 10
ENDMDL
MODEL      110
REMARK 921   NORMALIZED FREE ENERGY PREDICTED BY IDOCK:   -4.19 KCAL/MOL
REMARK 922        TOTAL FREE ENERGY PREDICTED BY IDOCK:   -7.99 KCAL/MOL
REMARK 923 INTER-LIGAND FREE ENERGY PREDICTED BY IDOCK:   -7.83 KCAL/MOL
REMARK 924 INTRA-LIGAND FREE ENERGY PREDICTED BY IDOCK:   -0.15 KCAL/MOL
REMARK 927      BINDING AFFINITY PREDICTED BY RF-SCORE:    0.00 PKD
ROOT
HETATM    1  F   UNL     1     -10.073  18.332  66.305  1.00  0.00    -0.323 F  
HETATM    2  C   UNL     1     -10.041  17.069  66.751  1.00  0.00    -0.300 A  
HETATM    3  C   UNL     1      -9.623  16.053  65.900  1.00  0.00    -0.370 A  
HETATM    4  C   UNL     1      -9.617  14.730  66.352  1.00  0.00    -0.324 A  
HETATM    5  C   UNL     1     -10.024  14.416  67.663  1.00  0.00    -0.224 A  
HETATM    6  C   UNL     1     -10.403  15.472  68.515  1.00  0.00    -0.225 A  
HETATM    7  C   UNL     1     -10.420  16.793  68.057  1.00  0.00    -0.333 A  
ENDROOT
BRANCH   5   8
HETATM    8  C   UNL     1     -10.044  12.951  68.135  1.00  0.00    -0.240 C  
BRANCH   8   9
HETATM    9  N   UNL     1     -11.432  12.442  68.327  1.00  0.00    -0.286 NA 
HETATM   10  C   UNL     1     -11.813  12.297  69.769  1.00  0.00    -0.318 C  
HETATM   11  C   UNL     1     -11.315  11.026  70.517  1.00  0.00    -0.022 C  
HETATM   12  C   UNL     1     -11.688  11.132  67.667  1.00  0.00    -0.083 C  
HETATM   13  C   UNL     1     -11.083   9.900  68.373  1.00  0.00    -0.139 C  
HETATM   14  N   UNL     1     -11.641   9.829  69.729  1.00  0.00    -0.101 NA 
BRANCH  14  15
HETATM   15  C   UNL     1     -11.358   8.649  70.417  1.00  0.00    -0.187 A  
HETATM   16  N   UNL     1     -11.089   7.557  69.716  1.00  0.00    -0.185 NA 
HETATM   17  C   UNL     1     -10.858   6.453  70.407  1.00  0.00    -0.286 A  
HETATM   18  N   UNL     1     -11.379   8.675  71.748  1.00  0.00    -0.299 NA 
HETATM   19  N   UNL     1     -10.926   6.375  71.726  1.00  0.00    -0.244 NA 
HETATM   20  C   UNL     1     -11.150   7.517  72.360  1.00  0.00    -0.301 A  
BRANCH  17  21
HETATM   21  N   UNL     1     -10.449   5.309  69.747  1.00  0.00    -0.300 NA 
HETATM   22  H   UNL     1     -11.123   4.648  69.362  1.00  0.00     0.000 HD 
BRANCH  21  23
HETATM   23  C   UNL     1      -9.031   5.092  69.626  1.00  0.00    -0.099 C  
BRANCH  23  24
HETATM   24  C   UNL     1      -8.853   3.625  69.389  1.00  0.00    -0.150 C  
HETATM   25  C   UNL     1      -8.996   2.672  70.320  1.00  0.00    -0.164 C  
ENDBRANCH  23  24
ENDBRANCH  21  23
ENDBRANCH  17  21
BRANCH  20  26
HETATM   26  N   UNL     1     -11.023   7.457  73.736  1.00  0.00    -0.523 NA 
HETATM   27  H   UNL     1     -11.778   7.784  74.339  1.00  0.00     0.000 HD 
BRANCH  26  28
HETATM   28  C   UNL     1      -9.810   6.927  74.310  1.00  0.00    -0.277 C  
BRANCH  28  29
HETATM   29  C   UNL     1      -8.684   7.872  73.981  1.00  0.00    -0.305 C  
HETATM   30  C   UNL     1      -7.495   7.507  73.480  1.00  0.00    -0.125 C  
ENDBRANCH  28  29
ENDBRANCH  26  28
ENDBRANCH  20  26
ENDBRANCH  14  15
ENDBRANCH   8   9
BRANCH   8  31
HETATM   31  C   UNL     1      -9.173  12.087  67.189  1.00  0.00    -0.190 A  
HETATM   32  C   UNL     1      -7.589  10.420  65.572  1.00  0.00    -0.144 A  
HETATM   33  C   UNL     1      -8.811  10.877  65.104  1.00  0.00    -0.167 A  
HETATM   34  F   UNL     1      -6.856   9.589  64.817  1.00  0.00    -0.088 F  
HETATM   35  C   UNL     1      -7.908  11.644  67.622  1.00  0.00    -0.135 A  
HETATM   36  C   UNL     1      -9.594  11.718  65.901  1.00  0.00    -0.249 A  
HETATM   37  C   UNL     1      -7.122  10.809  66.819  1.00  0.00    -0.127 A  
ENDBRANCH   8  31
ENDBRANCH   5   8
TORSDOF 10
ENDMDL
MODEL      111
REMARK 921   NORMALIZED FREE ENERGY PREDICTED BY IDOCK:   -4.17 KCAL/MOL
REMARK 922        TOTAL FREE ENERGY PREDICTED BY IDOCK:   -7.95 KCAL/MOL
REMARK 923 INTER-LIGAND FREE ENERGY PREDICTED BY IDOCK:   -7.65 KCAL/MOL
REMARK 924 INTRA-LIGAND FREE ENERGY PREDICTED BY IDOCK:   -0.30 KCAL/MOL
REMARK 927      BINDING AFFINITY PREDICTED BY RF-SCORE:    0.00 PKD
ROOT
HETATM    1  F   UNL     1      -7.523   2.811  63.152  1.00  0.00    -0.051 F  
HETATM    2  C   UNL     1      -7.578   3.976  63.810  1.00  0.00    -0.066 A  
HETATM    3  C   UNL     1      -7.267   4.013  65.164  1.00  0.00    -0.067 A  
HETATM    4  C   UNL     1      -7.353   5.221  65.862  1.00  0.00    -0.081 A  
HETATM    5  C   UNL     1      -7.748   6.404  65.207  1.00  0.00    -0.098 A  
HETATM    6  C   UNL     1      -8.019   6.343  63.826  1.00  0.00    -0.086 A  
HETATM    7  C   UNL     1      -7.943   5.131  63.132  1.00  0.00    -0.092 A  
ENDROOT
BRANCH   5   8
HETATM    8  C   UNL     1      -7.872   7.720  65.997  1.00  0.00    -0.100 C  
BRANCH   8   9
HETATM    9  N   UNL     1      -8.048   8.898  65.101  1.00  0.00    -0.125 NA 
HETATM   10  C   UNL     1      -7.245  10.089  65.530  1.00  0.00    -0.133 C  
HETATM   11  C   UNL     1      -7.822  10.964  66.682  1.00  0.00    -0.145 C  
HETATM   12  C   UNL     1      -9.462   9.342  64.962  1.00  0.00    -0.134 C  
HETATM   13  C   UNL     1     -10.042  10.109  66.171  1.00  0.00    -0.246 C  
HETATM   14  N   UNL     1      -9.221  11.305  66.390  1.00  0.00    -0.186 NA 
BRANCH  14  15
HETATM   15  C   UNL     1      -9.747  12.214  67.310  1.00  0.00    -0.191 A  
HETATM   16  N   UNL     1     -10.512  11.753  68.288  1.00  0.00    -0.199 NA 
HETATM   17  C   UNL     1     -11.015  12.652  69.118  1.00  0.00    -0.142 A  
HETATM   18  N   UNL     1      -9.459  13.505  67.154  1.00  0.00    -0.235 NA 
HETATM   19  N   UNL     1     -10.837  13.957  68.996  1.00  0.00    -0.244 NA 
HETATM   20  C   UNL     1     -10.020  14.339  68.024  1.00  0.00    -0.220 A  
BRANCH  17  21
HETATM   21  N   UNL     1     -11.718  12.232  70.232  1.00  0.00    -0.542 NA 
HETATM   22  H   UNL     1     -11.918  12.867  71.004  1.00  0.00     0.000 HD 
BRANCH  21  23
HETATM   23  C   UNL     1     -12.156  10.861  70.254  1.00  0.00    -0.355 C  
BRANCH  23  24
HETATM   24  C   UNL     1     -12.661  10.608  71.640  1.00  0.00    -0.531 C  
HETATM   25  C   UNL     1     -13.582   9.690  71.968  1.00  0.00    -0.467 C  
ENDBRANCH  23  24
ENDBRANCH  21  23
ENDBRANCH  17  21
BRANCH  20  26
HETATM   26  N   UNL     1      -9.688  15.681  68.033  1.00  0.00    -0.204 NA 
HETATM   27  H   UNL     1      -8.710  15.971  68.040  1.00  0.00     0.000 HD 
BRANCH  26  28
HETATM   28  C   UNL     1     -10.740  16.669  68.033  1.00  0.00    -0.350 C  
BRANCH  28  29
HETATM   29  C   UNL     1     -10.300  17.822  67.168  1.00  0.00    -0.354 C  
HETATM   30  C   UNL     1     -10.462  19.117  67.473  1.00  0.00    -0.549 C  
ENDBRANCH  28  29
ENDBRANCH  26  28
ENDBRANCH  20  26
ENDBRANCH  14  15
ENDBRANCH   8   9
BRANCH   8  31
HETATM   31  C   UNL     1      -8.968   7.574  67.082  1.00  0.00    -0.136 A  
HETATM   32  C   UNL     1     -10.943   7.173  69.042  1.00  0.00    -0.089 A  
HETATM   33  C   UNL     1      -9.834   7.954  69.329  1.00  0.00    -0.177 A  
HETATM   34  F   UNL     1     -11.861   6.945  69.993  1.00  0.00    -0.341 F  
HETATM   35  C   UNL     1     -10.125   6.822  66.804  1.00  0.00    -0.250 A  
HETATM   36  C   UNL     1      -8.858   8.166  68.351  1.00  0.00    -0.133 A  
HETATM   37  C   UNL     1     -11.106   6.617  67.782  1.00  0.00    -0.332 A  
ENDBRANCH   8  31
ENDBRANCH   5   8
TORSDOF 10
ENDMDL
MODEL      112
REMARK 921   NORMALIZED FREE ENERGY PREDICTED BY IDOCK:   -4.16 KCAL/MOL
REMARK 922        TOTAL FREE ENERGY PREDICTED BY IDOCK:   -7.94 KCAL/MOL
REMARK 923 INTER-LIGAND FREE ENERGY PREDICTED BY IDOCK:   -6.78 KCAL/MOL
REMARK 924 INTRA-LIGAND FREE ENERGY PREDICTED BY IDOCK:   -1.17 KCAL/MOL
REMARK 927      BINDING AFFINITY PREDICTED BY RF-SCORE:    0.00 PKD
ROOT
HETATM    1  F   UNL     1      -6.507   9.320  63.847  1.00  0.00    -0.086 F  
HETATM    2  C   UNL     1      -7.463   9.541  64.758  1.00  0.00    -0.112 A  
HETATM    3  C   UNL     1      -7.304  10.566  65.683  1.00  0.00    -0.126 A  
HETATM    4  C   UNL     1      -8.286  10.781  66.655  1.00  0.00    -0.140 A  
HETATM    5  C   UNL     1      -9.437   9.972  66.705  1.00  0.00    -0.209 A  
HETATM    6  C   UNL     1      -9.590   8.967  65.730  1.00  0.00    -0.245 A  
HETATM    7  C   UNL     1      -8.602   8.747  64.765  1.00  0.00    -0.161 A  
ENDROOT
BRANCH   5   8
HETATM    8  C   UNL     1     -10.493  10.198  67.803  1.00  0.00    -0.232 C  
BRANCH   8   9
HETATM    9  N   UNL     1     -10.007   9.770  69.146  1.00  0.00    -0.179 NA 
HETATM   10  C   UNL     1      -8.687   9.062  69.097  1.00  0.00    -0.135 C  
HETATM   11  C   UNL     1      -8.695   7.558  68.694  1.00  0.00    -0.128 C  
HETATM   12  C   UNL     1     -10.957   8.886  69.875  1.00  0.00    -0.182 C  
HETATM   13  C   UNL     1     -11.026   7.426  69.376  1.00  0.00    -0.108 C  
HETATM   14  N   UNL     1      -9.689   6.836  69.500  1.00  0.00    -0.150 NA 
BRANCH  14  15
HETATM   15  C   UNL     1      -9.636   5.457  69.294  1.00  0.00    -0.145 A  
HETATM   16  N   UNL     1      -9.699   4.657  70.349  1.00  0.00    -0.203 NA 
HETATM   17  C   UNL     1      -9.614   3.359  70.112  1.00  0.00    -0.140 A  
HETATM   18  N   UNL     1      -9.517   5.010  68.046  1.00  0.00    -0.125 NA 
HETATM   19  N   UNL     1      -9.426   2.834  68.911  1.00  0.00    -0.153 NA 
HETATM   20  C   UNL     1      -9.423   3.692  67.901  1.00  0.00    -0.169 A  
BRANCH  17  21
HETATM   21  N   UNL     1      -9.797   2.463  71.149  1.00  0.00    -0.102 NA 
HETATM   22  H   UNL     1     -10.254   1.564  71.000  1.00  0.00     0.000 HD 
BRANCH  21  23
HETATM   23  C   UNL     1      -9.316   2.855  72.448  1.00  0.00    -0.103 C  
BRANCH  23  24
HETATM   24  C   UNL     1     -10.495   2.788  73.367  1.00  0.00    -0.239 C  
HETATM   25  C   UNL     1     -11.249   3.835  73.729  1.00  0.00    -0.243 C  
ENDBRANCH  23  24
ENDBRANCH  21  23
ENDBRANCH  17  21
BRANCH  20  26
HETATM   26  N   UNL     1      -9.425   3.115  66.645  1.00  0.00    -0.377 NA 
HETATM   27  H   UNL     1      -9.025   2.188  66.502  1.00  0.00     0.000 HD 
BRANCH  26  28
HETATM   28  C   UNL     1      -9.999   3.839  65.537  1.00  0.00    -0.064 C  
BRANCH  28  29
HETATM   29  C   UNL     1      -8.939   3.994  64.478  1.00  0.00    -0.137 C  
HETATM   30  C   UNL     1      -8.033   4.981  64.436  1.00  0.00    -0.104 C  
ENDBRANCH  28  29
ENDBRANCH  26  28
ENDBRANCH  20  26
ENDBRANCH  14  15
ENDBRANCH   8   9
BRANCH   8  31
HETATM   31  C   UNL     1     -11.000  11.661  67.745  1.00  0.00    -0.287 A  
HETATM   32  C   UNL     1     -11.793  14.357  67.680  1.00  0.00    -0.378 A  
HETATM   33  C   UNL     1     -11.924  13.571  66.546  1.00  0.00    -0.460 A  
HETATM   34  F   UNL     1     -12.130  15.654  67.634  1.00  0.00    -0.118 F  
HETATM   35  C   UNL     1     -10.919  12.470  68.895  1.00  0.00    -0.272 A  
HETATM   36  C   UNL     1     -11.543  12.226  66.581  1.00  0.00    -0.438 A  
HETATM   37  C   UNL     1     -11.308  13.814  68.860  1.00  0.00    -0.328 A  
ENDBRANCH   8  31
ENDBRANCH   5   8
TORSDOF 10
ENDMDL
MODEL      113
REMARK 921   NORMALIZED FREE ENERGY PREDICTED BY IDOCK:   -4.13 KCAL/MOL
REMARK 922        TOTAL FREE ENERGY PREDICTED BY IDOCK:   -7.90 KCAL/MOL
REMARK 923 INTER-LIGAND FREE ENERGY PREDICTED BY IDOCK:   -7.62 KCAL/MOL
REMARK 924 INTRA-LIGAND FREE ENERGY PREDICTED BY IDOCK:   -0.28 KCAL/MOL
REMARK 927      BINDING AFFINITY PREDICTED BY RF-SCORE:    0.00 PKD
ROOT
HETATM    1  F   UNL     1     -12.167  12.516  62.845  1.00  0.00    -0.466 F  
HETATM    2  C   UNL     1     -11.470  11.962  63.846  1.00  0.00    -0.426 A  
HETATM    3  C   UNL     1     -11.817  12.247  65.161  1.00  0.00    -0.404 A  
HETATM    4  C   UNL     1     -11.074  11.695  66.208  1.00  0.00    -0.345 A  
HETATM    5  C   UNL     1      -9.979  10.849  65.945  1.00  0.00    -0.294 A  
HETATM    6  C   UNL     1      -9.676  10.547  64.603  1.00  0.00    -0.369 A  
HETATM    7  C   UNL     1     -10.414  11.109  63.557  1.00  0.00    -0.422 A  
ENDROOT
BRANCH   5   8
HETATM    8  C   UNL     1      -9.149  10.277  67.109  1.00  0.00    -0.142 C  
BRANCH   8   9
HETATM    9  N   UNL     1      -9.291  11.088  68.352  1.00  0.00    -0.172 NA 
HETATM   10  C   UNL     1      -8.054  11.092  69.198  1.00  0.00    -0.061 C  
HETATM   11  C   UNL     1      -7.809   9.855  70.113  1.00  0.00    -0.171 C  
HETATM   12  C   UNL     1     -10.422  10.661  69.221  1.00  0.00    -0.227 C  
HETATM   13  C   UNL     1     -10.190   9.366  70.030  1.00  0.00    -0.229 C  
HETATM   14  N   UNL     1      -9.021   9.569  70.892  1.00  0.00    -0.229 NA 
BRANCH  14  15
HETATM   15  C   UNL     1      -8.815   8.568  71.843  1.00  0.00    -0.216 A  
HETATM   16  N   UNL     1      -9.872   7.976  72.377  1.00  0.00    -0.221 NA 
HETATM   17  C   UNL     1      -9.633   7.056  73.296  1.00  0.00    -0.177 A  
HETATM   18  N   UNL     1      -7.562   8.260  72.172  1.00  0.00    -0.115 NA 
HETATM   19  N   UNL     1      -8.424   6.738  73.732  1.00  0.00    -0.124 NA 
HETATM   20  C   UNL     1      -7.414   7.335  73.116  1.00  0.00    -0.072 A  
BRANCH  17  21
HETATM   21  N   UNL     1     -10.681   6.312  73.805  1.00  0.00    -0.419 NA 
HETATM   22  H   UNL     1     -10.974   6.400  74.778  1.00  0.00     0.000 HD 
BRANCH  21  23
HETATM   23  C   UNL     1     -11.342   5.406  72.902  1.00  0.00    -0.303 C  
BRANCH  23  24
HETATM   24  C   UNL     1     -10.355   4.322  72.601  1.00  0.00    -0.243 C  
HETATM   25  C   UNL     1      -9.888   4.023  71.381  1.00  0.00    -0.249 C  
ENDBRANCH  23  24
ENDBRANCH  21  23
ENDBRANCH  17  21
BRANCH  20  26
HETATM   26  N   UNL     1      -6.162   6.850  73.442  1.00  0.00    -0.062 NA 
HETATM   27  H   UNL     1      -5.469   7.460  73.877  1.00  0.00     0.000 HD 
BRANCH  26  28
HETATM   28  C   UNL     1      -5.843   5.472  73.160  1.00  0.00    -0.028 C  
BRANCH  28  29
HETATM   29  C   UNL     1      -5.376   5.381  71.731  1.00  0.00    -0.009 C  
HETATM   30  C   UNL     1      -6.103   4.895  70.714  1.00  0.00    -0.018 C  
ENDBRANCH  28  29
ENDBRANCH  26  28
ENDBRANCH  20  26
ENDBRANCH  14  15
ENDBRANCH   8   9
BRANCH   8  31
HETATM   31  C   UNL     1      -9.470   8.772  67.288  1.00  0.00    -0.200 A  
HETATM   32  C   UNL     1     -10.010   6.052  67.746  1.00  0.00    -0.131 A  
HETATM   33  C   UNL     1     -11.017   6.888  67.291  1.00  0.00    -0.406 A  
HETATM   34  F   UNL     1     -10.281   4.765  68.007  1.00  0.00    -0.203 F  
HETATM   35  C   UNL     1      -8.455   7.891  67.708  1.00  0.00    -0.125 A  
HETATM   36  C   UNL     1     -10.747   8.239  67.049  1.00  0.00    -0.225 A  
HETATM   37  C   UNL     1      -8.726   6.537  67.942  1.00  0.00    -0.116 A  
ENDBRANCH   8  31
ENDBRANCH   5   8
TORSDOF 10
ENDMDL
MODEL      114
REMARK 921   NORMALIZED FREE ENERGY PREDICTED BY IDOCK:   -4.13 KCAL/MOL
REMARK 922        TOTAL FREE ENERGY PREDICTED BY IDOCK:   -7.88 KCAL/MOL
REMARK 923 INTER-LIGAND FREE ENERGY PREDICTED BY IDOCK:   -6.36 KCAL/MOL
REMARK 924 INTRA-LIGAND FREE ENERGY PREDICTED BY IDOCK:   -1.52 KCAL/MOL
REMARK 927      BINDING AFFINITY PREDICTED BY RF-SCORE:    0.00 PKD
ROOT
HETATM    1  F   UNL     1     -12.952  10.080  72.339  1.00  0.00    -0.464 F  
HETATM    2  C   UNL     1     -12.162  10.231  71.269  1.00  0.00    -0.395 A  
HETATM    3  C   UNL     1     -12.575  11.047  70.222  1.00  0.00    -0.321 A  
HETATM    4  C   UNL     1     -11.767  11.183  69.090  1.00  0.00    -0.408 A  
HETATM    5  C   UNL     1     -10.536  10.506  68.999  1.00  0.00    -0.238 A  
HETATM    6  C   UNL     1     -10.125   9.718  70.092  1.00  0.00    -0.317 A  
HETATM    7  C   UNL     1     -10.940   9.574  71.219  1.00  0.00    -0.440 A  
ENDROOT
BRANCH   5   8
HETATM    8  C   UNL     1      -9.674  10.638  67.730  1.00  0.00    -0.161 C  
BRANCH   8   9
HETATM    9  N   UNL     1     -10.255   9.895  66.576  1.00  0.00    -0.234 NA 
HETATM   10  C   UNL     1     -10.906   8.605  66.973  1.00  0.00     0.046 C  
HETATM   11  C   UNL     1      -9.977   7.377  67.210  1.00  0.00    -0.198 C  
HETATM   12  C   UNL     1      -9.269   9.583  65.505  1.00  0.00    -0.234 C  
HETATM   13  C   UNL     1      -8.286   8.434  65.817  1.00  0.00    -0.131 C  
HETATM   14  N   UNL     1      -9.067   7.218  66.067  1.00  0.00    -0.122 NA 
BRANCH  14  15
HETATM   15  C   UNL     1      -8.315   6.046  66.149  1.00  0.00    -0.126 A  
HETATM   16  N   UNL     1      -8.280   5.242  65.097  1.00  0.00    -0.128 NA 
HETATM   17  C   UNL     1      -7.581   4.127  65.227  1.00  0.00    -0.081 A  
HETATM   18  N   UNL     1      -7.673   5.787  67.286  1.00  0.00    -0.100 NA 
HETATM   19  N   UNL     1      -6.971   3.760  66.343  1.00  0.00    -0.058 NA 
HETATM   20  C   UNL     1      -7.008   4.637  67.336  1.00  0.00    -0.061 A  
BRANCH  17  21
HETATM   21  N   UNL     1      -7.398   3.304  64.132  1.00  0.00    -0.061 NA 
HETATM   22  H   UNL     1      -6.703   3.518  63.416  1.00  0.00     0.000 HD 
BRANCH  21  23
HETATM   23  C   UNL     1      -8.231   2.133  64.043  1.00  0.00    -0.081 C  
BRANCH  23  24
HETATM   24  C   UNL     1      -9.256   2.428  62.994  1.00  0.00    -0.091 C  
HETATM   25  C   UNL     1     -10.512   2.830  63.236  1.00  0.00    -0.199 C  
ENDBRANCH  23  24
ENDBRANCH  21  23
ENDBRANCH  17  21
BRANCH  20  26
HETATM   26  N   UNL     1      -6.205   4.329  68.418  1.00  0.00    -0.031 NA 
HETATM   27  H   UNL     1      -5.626   3.488  68.408  1.00  0.00     0.000 HD 
BRANCH  26  28
HETATM   28  C   UNL     1      -6.192   5.209  69.561  1.00  0.00    -0.026 C  
BRANCH  28  29
HETATM   29  C   UNL     1      -7.097   4.624  70.613  1.00  0.00    -0.041 C  
HETATM   30  C   UNL     1      -7.970   5.324  71.352  1.00  0.00    -0.114 C  
ENDBRANCH  28  29
ENDBRANCH  26  28
ENDBRANCH  20  26
ENDBRANCH  14  15
ENDBRANCH   8   9
BRANCH   8  31
HETATM   31  C   UNL     1      -9.390  12.134  67.447  1.00  0.00    -0.181 A  
HETATM   32  C   UNL     1      -8.743  14.815  66.901  1.00  0.00    -0.236 A  
HETATM   33  C   UNL     1      -9.792  14.208  66.229  1.00  0.00    -0.321 A  
HETATM   34  F   UNL     1      -8.408  16.080  66.606  1.00  0.00    -0.219 F  
HETATM   35  C   UNL     1      -8.357  12.789  68.146  1.00  0.00    -0.172 A  
HETATM   36  C   UNL     1     -10.124  12.879  66.510  1.00  0.00    -0.263 A  
HETATM   37  C   UNL     1      -8.032  14.123  67.869  1.00  0.00    -0.157 A  
ENDBRANCH   8  31
ENDBRANCH   5   8
TORSDOF 10
ENDMDL
MODEL      115
REMARK 921   NORMALIZED FREE ENERGY PREDICTED BY IDOCK:   -4.12 KCAL/MOL
REMARK 922        TOTAL FREE ENERGY PREDICTED BY IDOCK:   -7.88 KCAL/MOL
REMARK 923 INTER-LIGAND FREE ENERGY PREDICTED BY IDOCK:   -7.13 KCAL/MOL
REMARK 924 INTRA-LIGAND FREE ENERGY PREDICTED BY IDOCK:   -0.75 KCAL/MOL
REMARK 927      BINDING AFFINITY PREDICTED BY RF-SCORE:    0.00 PKD
ROOT
HETATM    1  F   UNL     1     -12.562  12.245  62.859  1.00  0.00    -0.484 F  
HETATM    2  C   UNL     1     -11.799  12.483  63.934  1.00  0.00    -0.463 A  
HETATM    3  C   UNL     1     -10.812  13.459  63.871  1.00  0.00    -0.075 A  
HETATM    4  C   UNL     1      -9.994  13.689  64.981  1.00  0.00    -0.205 A  
HETATM    5  C   UNL     1     -10.162  12.944  66.165  1.00  0.00    -0.286 A  
HETATM    6  C   UNL     1     -11.196  11.990  66.212  1.00  0.00    -0.394 A  
HETATM    7  C   UNL     1     -12.007  11.754  65.096  1.00  0.00     0.023 A  
ENDROOT
BRANCH   5   8
HETATM    8  C   UNL     1      -9.229  13.185  67.366  1.00  0.00    -0.213 C  
BRANCH   8   9
HETATM    9  N   UNL     1      -7.995  12.352  67.295  1.00  0.00    -0.177 NA 
HETATM   10  C   UNL     1      -8.120  11.191  66.356  1.00  0.00    -0.159 C  
HETATM   11  C   UNL     1      -8.864   9.926  66.877  1.00  0.00    -0.134 C  
HETATM   12  C   UNL     1      -7.558  11.812  68.612  1.00  0.00    -0.125 C  
HETATM   13  C   UNL     1      -8.388  10.629  69.156  1.00  0.00    -0.135 C  
HETATM   14  N   UNL     1      -8.317   9.534  68.183  1.00  0.00    -0.118 NA 
BRANCH  14  15
HETATM   15  C   UNL     1      -8.836   8.318  68.631  1.00  0.00    -0.133 A  
HETATM   16  N   UNL     1      -8.103   7.225  68.482  1.00  0.00    -0.123 NA 
HETATM   17  C   UNL     1      -8.645   6.090  68.891  1.00  0.00    -0.116 A  
HETATM   18  N   UNL     1     -10.048   8.315  69.181  1.00  0.00    -0.197 NA 
HETATM   19  N   UNL     1      -9.869   5.987  69.385  1.00  0.00    -0.157 NA 
HETATM   20  C   UNL     1     -10.521   7.129  69.550  1.00  0.00    -0.225 A  
BRANCH  17  21
HETATM   21  N   UNL     1      -7.891   4.932  68.881  1.00  0.00    -0.076 NA 
HETATM   22  H   UNL     1      -8.308   4.028  68.658  1.00  0.00     0.000 HD 
BRANCH  21  23
HETATM   23  C   UNL     1      -6.492   5.056  69.199  1.00  0.00    -0.035 C  
BRANCH  23  24
HETATM   24  C   UNL     1      -6.312   4.420  70.541  1.00  0.00    -0.022 C  
HETATM   25  C   UNL     1      -5.822   3.190  70.751  1.00  0.00    -0.017 C  
ENDBRANCH  23  24
ENDBRANCH  21  23
ENDBRANCH  17  21
BRANCH  20  26
HETATM   26  N   UNL     1     -11.712   7.027  70.246  1.00  0.00    -0.529 NA 
HETATM   27  H   UNL     1     -12.413   6.339  69.969  1.00  0.00     0.000 HD 
BRANCH  26  28
HETATM   28  C   UNL     1     -11.952   7.903  71.366  1.00  0.00    -0.303 C  
BRANCH  28  29
HETATM   29  C   UNL     1     -10.840   7.705  72.363  1.00  0.00    -0.341 C  
HETATM   30  C   UNL     1     -10.880   6.858  73.401  1.00  0.00    -0.303 C  
ENDBRANCH  28  29
ENDBRANCH  26  28
ENDBRANCH  20  26
ENDBRANCH  14  15
ENDBRANCH   8   9
BRANCH   8  31
HETATM   31  C   UNL     1      -8.966  14.703  67.526  1.00  0.00    -0.193 A  
HETATM   32  C   UNL     1      -8.517  17.445  67.951  1.00  0.00    -0.228 A  
HETATM   33  C   UNL     1      -7.522  16.663  67.387  1.00  0.00    -0.188 A  
HETATM   34  F   UNL     1      -8.284  18.743  68.195  1.00  0.00    -0.283 F  
HETATM   35  C   UNL     1      -9.974  15.530  68.057  1.00  0.00    -0.214 A  
HETATM   36  C   UNL     1      -7.749  15.301  67.161  1.00  0.00    -0.238 A  
HETATM   37  C   UNL     1      -9.748  16.895  68.275  1.00  0.00    -0.256 A  
ENDBRANCH   8  31
ENDBRANCH   5   8
TORSDOF 10
ENDMDL
MODEL      116
REMARK 921   NORMALIZED FREE ENERGY PREDICTED BY IDOCK:   -4.12 KCAL/MOL
REMARK 922        TOTAL FREE ENERGY PREDICTED BY IDOCK:   -7.87 KCAL/MOL
REMARK 923 INTER-LIGAND FREE ENERGY PREDICTED BY IDOCK:   -6.66 KCAL/MOL
REMARK 924 INTRA-LIGAND FREE ENERGY PREDICTED BY IDOCK:   -1.22 KCAL/MOL
REMARK 927      BINDING AFFINITY PREDICTED BY RF-SCORE:    0.00 PKD
ROOT
HETATM    1  F   UNL     1     -11.646   6.372  72.913  1.00  0.00    -0.263 F  
HETATM    2  C   UNL     1     -10.995   6.640  71.773  1.00  0.00    -0.240 A  
HETATM    3  C   UNL     1     -11.513   7.586  70.895  1.00  0.00    -0.303 A  
HETATM    4  C   UNL     1     -10.854   7.846  69.691  1.00  0.00    -0.177 A  
HETATM    5  C   UNL     1      -9.667   7.165  69.358  1.00  0.00    -0.160 A  
HETATM    6  C   UNL     1      -9.145   6.242  70.285  1.00  0.00    -0.156 A  
HETATM    7  C   UNL     1      -9.812   5.974  71.485  1.00  0.00    -0.197 A  
ENDROOT
BRANCH   5   8
HETATM    8  C   UNL     1      -8.972   7.437  68.012  1.00  0.00    -0.132 C  
BRANCH   8   9
HETATM    9  N   UNL     1      -7.649   8.101  68.187  1.00  0.00    -0.103 NA 
HETATM   10  C   UNL     1      -7.647   9.137  69.270  1.00  0.00    -0.079 C  
HETATM   11  C   UNL     1      -8.229  10.539  68.919  1.00  0.00    -0.141 C  
HETATM   12  C   UNL     1      -7.133   8.750  66.950  1.00  0.00    -0.078 C  
HETATM   13  C   UNL     1      -7.810  10.084  66.566  1.00  0.00    -0.112 C  
HETATM   14  N   UNL     1      -7.622  11.028  67.674  1.00  0.00    -0.101 NA 
BRANCH  14  15
HETATM   15  C   UNL     1      -7.987  12.345  67.388  1.00  0.00    -0.178 A  
HETATM   16  N   UNL     1      -7.062  13.289  67.471  1.00  0.00    -0.161 NA 
HETATM   17  C   UNL     1      -7.458  14.527  67.224  1.00  0.00    -0.097 A  
HETATM   18  N   UNL     1      -9.252  12.589  67.054  1.00  0.00    -0.207 NA 
HETATM   19  N   UNL     1      -8.708  14.866  66.952  1.00  0.00    -0.239 NA 
HETATM   20  C   UNL     1      -9.566  13.863  66.837  1.00  0.00    -0.269 A  
BRANCH  17  21
HETATM   21  N   UNL     1      -6.523  15.543  67.169  1.00  0.00    -0.294 NA 
HETATM   22  H   UNL     1      -5.563  15.400  67.482  1.00  0.00     0.000 HD 
BRANCH  21  23
HETATM   23  C   UNL     1      -6.962  16.813  66.651  1.00  0.00    -0.232 C  
BRANCH  23  24
HETATM   24  C   UNL     1      -6.732  17.810  67.742  1.00  0.00    -0.190 C  
HETATM   25  C   UNL     1      -7.050  19.111  67.676  1.00  0.00    -0.247 C  
ENDBRANCH  23  24
ENDBRANCH  21  23
ENDBRANCH  17  21
BRANCH  20  26
HETATM   26  N   UNL     1     -10.816  14.213  66.361  1.00  0.00    -0.301 NA 
HETATM   27  H   UNL     1     -10.905  14.852  65.570  1.00  0.00     0.000 HD 
BRANCH  26  28
HETATM   28  C   UNL     1     -11.991  13.668  66.994  1.00  0.00    -0.406 C  
BRANCH  28  29
HETATM   29  C   UNL     1     -11.987  14.095  68.439  1.00  0.00    -0.366 C  
HETATM   30  C   UNL     1     -12.077  15.362  68.866  1.00  0.00    -0.226 C  
ENDBRANCH  28  29
ENDBRANCH  26  28
ENDBRANCH  20  26
ENDBRANCH  14  15
ENDBRANCH   8   9
BRANCH   8  31
HETATM   31  C   UNL     1      -8.926   6.135  67.175  1.00  0.00    -0.111 A  
HETATM   32  C   UNL     1      -8.925   3.831  65.563  1.00  0.00    -0.135 A  
HETATM   33  C   UNL     1      -7.724   4.426  65.918  1.00  0.00    -0.094 A  
HETATM   34  F   UNL     1      -8.924   2.760  64.757  1.00  0.00    -0.106 F  
HETATM   35  C   UNL     1     -10.128   5.485  66.836  1.00  0.00    -0.237 A  
HETATM   36  C   UNL     1      -7.722   5.563  66.732  1.00  0.00    -0.100 A  
HETATM   37  C   UNL     1     -10.128   4.341  66.028  1.00  0.00    -0.217 A  
ENDBRANCH   8  31
ENDBRANCH   5   8
TORSDOF 10
ENDMDL
MODEL      117
REMARK 921   NORMALIZED FREE ENERGY PREDICTED BY IDOCK:   -4.11 KCAL/MOL
REMARK 922        TOTAL FREE ENERGY PREDICTED BY IDOCK:   -7.86 KCAL/MOL
REMARK 923 INTER-LIGAND FREE ENERGY PREDICTED BY IDOCK:   -9.21 KCAL/MOL
REMARK 924 INTRA-LIGAND FREE ENERGY PREDICTED BY IDOCK:    1.35 KCAL/MOL
REMARK 927      BINDING AFFINITY PREDICTED BY RF-SCORE:    0.00 PKD
ROOT
HETATM    1  F   UNL     1     -11.162  16.805  71.442  1.00  0.00    -0.289 F  
HETATM    2  C   UNL     1     -11.377  15.752  70.643  1.00  0.00    -0.388 A  
HETATM    3  C   UNL     1     -12.681  15.352  70.372  1.00  0.00    -0.407 A  
HETATM    4  C   UNL     1     -12.909  14.235  69.564  1.00  0.00     0.391 A  
HETATM    5  C   UNL     1     -11.832  13.512  69.015  1.00  0.00    -0.385 A  
HETATM    6  C   UNL     1     -10.523  13.965  69.273  1.00  0.00    -0.001 A  
HETATM    7  C   UNL     1     -10.297  15.076  70.092  1.00  0.00    -0.057 A  
ENDROOT
BRANCH   5   8
HETATM    8  C   UNL     1     -12.099  12.264  68.154  1.00  0.00    -0.013 C  
BRANCH   8   9
HETATM    9  N   UNL     1     -11.850  12.516  66.706  1.00  0.00    -0.522 NA 
HETATM   10  C   UNL     1     -10.418  12.323  66.311  1.00  0.00    -0.238 C  
HETATM   11  C   UNL     1      -9.429  13.487  66.615  1.00  0.00    -0.265 C  
HETATM   12  C   UNL     1     -12.256  13.875  66.255  1.00  0.00    -0.461 C  
HETATM   13  C   UNL     1     -11.313  15.025  66.670  1.00  0.00    -0.289 C  
HETATM   14  N   UNL     1      -9.984  14.751  66.112  1.00  0.00    -0.287 NA 
BRANCH  14  15
HETATM   15  C   UNL     1      -9.077  15.806  66.216  1.00  0.00    -0.338 A  
HETATM   16  N   UNL     1      -7.833  15.537  66.582  1.00  0.00    -0.131 NA 
HETATM   17  C   UNL     1      -7.015  16.569  66.700  1.00  0.00    -0.161 A  
HETATM   18  N   UNL     1      -9.509  17.037  65.950  1.00  0.00    -0.525 NA 
HETATM   19  N   UNL     1      -7.379  17.829  66.522  1.00  0.00    -0.225 NA 
HETATM   20  C   UNL     1      -8.624  18.016  66.109  1.00  0.00    -0.096 A  
BRANCH  17  21
HETATM   21  N   UNL     1      -5.674  16.351  66.956  1.00  0.00    -0.328 NA 
HETATM   22  H   UNL     1      -4.953  16.963  66.574  1.00  0.00     0.000 HD 
BRANCH  21  23
HETATM   23  C   UNL     1      -5.338  15.222  67.784  1.00  0.00    -0.071 C  
BRANCH  23  24
HETATM   24  C   UNL     1      -5.585  15.653  69.196  1.00  0.00    -0.101 C  
HETATM   25  C   UNL     1      -6.453  15.074  70.038  1.00  0.00    -0.160 C  
ENDBRANCH  23  24
ENDBRANCH  21  23
ENDBRANCH  17  21
BRANCH  20  26
HETATM   26  N   UNL     1      -8.928  19.313  65.738  1.00  0.00    -0.321 NA 
HETATM   27  H   UNL     1      -8.320  19.821  65.095  1.00  0.00     0.000 HD 
BRANCH  26  28
HETATM   28  C   UNL     1     -10.113  19.940  66.269  1.00  0.00    -0.502 C  
BRANCH  28  29
HETATM   29  C   UNL     1      -9.829  20.353  67.690  1.00  0.00    -0.538 C  
HETATM   30  C   UNL     1     -10.141  19.633  68.777  1.00  0.00    -0.532 C  
ENDBRANCH  28  29
ENDBRANCH  26  28
ENDBRANCH  20  26
ENDBRANCH  14  15
ENDBRANCH   8   9
BRANCH   8  31
HETATM   31  C   UNL     1     -11.323  11.056  68.734  1.00  0.00    -0.349 A  
HETATM   32  C   UNL     1     -10.032   8.819  69.845  1.00  0.00    -0.187 A  
HETATM   33  C   UNL     1      -9.985   9.033  68.477  1.00  0.00    -0.193 A  
HETATM   34  F   UNL     1      -9.454   7.727  70.367  1.00  0.00    -0.161 F  
HETATM   35  C   UNL     1     -11.316  10.837  70.125  1.00  0.00    -0.390 A  
HETATM   36  C   UNL     1     -10.615  10.153  67.924  1.00  0.00    -0.294 A  
HETATM   37  C   UNL     1     -10.679   9.720  70.678  1.00  0.00    -0.394 A  
ENDBRANCH   8  31
ENDBRANCH   5   8
TORSDOF 10
ENDMDL
MODEL      118
REMARK 921   NORMALIZED FREE ENERGY PREDICTED BY IDOCK:   -4.11 KCAL/MOL
REMARK 922        TOTAL FREE ENERGY PREDICTED BY IDOCK:   -7.85 KCAL/MOL
REMARK 923 INTER-LIGAND FREE ENERGY PREDICTED BY IDOCK:   -7.09 KCAL/MOL
REMARK 924 INTRA-LIGAND FREE ENERGY PREDICTED BY IDOCK:   -0.76 KCAL/MOL
REMARK 927      BINDING AFFINITY PREDICTED BY RF-SCORE:    0.00 PKD
ROOT
HETATM    1  F   UNL     1      -9.435  19.003  67.572  1.00  0.00    -0.304 F  
HETATM    2  C   UNL     1      -9.460  17.674  67.412  1.00  0.00    -0.256 A  
HETATM    3  C   UNL     1      -9.147  16.848  68.485  1.00  0.00    -0.257 A  
HETATM    4  C   UNL     1      -9.142  15.461  68.313  1.00  0.00    -0.187 A  
HETATM    5  C   UNL     1      -9.456  14.890  67.065  1.00  0.00    -0.239 A  
HETATM    6  C   UNL     1      -9.809  15.750  66.006  1.00  0.00    -0.366 A  
HETATM    7  C   UNL     1      -9.802  17.138  66.178  1.00  0.00    -0.280 A  
ENDROOT
BRANCH   5   8
HETATM    8  C   UNL     1      -9.412  13.361  66.882  1.00  0.00    -0.253 C  
BRANCH   8   9
HETATM    9  N   UNL     1      -9.575  12.637  68.175  1.00  0.00    -0.216 NA 
HETATM   10  C   UNL     1      -8.273  12.205  68.777  1.00  0.00     0.055 C  
HETATM   11  C   UNL     1      -7.616  10.911  68.211  1.00  0.00    -0.100 C  
HETATM   12  C   UNL     1     -10.443  11.430  68.082  1.00  0.00    -0.187 C  
HETATM   13  C   UNL     1      -9.800  10.197  67.411  1.00  0.00    -0.187 C  
HETATM   14  N   UNL     1      -8.607   9.827  68.182  1.00  0.00    -0.118 NA 
BRANCH  14  15
HETATM   15  C   UNL     1      -8.040   8.601  67.829  1.00  0.00    -0.107 A  
HETATM   16  N   UNL     1      -8.569   7.493  68.326  1.00  0.00    -0.124 NA 
HETATM   17  C   UNL     1      -7.982   6.356  67.993  1.00  0.00    -0.109 A  
HETATM   18  N   UNL     1      -6.988   8.605  67.014  1.00  0.00    -0.073 NA 
HETATM   19  N   UNL     1      -6.893   6.275  67.245  1.00  0.00    -0.064 NA 
HETATM   20  C   UNL     1      -6.451   7.419  66.743  1.00  0.00    -0.052 A  
BRANCH  17  21
HETATM   21  N   UNL     1      -8.554   5.156  68.372  1.00  0.00    -0.098 NA 
HETATM   22  H   UNL     1      -8.057   4.273  68.264  1.00  0.00     0.000 HD 
BRANCH  21  23
HETATM   23  C   UNL     1      -9.881   5.208  68.928  1.00  0.00    -0.172 C  
BRANCH  23  24
HETATM   24  C   UNL     1      -9.867   4.309  70.124  1.00  0.00    -0.271 C  
HETATM   25  C   UNL     1      -8.803   4.088  70.909  1.00  0.00    -0.136 C  
ENDBRANCH  23  24
ENDBRANCH  21  23
ENDBRANCH  17  21
BRANCH  20  26
HETATM   26  N   UNL     1      -5.438   7.296  65.810  1.00  0.00    -0.027 NA 
HETATM   27  H   UNL     1      -4.530   7.731  65.975  1.00  0.00     0.000 HD 
BRANCH  26  28
HETATM   28  C   UNL     1      -5.679   6.546  64.602  1.00  0.00    -0.030 C  
BRANCH  28  29
HETATM   29  C   UNL     1      -6.652   7.323  63.754  1.00  0.00    -0.048 C  
HETATM   30  C   UNL     1      -7.753   6.813  63.184  1.00  0.00    -0.103 C  
ENDBRANCH  28  29
ENDBRANCH  26  28
ENDBRANCH  20  26
ENDBRANCH  14  15
ENDBRANCH   8   9
BRANCH   8  31
HETATM   31  C   UNL     1     -10.418  12.939  65.783  1.00  0.00    -0.293 A  
HETATM   32  C   UNL     1     -12.290  12.303  63.784  1.00  0.00    -0.538 A  
HETATM   33  C   UNL     1     -10.944  12.045  63.576  1.00  0.00    -0.514 A  
HETATM   34  F   UNL     1     -13.175  12.040  62.811  1.00  0.00    -0.320 F  
HETATM   35  C   UNL     1     -11.796  13.149  65.985  1.00  0.00    -0.457 A  
HETATM   36  C   UNL     1     -10.013  12.348  64.575  1.00  0.00    -0.202 A  
HETATM   37  C   UNL     1     -12.727  12.837  64.986  1.00  0.00    -0.455 A  
ENDBRANCH   8  31
ENDBRANCH   5   8
TORSDOF 10
ENDMDL
MODEL      119
REMARK 921   NORMALIZED FREE ENERGY PREDICTED BY IDOCK:   -4.10 KCAL/MOL
REMARK 922        TOTAL FREE ENERGY PREDICTED BY IDOCK:   -7.85 KCAL/MOL
REMARK 923 INTER-LIGAND FREE ENERGY PREDICTED BY IDOCK:   -9.25 KCAL/MOL
REMARK 924 INTRA-LIGAND FREE ENERGY PREDICTED BY IDOCK:    1.40 KCAL/MOL
REMARK 927      BINDING AFFINITY PREDICTED BY RF-SCORE:    0.00 PKD
ROOT
HETATM    1  F   UNL     1     -11.101  16.470  71.302  1.00  0.00    -0.271 F  
HETATM    2  C   UNL     1     -11.301  15.358  70.582  1.00  0.00    -0.332 A  
HETATM    3  C   UNL     1     -10.229  14.766  69.925  1.00  0.00     0.078 A  
HETATM    4  C   UNL     1     -10.438  13.624  69.148  1.00  0.00    -0.016 A  
HETATM    5  C   UNL     1     -11.724  13.062  69.026  1.00  0.00    -0.376 A  
HETATM    6  C   UNL     1     -12.784  13.661  69.735  1.00  0.00     0.128 A  
HETATM    7  C   UNL     1     -12.574  14.811  70.503  1.00  0.00    -0.416 A  
ENDROOT
BRANCH   5   8
HETATM    8  C   UNL     1     -11.945  11.824  68.138  1.00  0.00    -0.143 C  
BRANCH   8   9
HETATM    9  N   UNL     1     -11.858  12.152  66.686  1.00  0.00    -0.612 NA 
HETATM   10  C   UNL     1     -10.450  12.218  66.179  1.00  0.00    -0.240 C  
HETATM   11  C   UNL     1      -9.651  13.527  66.454  1.00  0.00    -0.259 C  
HETATM   12  C   UNL     1     -12.523  13.432  66.319  1.00  0.00    -0.276 C  
HETATM   13  C   UNL     1     -11.758  14.716  66.707  1.00  0.00    -0.341 C  
HETATM   14  N   UNL     1     -10.451  14.689  66.042  1.00  0.00    -0.293 NA 
BRANCH  14  15
HETATM   15  C   UNL     1      -9.730  15.881  66.120  1.00  0.00    -0.321 A  
HETATM   16  N   UNL     1     -10.345  17.013  65.811  1.00  0.00    -0.544 NA 
HETATM   17  C   UNL     1      -9.617  18.116  65.867  1.00  0.00     0.089 A  
HETATM   18  N   UNL     1      -8.454  15.823  66.494  1.00  0.00    -0.290 NA 
HETATM   19  N   UNL     1      -8.327  18.140  66.162  1.00  0.00    -0.482 NA 
HETATM   20  C   UNL     1      -7.793  16.977  66.508  1.00  0.00    -0.296 A  
BRANCH  17  21
HETATM   21  N   UNL     1     -10.224  19.344  65.680  1.00  0.00    -0.459 NA 
HETATM   22  H   UNL     1     -10.792  19.536  64.855  1.00  0.00     0.000 HD 
BRANCH  21  23
HETATM   23  C   UNL     1     -10.022  20.339  66.701  1.00  0.00    -0.426 C  
BRANCH  23  24
HETATM   24  C   UNL     1     -10.498  19.727  67.980  1.00  0.00    -0.523 C  
HETATM   25  C   UNL     1      -9.892  19.858  69.169  1.00  0.00    -0.300 C  
ENDBRANCH  23  24
ENDBRANCH  21  23
ENDBRANCH  17  21
BRANCH  20  26
HETATM   26  N   UNL     1      -6.504  17.049  67.001  1.00  0.00    -0.177 NA 
HETATM   27  H   UNL     1      -5.729  16.633  66.483  1.00  0.00     0.000 HD 
BRANCH  26  28
HETATM   28  C   UNL     1      -6.265  17.719  68.256  1.00  0.00    -0.176 C  
BRANCH  28  29
HETATM   29  C   UNL     1      -6.901  16.904  69.352  1.00  0.00    -0.195 C  
HETATM   30  C   UNL     1      -6.484  15.694  69.750  1.00  0.00    -0.169 C  
ENDBRANCH  28  29
ENDBRANCH  26  28
ENDBRANCH  20  26
ENDBRANCH  14  15
ENDBRANCH   8   9
BRANCH   8  31
HETATM   31  C   UNL     1     -11.002  10.682  68.591  1.00  0.00    -0.291 A  
HETATM   32  C   UNL     1      -9.201   8.647  69.314  1.00  0.00    -0.150 A  
HETATM   33  C   UNL     1      -9.597   9.585  70.255  1.00  0.00    -0.314 A  
HETATM   34  F   UNL     1      -8.308   7.705  69.649  1.00  0.00    -0.121 F  
HETATM   35  C   UNL     1     -10.617   9.691  67.668  1.00  0.00    -0.334 A  
HETATM   36  C   UNL     1     -10.503  10.589  69.901  1.00  0.00    -0.213 A  
HETATM   37  C   UNL     1      -9.716   8.682  68.026  1.00  0.00    -0.184 A  
ENDBRANCH   8  31
ENDBRANCH   5   8
TORSDOF 10
ENDMDL
MODEL      120
REMARK 921   NORMALIZED FREE ENERGY PREDICTED BY IDOCK:   -4.06 KCAL/MOL
REMARK 922        TOTAL FREE ENERGY PREDICTED BY IDOCK:   -7.77 KCAL/MOL
REMARK 923 INTER-LIGAND FREE ENERGY PREDICTED BY IDOCK:   -6.42 KCAL/MOL
REMARK 924 INTRA-LIGAND FREE ENERGY PREDICTED BY IDOCK:   -1.36 KCAL/MOL
REMARK 927      BINDING AFFINITY PREDICTED BY RF-SCORE:    0.00 PKD
ROOT
HETATM    1  F   UNL     1     -12.814  10.011  72.364  1.00  0.00    -0.437 F  
HETATM    2  C   UNL     1     -12.078  10.143  71.253  1.00  0.00    -0.394 A  
HETATM    3  C   UNL     1     -12.534  10.955  70.221  1.00  0.00    -0.383 A  
HETATM    4  C   UNL     1     -11.784  11.072  69.048  1.00  0.00    -0.402 A  
HETATM    5  C   UNL     1     -10.566  10.380  68.901  1.00  0.00    -0.241 A  
HETATM    6  C   UNL     1     -10.109   9.597  69.979  1.00  0.00    -0.293 A  
HETATM    7  C   UNL     1     -10.867   9.473  71.148  1.00  0.00    -0.425 A  
ENDROOT
BRANCH   5   8
HETATM    8  C   UNL     1      -9.768  10.491  67.589  1.00  0.00    -0.165 C  
BRANCH   8   9
HETATM    9  N   UNL     1     -10.369   9.676  66.495  1.00  0.00    -0.222 NA 
HETATM   10  C   UNL     1     -10.897   8.355  66.966  1.00  0.00     0.031 C  
HETATM   11  C   UNL     1      -9.868   7.204  67.168  1.00  0.00    -0.181 C  
HETATM   12  C   UNL     1      -9.437   9.405  65.367  1.00  0.00    -0.253 C  
HETATM   13  C   UNL     1      -8.354   8.338  65.638  1.00  0.00    -0.148 C  
HETATM   14  N   UNL     1      -9.028   7.077  65.969  1.00  0.00    -0.141 NA 
BRANCH  14  15
HETATM   15  C   UNL     1      -8.188   5.963  66.027  1.00  0.00    -0.123 A  
HETATM   16  N   UNL     1      -7.849   5.488  67.216  1.00  0.00    -0.100 NA 
HETATM   17  C   UNL     1      -7.027   4.452  67.226  1.00  0.00    -0.063 A  
HETATM   18  N   UNL     1      -7.762   5.436  64.882  1.00  0.00    -0.084 NA 
HETATM   19  N   UNL     1      -6.502   3.910  66.139  1.00  0.00    -0.036 NA 
HETATM   20  C   UNL     1      -6.927   4.406  64.985  1.00  0.00    -0.058 A  
BRANCH  17  21
HETATM   21  N   UNL     1      -6.732   3.828  68.424  1.00  0.00    -0.045 NA 
HETATM   22  H   UNL     1      -6.627   4.359  69.288  1.00  0.00     0.000 HD 
BRANCH  21  23
HETATM   23  C   UNL     1      -6.577   2.397  68.398  1.00  0.00    -0.029 C  
BRANCH  23  24
HETATM   24  C   UNL     1      -7.866   1.830  68.905  1.00  0.00    -0.051 C  
HETATM   25  C   UNL     1      -9.038   1.880  68.255  1.00  0.00    -0.207 C  
ENDBRANCH  23  24
ENDBRANCH  21  23
ENDBRANCH  17  21
BRANCH  20  26
HETATM   26  N   UNL     1      -6.525   3.704  63.864  1.00  0.00    -0.033 NA 
HETATM   27  H   UNL     1      -5.533   3.593  63.654  1.00  0.00     0.000 HD 
BRANCH  26  28
HETATM   28  C   UNL     1      -7.523   3.132  62.994  1.00  0.00    -0.054 C  
BRANCH  28  29
HETATM   29  C   UNL     1      -8.184   1.992  63.725  1.00  0.00    -0.080 C  
HETATM   30  C   UNL     1      -9.413   1.523  63.468  1.00  0.00    -0.105 C  
ENDBRANCH  28  29
ENDBRANCH  26  28
ENDBRANCH  20  26
ENDBRANCH  14  15
ENDBRANCH   8   9
BRANCH   8  31
HETATM   31  C   UNL     1      -9.559  11.984  67.231  1.00  0.00    -0.185 A  
HETATM   32  C   UNL     1      -9.050  14.662  66.543  1.00  0.00    -0.237 A  
HETATM   33  C   UNL     1     -10.120  13.993  65.969  1.00  0.00    -0.327 A  
HETATM   34  F   UNL     1      -8.782  15.924  66.178  1.00  0.00    -0.307 F  
HETATM   35  C   UNL     1      -8.506  12.701  67.831  1.00  0.00    -0.173 A  
HETATM   36  C   UNL     1     -10.383  12.665  66.321  1.00  0.00    -0.269 A  
HETATM   37  C   UNL     1      -8.249  14.032  67.483  1.00  0.00    -0.195 A  
ENDBRANCH   8  31
ENDBRANCH   5   8
TORSDOF 10
ENDMDL
MODEL      121
REMARK 921   NORMALIZED FREE ENERGY PREDICTED BY IDOCK:   -4.05 KCAL/MOL
REMARK 922        TOTAL FREE ENERGY PREDICTED BY IDOCK:   -7.76 KCAL/MOL
REMARK 923 INTER-LIGAND FREE ENERGY PREDICTED BY IDOCK:   -8.79 KCAL/MOL
REMARK 924 INTRA-LIGAND FREE ENERGY PREDICTED BY IDOCK:    1.03 KCAL/MOL
REMARK 927      BINDING AFFINITY PREDICTED BY RF-SCORE:    0.00 PKD
ROOT
HETATM    1  F   UNL     1      -7.167   6.401  74.492  1.00  0.00    -0.097 F  
HETATM    2  C   UNL     1      -7.555   6.729  73.252  1.00  0.00    -0.089 A  
HETATM    3  C   UNL     1      -8.558   5.994  72.631  1.00  0.00    -0.118 A  
HETATM    4  C   UNL     1      -8.943   6.313  71.327  1.00  0.00    -0.139 A  
HETATM    5  C   UNL     1      -8.330   7.375  70.634  1.00  0.00    -0.127 A  
HETATM    6  C   UNL     1      -7.345   8.127  71.303  1.00  0.00    -0.072 A  
HETATM    7  C   UNL     1      -6.952   7.799  72.605  1.00  0.00    -0.082 A  
ENDROOT
BRANCH   5   8
HETATM    8  C   UNL     1      -8.742   7.691  69.185  1.00  0.00    -0.139 C  
BRANCH   8   9
HETATM    9  N   UNL     1     -10.222   7.770  69.026  1.00  0.00    -0.204 NA 
HETATM   10  C   UNL     1     -10.645   8.267  67.677  1.00  0.00    -0.194 C  
HETATM   11  C   UNL     1     -10.604   9.805  67.436  1.00  0.00    -0.267 C  
HETATM   12  C   UNL     1     -10.891   8.625  70.044  1.00  0.00    -0.221 C  
HETATM   13  C   UNL     1     -10.736  10.148  69.840  1.00  0.00    -0.295 C  
HETATM   14  N   UNL     1     -11.300  10.494  68.531  1.00  0.00    -0.273 NA 
BRANCH  14  15
HETATM   15  C   UNL     1     -11.432  11.864  68.294  1.00  0.00    -0.311 A  
HETATM   16  N   UNL     1     -11.719  12.656  69.316  1.00  0.00    -0.310 NA 
HETATM   17  C   UNL     1     -11.867  13.942  69.043  1.00  0.00    -0.358 A  
HETATM   18  N   UNL     1     -11.269  12.307  67.050  1.00  0.00    -0.290 NA 
HETATM   19  N   UNL     1     -11.791  14.456  67.825  1.00  0.00    -0.374 NA 
HETATM   20  C   UNL     1     -11.451  13.611  66.863  1.00  0.00    -0.345 A  
BRANCH  17  21
HETATM   21  N   UNL     1     -12.044  14.843  70.076  1.00  0.00    -0.319 NA 
HETATM   22  H   UNL     1     -11.995  15.849  69.919  1.00  0.00     0.000 HD 
BRANCH  21  23
HETATM   23  C   UNL     1     -12.299  14.299  71.385  1.00  0.00    -0.353 C  
BRANCH  23  24
HETATM   24  C   UNL     1     -12.110  15.428  72.349  1.00  0.00    -0.512 C  
HETATM   25  C   UNL     1     -12.359  15.366  73.665  1.00  0.00    -0.697 C  
ENDBRANCH  23  24
ENDBRANCH  21  23
ENDBRANCH  17  21
BRANCH  20  26
HETATM   26  N   UNL     1     -11.183  14.195  65.639  1.00  0.00    -0.303 NA 
HETATM   27  H   UNL     1     -10.241  14.521  65.419  1.00  0.00     0.000 HD 
BRANCH  26  28
HETATM   28  C   UNL     1     -12.248  14.340  64.677  1.00  0.00    -0.454 C  
BRANCH  28  29
HETATM   29  C   UNL     1     -12.031  13.329  63.582  1.00  0.00    -0.547 C  
HETATM   30  C   UNL     1     -12.419  12.047  63.631  1.00  0.00    -0.637 C  
ENDBRANCH  28  29
ENDBRANCH  26  28
ENDBRANCH  20  26
ENDBRANCH  14  15
ENDBRANCH   8   9
BRANCH   8  31
HETATM   31  C   UNL     1      -7.979   8.945  68.688  1.00  0.00    -0.103 A  
HETATM   32  C   UNL     1      -6.513  11.210  67.900  1.00  0.00    -0.058 A  
HETATM   33  C   UNL     1      -6.630  10.130  67.039  1.00  0.00    -0.074 A  
HETATM   34  F   UNL     1      -5.776  12.271  67.539  1.00  0.00    -0.073 F  
HETATM   35  C   UNL     1      -7.881  10.074  69.524  1.00  0.00    -0.155 A  
HETATM   36  C   UNL     1      -7.371   9.008  67.424  1.00  0.00    -0.084 A  
HETATM   37  C   UNL     1      -7.146  11.199  69.133  1.00  0.00    -0.116 A  
ENDBRANCH   8  31
ENDBRANCH   5   8
TORSDOF 10
ENDMDL
MODEL      122
REMARK 921   NORMALIZED FREE ENERGY PREDICTED BY IDOCK:   -4.01 KCAL/MOL
REMARK 922        TOTAL FREE ENERGY PREDICTED BY IDOCK:   -7.70 KCAL/MOL
REMARK 923 INTER-LIGAND FREE ENERGY PREDICTED BY IDOCK:   -6.92 KCAL/MOL
REMARK 924 INTRA-LIGAND FREE ENERGY PREDICTED BY IDOCK:   -0.78 KCAL/MOL
REMARK 927      BINDING AFFINITY PREDICTED BY RF-SCORE:    0.00 PKD
ROOT
HETATM    1  F   UNL     1     -13.281  12.016  62.954  1.00  0.00    -0.409 F  
HETATM    2  C   UNL     1     -12.356  12.218  63.900  1.00  0.00    -0.509 A  
HETATM    3  C   UNL     1     -11.087  11.671  63.746  1.00  0.00    -0.499 A  
HETATM    4  C   UNL     1     -10.128  11.853  64.746  1.00  0.00    -0.295 A  
HETATM    5  C   UNL     1     -10.430  12.590  65.907  1.00  0.00    -0.289 A  
HETATM    6  C   UNL     1     -11.711  13.166  66.018  1.00  0.00    -0.424 A  
HETATM    7  C   UNL     1     -12.673  12.973  65.021  1.00  0.00    -0.475 A  
ENDROOT
BRANCH   5   8
HETATM    8  C   UNL     1      -9.374  12.753  67.015  1.00  0.00    -0.229 C  
BRANCH   8   9
HETATM    9  N   UNL     1      -8.056  12.176  66.624  1.00  0.00    -0.053 NA 
HETATM   10  C   UNL     1      -8.112  10.702  66.359  1.00  0.00    -0.148 C  
HETATM   11  C   UNL     1      -8.086   9.752  67.593  1.00  0.00    -0.113 C  
HETATM   12  C   UNL     1      -6.978  12.406  67.624  1.00  0.00    -0.132 C  
HETATM   13  C   UNL     1      -7.045  11.526  68.892  1.00  0.00    -0.111 C  
HETATM   14  N   UNL     1      -6.972  10.121  68.477  1.00  0.00    -0.068 NA 
BRANCH  14  15
HETATM   15  C   UNL     1      -6.802   9.211  69.522  1.00  0.00    -0.048 A  
HETATM   16  N   UNL     1      -7.209   9.557  70.734  1.00  0.00    -0.234 NA 
HETATM   17  C   UNL     1      -6.999   8.679  71.701  1.00  0.00    -0.085 A  
HETATM   18  N   UNL     1      -6.230   8.040  69.251  1.00  0.00    -0.034 NA 
HETATM   19  N   UNL     1      -6.377   7.523  71.532  1.00  0.00    -0.036 NA 
HETATM   20  C   UNL     1      -6.044   7.225  70.284  1.00  0.00    -0.024 A  
BRANCH  17  21
HETATM   21  N   UNL     1      -7.509   8.920  72.963  1.00  0.00    -0.322 NA 
HETATM   22  H   UNL     1      -7.685   9.869  73.293  1.00  0.00     0.000 HD 
BRANCH  21  23
HETATM   23  C   UNL     1      -7.782   7.775  73.791  1.00  0.00    -0.152 C  
BRANCH  23  24
HETATM   24  C   UNL     1      -9.188   7.364  73.486  1.00  0.00    -0.275 C  
HETATM   25  C   UNL     1      -9.598   6.102  73.297  1.00  0.00    -0.148 C  
ENDBRANCH  23  24
ENDBRANCH  21  23
ENDBRANCH  17  21
BRANCH  20  26
HETATM   26  N   UNL     1      -5.578   5.937  70.096  1.00  0.00    -0.012 NA 
HETATM   27  H   UNL     1      -5.248   5.637  69.178  1.00  0.00     0.000 HD 
BRANCH  26  28
HETATM   28  C   UNL     1      -5.563   5.021  71.210  1.00  0.00    -0.008 C  
BRANCH  28  29
HETATM   29  C   UNL     1      -5.353   3.630  70.671  1.00  0.00    -0.008 C  
HETATM   30  C   UNL     1      -6.234   2.956  69.919  1.00  0.00    -0.024 C  
ENDBRANCH  28  29
ENDBRANCH  26  28
ENDBRANCH  20  26
ENDBRANCH  14  15
ENDBRANCH   8   9
BRANCH   8  31
HETATM   31  C   UNL     1      -9.313  14.233  67.465  1.00  0.00    -0.199 A  
HETATM   32  C   UNL     1      -9.106  16.886  68.374  1.00  0.00    -0.243 A  
HETATM   33  C   UNL     1      -8.910  16.599  67.032  1.00  0.00    -0.220 A  
HETATM   34  F   UNL     1      -8.962  18.145  68.813  1.00  0.00    -0.304 F  
HETATM   35  C   UNL     1      -9.551  14.559  68.814  1.00  0.00    -0.193 A  
HETATM   36  C   UNL     1      -9.027  15.282  66.576  1.00  0.00    -0.340 A  
HETATM   37  C   UNL     1      -9.441  15.880  69.267  1.00  0.00    -0.260 A  
ENDBRANCH   8  31
ENDBRANCH   5   8
TORSDOF 10
ENDMDL
MODEL      123
REMARK 921   NORMALIZED FREE ENERGY PREDICTED BY IDOCK:   -4.00 KCAL/MOL
REMARK 922        TOTAL FREE ENERGY PREDICTED BY IDOCK:   -7.68 KCAL/MOL
REMARK 923 INTER-LIGAND FREE ENERGY PREDICTED BY IDOCK:   -6.50 KCAL/MOL
REMARK 924 INTRA-LIGAND FREE ENERGY PREDICTED BY IDOCK:   -1.18 KCAL/MOL
REMARK 927      BINDING AFFINITY PREDICTED BY RF-SCORE:    0.00 PKD
ROOT
HETATM    1  F   UNL     1     -12.302   9.069  72.572  1.00  0.00    -0.422 F  
HETATM    2  C   UNL     1     -11.769   9.654  71.492  1.00  0.00    -0.400 A  
HETATM    3  C   UNL     1     -12.527  10.559  70.759  1.00  0.00    -0.472 A  
HETATM    4  C   UNL     1     -11.985  11.149  69.614  1.00  0.00    -0.429 A  
HETATM    5  C   UNL     1     -10.676  10.840  69.196  1.00  0.00    -0.265 A  
HETATM    6  C   UNL     1      -9.917   9.950  69.981  1.00  0.00    -0.302 A  
HETATM    7  C   UNL     1     -10.466   9.352  71.120  1.00  0.00    -0.392 A  
ENDROOT
BRANCH   5   8
HETATM    8  C   UNL     1     -10.106  11.472  67.912  1.00  0.00    -0.189 C  
BRANCH   8   9
HETATM    9  N   UNL     1     -10.623  10.808  66.682  1.00  0.00    -0.246 NA 
HETATM   10  C   UNL     1     -11.008   9.376  66.902  1.00  0.00     0.172 C  
HETATM   11  C   UNL     1      -9.863   8.320  66.910  1.00  0.00    -0.247 C  
HETATM   12  C   UNL     1      -9.672  10.841  65.537  1.00  0.00    -0.239 C  
HETATM   13  C   UNL     1      -8.482   9.861  65.629  1.00  0.00    -0.144 C  
HETATM   14  N   UNL     1      -9.018   8.498  65.721  1.00  0.00    -0.190 NA 
BRANCH  14  15
HETATM   15  C   UNL     1      -8.067   7.485  65.592  1.00  0.00    -0.128 A  
HETATM   16  N   UNL     1      -7.258   7.244  66.612  1.00  0.00    -0.078 NA 
HETATM   17  C   UNL     1      -6.350   6.298  66.436  1.00  0.00    -0.042 A  
HETATM   18  N   UNL     1      -8.013   6.814  64.443  1.00  0.00    -0.117 NA 
HETATM   19  N   UNL     1      -6.183   5.631  65.305  1.00  0.00    -0.029 NA 
HETATM   20  C   UNL     1      -7.060   5.892  64.347  1.00  0.00    -0.053 A  
BRANCH  17  21
HETATM   21  N   UNL     1      -5.557   5.909  67.499  1.00  0.00    -0.011 NA 
HETATM   22  H   UNL     1      -5.124   4.985  67.529  1.00  0.00     0.000 HD 
BRANCH  21  23
HETATM   23  C   UNL     1      -5.366   6.862  68.561  1.00  0.00    -0.016 C  
BRANCH  23  24
HETATM   24  C   UNL     1      -5.939   6.234  69.792  1.00  0.00    -0.018 C  
HETATM   25  C   UNL     1      -6.447   6.907  70.834  1.00  0.00    -0.048 C  
ENDBRANCH  23  24
ENDBRANCH  21  23
ENDBRANCH  17  21
BRANCH  20  26
HETATM   26  N   UNL     1      -6.996   5.051  63.251  1.00  0.00    -0.041 NA 
HETATM   27  H   UNL     1      -6.097   4.830  62.823  1.00  0.00     0.000 HD 
BRANCH  26  28
HETATM   28  C   UNL     1      -8.214   4.490  62.719  1.00  0.00    -0.089 C  
BRANCH  28  29
HETATM   29  C   UNL     1      -8.807   3.580  63.763  1.00  0.00    -0.094 C  
HETATM   30  C   UNL     1      -8.136   2.622  64.419  1.00  0.00    -0.082 C  
ENDBRANCH  28  29
ENDBRANCH  26  28
ENDBRANCH  20  26
ENDBRANCH  14  15
ENDBRANCH   8   9
BRANCH   8  31
HETATM   31  C   UNL     1     -10.320  13.005  67.947  1.00  0.00    -0.233 A  
HETATM   32  C   UNL     1     -10.835  15.767  68.062  1.00  0.00    -0.309 A  
HETATM   33  C   UNL     1      -9.729  15.243  68.714  1.00  0.00    -0.212 A  
HETATM   34  F   UNL     1     -11.104  17.077  68.156  1.00  0.00    -0.364 F  
HETATM   35  C   UNL     1     -11.410  13.570  67.258  1.00  0.00    -0.339 A  
HETATM   36  C   UNL     1      -9.464  13.872  68.646  1.00  0.00    -0.123 A  
HETATM   37  C   UNL     1     -11.670  14.945  67.320  1.00  0.00    -0.308 A  
ENDBRANCH   8  31
ENDBRANCH   5   8
TORSDOF 10
ENDMDL
MODEL      124
REMARK 921   NORMALIZED FREE ENERGY PREDICTED BY IDOCK:   -3.99 KCAL/MOL
REMARK 922        TOTAL FREE ENERGY PREDICTED BY IDOCK:   -7.67 KCAL/MOL
REMARK 923 INTER-LIGAND FREE ENERGY PREDICTED BY IDOCK:   -9.02 KCAL/MOL
REMARK 924 INTRA-LIGAND FREE ENERGY PREDICTED BY IDOCK:    1.35 KCAL/MOL
REMARK 927      BINDING AFFINITY PREDICTED BY RF-SCORE:    0.00 PKD
ROOT
HETATM    1  F   UNL     1     -11.507  13.165  63.374  1.00  0.00    -0.458 F  
HETATM    2  C   UNL     1     -10.802  12.307  64.123  1.00  0.00    -0.365 A  
HETATM    3  C   UNL     1     -10.509  12.630  65.442  1.00  0.00    -0.306 A  
HETATM    4  C   UNL     1      -9.747  11.752  66.218  1.00  0.00    -0.242 A  
HETATM    5  C   UNL     1      -9.277  10.539  65.679  1.00  0.00    -0.221 A  
HETATM    6  C   UNL     1      -9.623  10.220  64.351  1.00  0.00    -0.378 A  
HETATM    7  C   UNL     1     -10.376  11.106  63.573  1.00  0.00    -0.446 A  
ENDROOT
BRANCH   5   8
HETATM    8  C   UNL     1      -8.410   9.598  66.535  1.00  0.00    -0.120 C  
BRANCH   8   9
HETATM    9  N   UNL     1      -8.172  10.143  67.902  1.00  0.00    -0.109 NA 
HETATM   10  C   UNL     1      -7.389   9.214  68.780  1.00  0.00    -0.075 C  
HETATM   11  C   UNL     1      -8.163   8.043  69.454  1.00  0.00    -0.122 C  
HETATM   12  C   UNL     1      -9.419  10.498  68.633  1.00  0.00    -0.172 C  
HETATM   13  C   UNL     1     -10.226   9.305  69.193  1.00  0.00    -0.206 C  
HETATM   14  N   UNL     1      -9.364   8.565  70.120  1.00  0.00    -0.158 NA 
BRANCH  14  15
HETATM   15  C   UNL     1     -10.018   7.588  70.873  1.00  0.00    -0.180 A  
HETATM   16  N   UNL     1      -9.300   6.604  71.392  1.00  0.00    -0.152 NA 
HETATM   17  C   UNL     1      -9.963   5.682  72.070  1.00  0.00    -0.177 A  
HETATM   18  N   UNL     1     -11.337   7.688  71.026  1.00  0.00    -0.268 NA 
HETATM   19  N   UNL     1     -11.279   5.668  72.213  1.00  0.00    -0.271 NA 
HETATM   20  C   UNL     1     -11.924   6.710  71.709  1.00  0.00    -0.345 A  
BRANCH  17  21
HETATM   21  N   UNL     1      -9.265   4.697  72.743  1.00  0.00    -0.128 NA 
HETATM   22  H   UNL     1      -8.270   4.543  72.579  1.00  0.00     0.000 HD 
BRANCH  21  23
HETATM   23  C   UNL     1     -10.002   3.897  73.686  1.00  0.00    -0.123 C  
BRANCH  23  24
HETATM   24  C   UNL     1     -10.388   2.646  72.960  1.00  0.00    -0.235 C  
HETATM   25  C   UNL     1     -11.326   1.778  73.366  1.00  0.00    -0.294 C  
ENDBRANCH  23  24
ENDBRANCH  21  23
ENDBRANCH  17  21
BRANCH  20  26
HETATM   26  N   UNL     1     -13.265   6.781  72.036  1.00  0.00    -0.527 NA 
HETATM   27  H   UNL     1     -13.675   6.105  72.681  1.00  0.00     0.000 HD 
BRANCH  26  28
HETATM   28  C   UNL     1     -14.080   7.821  71.456  1.00  0.00    -0.404 C  
BRANCH  28  29
HETATM   29  C   UNL     1     -13.984   9.038  72.338  1.00  0.00    -0.517 C  
HETATM   30  C   UNL     1     -13.387  10.190  71.998  1.00  0.00    -0.492 C  
ENDBRANCH  28  29
ENDBRANCH  26  28
ENDBRANCH  20  26
ENDBRANCH  14  15
ENDBRANCH   8   9
BRANCH   8  31
HETATM   31  C   UNL     1      -9.011   8.171  66.513  1.00  0.00    -0.191 A  
HETATM   32  C   UNL     1     -10.010   5.544  66.571  1.00  0.00    -0.185 A  
HETATM   33  C   UNL     1     -10.863   6.612  66.800  1.00  0.00    -0.322 A  
HETATM   34  F   UNL     1     -10.480   4.290  66.644  1.00  0.00    -0.221 F  
HETATM   35  C   UNL     1      -8.176   7.070  66.241  1.00  0.00    -0.120 A  
HETATM   36  C   UNL     1     -10.371   7.920  66.758  1.00  0.00    -0.357 A  
HETATM   37  C   UNL     1      -8.673   5.761  66.276  1.00  0.00    -0.134 A  
ENDBRANCH   8  31
ENDBRANCH   5   8
TORSDOF 10
ENDMDL
MODEL      125
REMARK 921   NORMALIZED FREE ENERGY PREDICTED BY IDOCK:   -3.99 KCAL/MOL
REMARK 922        TOTAL FREE ENERGY PREDICTED BY IDOCK:   -7.66 KCAL/MOL
REMARK 923 INTER-LIGAND FREE ENERGY PREDICTED BY IDOCK:   -8.26 KCAL/MOL
REMARK 924 INTRA-LIGAND FREE ENERGY PREDICTED BY IDOCK:    0.60 KCAL/MOL
REMARK 927      BINDING AFFINITY PREDICTED BY RF-SCORE:    0.00 PKD
ROOT
HETATM    1  F   UNL     1     -12.977  14.154  72.879  1.00  0.00    -0.482 F  
HETATM    2  C   UNL     1     -12.511  14.497  71.671  1.00  0.00    -0.352 A  
HETATM    3  C   UNL     1     -12.578  13.583  70.626  1.00  0.00    -0.345 A  
HETATM    4  C   UNL     1     -12.065  13.926  69.372  1.00  0.00    -0.384 A  
HETATM    5  C   UNL     1     -11.485  15.191  69.153  1.00  0.00    -0.322 A  
HETATM    6  C   UNL     1     -11.468  16.111  70.220  1.00  0.00    -0.319 A  
HETATM    7  C   UNL     1     -11.972  15.761  71.477  1.00  0.00    -0.506 A  
ENDROOT
BRANCH   5   8
HETATM    8  C   UNL     1     -10.894  15.541  67.775  1.00  0.00    -0.309 C  
BRANCH   8   9
HETATM    9  N   UNL     1      -9.404  15.579  67.798  1.00  0.00    -0.195 NA 
HETATM   10  C   UNL     1      -8.781  15.058  66.539  1.00  0.00    -0.208 C  
HETATM   11  C   UNL     1      -8.672  13.512  66.381  1.00  0.00     0.247 C  
HETATM   12  C   UNL     1      -8.800  14.830  68.934  1.00  0.00    -0.164 C  
HETATM   13  C   UNL     1      -8.810  13.292  68.799  1.00  0.00     0.150 C  
HETATM   14  N   UNL     1      -8.065  12.934  67.587  1.00  0.00    -0.153 NA 
BRANCH  14  15
HETATM   15  C   UNL     1      -7.799  11.572  67.445  1.00  0.00    -0.143 A  
HETATM   16  N   UNL     1      -7.801  10.811  68.529  1.00  0.00    -0.114 NA 
HETATM   17  C   UNL     1      -7.513   9.532  68.355  1.00  0.00    -0.077 A  
HETATM   18  N   UNL     1      -7.548  11.102  66.225  1.00  0.00    -0.116 NA 
HETATM   19  N   UNL     1      -7.185   8.997  67.189  1.00  0.00    -0.082 NA 
HETATM   20  C   UNL     1      -7.254   9.808  66.143  1.00  0.00    -0.100 A  
BRANCH  17  21
HETATM   21  N   UNL     1      -7.618   8.657  69.420  1.00  0.00    -0.090 NA 
HETATM   22  H   UNL     1      -7.415   7.663  69.314  1.00  0.00     0.000 HD 
BRANCH  21  23
HETATM   23  C   UNL     1      -8.027   9.209  70.685  1.00  0.00    -0.154 C  
BRANCH  23  24
HETATM   24  C   UNL     1      -9.412   8.702  70.934  1.00  0.00    -0.242 C  
HETATM   25  C   UNL     1     -10.540   9.345  70.597  1.00  0.00    -0.354 C  
ENDBRANCH  23  24
ENDBRANCH  21  23
ENDBRANCH  17  21
BRANCH  20  26
HETATM   26  N   UNL     1      -7.103   9.193  64.915  1.00  0.00    -0.094 NA 
HETATM   27  H   UNL     1      -6.171   9.017  64.537  1.00  0.00     0.000 HD 
BRANCH  26  28
HETATM   28  C   UNL     1      -8.276   8.800  64.173  1.00  0.00    -0.162 C  
BRANCH  28  29
HETATM   29  C   UNL     1      -8.692   9.960  63.306  1.00  0.00    -0.227 C  
HETATM   30  C   UNL     1      -9.860  10.611  63.401  1.00  0.00    -0.376 C  
ENDBRANCH  28  29
ENDBRANCH  26  28
ENDBRANCH  20  26
ENDBRANCH  14  15
ENDBRANCH   8   9
BRANCH   8  31
HETATM   31  C   UNL     1     -11.491  14.602  66.698  1.00  0.00    -0.363 A  
HETATM   32  C   UNL     1     -12.469  12.931  64.659  1.00  0.00    -0.434 A  
HETATM   33  C   UNL     1     -12.230  12.412  65.922  1.00  0.00    -0.220 A  
HETATM   34  F   UNL     1     -12.892  12.122  63.677  1.00  0.00    -0.572 F  
HETATM   35  C   UNL     1     -11.784  15.112  65.418  1.00  0.00    -0.092 A  
HETATM   36  C   UNL     1     -11.757  13.245  66.941  1.00  0.00    -0.437 A  
HETATM   37  C   UNL     1     -12.265  14.278  64.402  1.00  0.00    -0.471 A  
ENDBRANCH   8  31
ENDBRANCH   5   8
TORSDOF 10
ENDMDL
MODEL      126
REMARK 921   NORMALIZED FREE ENERGY PREDICTED BY IDOCK:   -3.98 KCAL/MOL
REMARK 922        TOTAL FREE ENERGY PREDICTED BY IDOCK:   -7.66 KCAL/MOL
REMARK 923 INTER-LIGAND FREE ENERGY PREDICTED BY IDOCK:   -9.41 KCAL/MOL
REMARK 924 INTRA-LIGAND FREE ENERGY PREDICTED BY IDOCK:    1.75 KCAL/MOL
REMARK 927      BINDING AFFINITY PREDICTED BY RF-SCORE:    0.00 PKD
ROOT
HETATM    1  F   UNL     1      -6.149  13.229  69.407  1.00  0.00    -0.082 F  
HETATM    2  C   UNL     1      -7.184  13.814  68.790  1.00  0.00    -0.106 A  
HETATM    3  C   UNL     1      -7.759  14.951  69.344  1.00  0.00    -0.150 A  
HETATM    4  C   UNL     1      -8.858  15.546  68.719  1.00  0.00    -0.203 A  
HETATM    5  C   UNL     1      -9.388  15.009  67.530  1.00  0.00    -0.195 A  
HETATM    6  C   UNL     1      -8.760  13.879  66.970  1.00  0.00    -0.215 A  
HETATM    7  C   UNL     1      -7.666  13.279  67.604  1.00  0.00    -0.171 A  
ENDROOT
BRANCH   5   8
HETATM    8  C   UNL     1     -10.621  15.656  66.873  1.00  0.00    -0.311 C  
BRANCH   8   9
HETATM    9  N   UNL     1     -11.897  15.070  67.374  1.00  0.00    -0.246 NA 
HETATM   10  C   UNL     1     -11.944  14.947  68.867  1.00  0.00    -0.260 C  
HETATM   11  C   UNL     1     -11.211  13.732  69.509  1.00  0.00    -0.165 C  
HETATM   12  C   UNL     1     -12.204  13.727  66.809  1.00  0.00    -0.397 C  
HETATM   13  C   UNL     1     -11.379  12.556  67.386  1.00  0.00    -0.313 C  
HETATM   14  N   UNL     1     -11.621  12.494  68.831  1.00  0.00    -0.296 NA 
BRANCH  14  15
HETATM   15  C   UNL     1     -11.117  11.355  69.460  1.00  0.00    -0.211 A  
HETATM   16  N   UNL     1     -11.826  10.805  70.435  1.00  0.00    -0.329 NA 
HETATM   17  C   UNL     1     -11.297   9.746  71.026  1.00  0.00    -0.387 A  
HETATM   18  N   UNL     1      -9.942  10.878  69.054  1.00  0.00    -0.207 NA 
HETATM   19  N   UNL     1     -10.106   9.250  70.732  1.00  0.00    -0.268 NA 
HETATM   20  C   UNL     1      -9.479   9.821  69.713  1.00  0.00    -0.228 A  
BRANCH  17  21
HETATM   21  N   UNL     1     -12.036   9.049  71.964  1.00  0.00    -0.368 NA 
HETATM   22  H   UNL     1     -12.765   9.505  72.512  1.00  0.00     0.000 HD 
BRANCH  21  23
HETATM   23  C   UNL     1     -11.732   7.652  72.133  1.00  0.00    -0.311 C  
BRANCH  23  24
HETATM   24  C   UNL     1     -12.378   6.943  70.984  1.00  0.00    -0.401 C  
HETATM   25  C   UNL     1     -11.728   6.436  69.927  1.00  0.00    -0.309 C  
ENDBRANCH  23  24
ENDBRANCH  21  23
ENDBRANCH  17  21
BRANCH  20  26
HETATM   26  N   UNL     1      -8.334   9.170  69.293  1.00  0.00    -0.119 NA 
HETATM   27  H   UNL     1      -7.414   9.556  69.505  1.00  0.00     0.000 HD 
BRANCH  26  28
HETATM   28  C   UNL     1      -8.454   7.938  68.551  1.00  0.00    -0.128 C  
BRANCH  28  29
HETATM   29  C   UNL     1      -8.356   6.793  69.525  1.00  0.00    -0.132 C  
HETATM   30  C   UNL     1      -7.215   6.203  69.906  1.00  0.00    -0.074 C  
ENDBRANCH  28  29
ENDBRANCH  26  28
ENDBRANCH  20  26
ENDBRANCH  14  15
ENDBRANCH   8   9
BRANCH   8  31
HETATM   31  C   UNL     1     -10.533  17.196  67.003  1.00  0.00    -0.282 A  
HETATM   32  C   UNL     1     -10.258  19.977  67.316  1.00  0.00    -0.424 A  
HETATM   33  C   UNL     1     -10.302  19.426  66.044  1.00  0.00    -0.584 A  
HETATM   34  F   UNL     1     -10.081  21.298  67.463  1.00  0.00    -0.491 F  
HETATM   35  C   UNL     1     -10.530  17.787  68.281  1.00  0.00    -0.368 A  
HETATM   36  C   UNL     1     -10.452  18.045  65.887  1.00  0.00    -0.268 A  
HETATM   37  C   UNL     1     -10.387  19.171  68.436  1.00  0.00    -0.412 A  
ENDBRANCH   8  31
ENDBRANCH   5   8
TORSDOF 10
ENDMDL
MODEL      127
REMARK 921   NORMALIZED FREE ENERGY PREDICTED BY IDOCK:   -3.98 KCAL/MOL
REMARK 922        TOTAL FREE ENERGY PREDICTED BY IDOCK:   -7.66 KCAL/MOL
REMARK 923 INTER-LIGAND FREE ENERGY PREDICTED BY IDOCK:   -9.15 KCAL/MOL
REMARK 924 INTRA-LIGAND FREE ENERGY PREDICTED BY IDOCK:    1.49 KCAL/MOL
REMARK 927      BINDING AFFINITY PREDICTED BY RF-SCORE:    0.00 PKD
ROOT
HETATM    1  F   UNL     1     -12.737  13.086  63.604  1.00  0.00    -0.392 F  
HETATM    2  C   UNL     1     -11.992  12.357  64.444  1.00  0.00    -0.407 A  
HETATM    3  C   UNL     1     -12.159  12.508  65.816  1.00  0.00    -0.443 A  
HETATM    4  C   UNL     1     -11.362  11.772  66.696  1.00  0.00    -0.381 A  
HETATM    5  C   UNL     1     -10.392  10.874  66.209  1.00  0.00    -0.306 A  
HETATM    6  C   UNL     1     -10.273  10.713  64.814  1.00  0.00    -0.401 A  
HETATM    7  C   UNL     1     -11.064  11.459  63.935  1.00  0.00    -0.410 A  
ENDROOT
BRANCH   5   8
HETATM    8  C   UNL     1      -9.497  10.096  67.191  1.00  0.00    -0.158 C  
BRANCH   8   9
HETATM    9  N   UNL     1      -8.197  10.784  67.431  1.00  0.00    -0.115 NA 
HETATM   10  C   UNL     1      -8.068  11.336  68.818  1.00  0.00    -0.130 C  
HETATM   11  C   UNL     1      -8.765  12.697  69.113  1.00  0.00     0.713 C  
HETATM   12  C   UNL     1      -7.922  11.897  66.482  1.00  0.00     0.041 C  
HETATM   13  C   UNL     1      -8.715  13.198  66.733  1.00  0.00    -0.085 C  
HETATM   14  N   UNL     1      -8.394  13.676  68.083  1.00  0.00    -0.158 NA 
BRANCH  14  15
HETATM   15  C   UNL     1      -8.864  14.957  68.377  1.00  0.00    -0.178 A  
HETATM   16  N   UNL     1      -9.963  15.076  69.105  1.00  0.00    -0.235 NA 
HETATM   17  C   UNL     1     -10.392  16.306  69.333  1.00  0.00    -0.278 A  
HETATM   18  N   UNL     1      -8.187  16.001  67.903  1.00  0.00    -0.147 NA 
HETATM   19  N   UNL     1      -9.819  17.394  68.843  1.00  0.00    -0.301 NA 
HETATM   20  C   UNL     1      -8.696  17.200  68.167  1.00  0.00    -0.232 A  
BRANCH  17  21
HETATM   21  N   UNL     1     -11.459  16.509  70.188  1.00  0.00    -0.390 NA 
HETATM   22  H   UNL     1     -11.556  17.373  70.721  1.00  0.00     0.000 HD 
BRANCH  21  23
HETATM   23  C   UNL     1     -12.428  15.449  70.293  1.00  0.00    -0.374 C  
BRANCH  23  24
HETATM   24  C   UNL     1     -13.078  15.610  71.631  1.00  0.00    -0.554 C  
HETATM   25  C   UNL     1     -12.470  16.075  72.732  1.00  0.00    -0.582 C  
ENDBRANCH  23  24
ENDBRANCH  21  23
ENDBRANCH  17  21
BRANCH  20  26
HETATM   26  N   UNL     1      -8.008  18.351  67.833  1.00  0.00    -0.253 NA 
HETATM   27  H   UNL     1      -8.451  19.069  67.259  1.00  0.00     0.000 HD 
BRANCH  26  28
HETATM   28  C   UNL     1      -6.656  18.528  68.305  1.00  0.00    -0.218 C  
BRANCH  28  29
HETATM   29  C   UNL     1      -6.630  19.728  69.214  1.00  0.00    -0.387 C  
HETATM   30  C   UNL     1      -5.858  19.851  70.304  1.00  0.00    -0.346 C  
ENDBRANCH  28  29
ENDBRANCH  26  28
ENDBRANCH  20  26
ENDBRANCH  14  15
ENDBRANCH   8   9
BRANCH   8  31
HETATM   31  C   UNL     1     -10.295   9.773  68.479  1.00  0.00    -0.228 A  
HETATM   32  C   UNL     1     -11.623   9.157  70.879  1.00  0.00    -0.291 A  
HETATM   33  C   UNL     1     -11.793  10.403  70.296  1.00  0.00    -0.399 A  
HETATM   34  F   UNL     1     -12.221   8.882  72.047  1.00  0.00    -0.354 F  
HETATM   35  C   UNL     1     -10.175   8.501  69.069  1.00  0.00    -0.218 A  
HETATM   36  C   UNL     1     -11.145  10.706  69.095  1.00  0.00    -0.309 A  
HETATM   37  C   UNL     1     -10.831   8.196  70.268  1.00  0.00    -0.244 A  
ENDBRANCH   8  31
ENDBRANCH   5   8
TORSDOF 10
ENDMDL
MODEL      128
REMARK 921   NORMALIZED FREE ENERGY PREDICTED BY IDOCK:   -3.97 KCAL/MOL
REMARK 922        TOTAL FREE ENERGY PREDICTED BY IDOCK:   -7.64 KCAL/MOL
REMARK 923 INTER-LIGAND FREE ENERGY PREDICTED BY IDOCK:   -7.12 KCAL/MOL
REMARK 924 INTRA-LIGAND FREE ENERGY PREDICTED BY IDOCK:   -0.52 KCAL/MOL
REMARK 927      BINDING AFFINITY PREDICTED BY RF-SCORE:    0.00 PKD
ROOT
HETATM    1  F   UNL     1      -5.181   9.751  67.675  1.00  0.00    -0.036 F  
HETATM    2  C   UNL     1      -6.246   9.429  68.421  1.00  0.00    -0.052 A  
HETATM    3  C   UNL     1      -6.693  10.314  69.395  1.00  0.00    -0.063 A  
HETATM    4  C   UNL     1      -7.785   9.968  70.196  1.00  0.00    -0.158 A  
HETATM    5  C   UNL     1      -8.440   8.733  70.025  1.00  0.00    -0.133 A  
HETATM    6  C   UNL     1      -7.989   7.874  69.004  1.00  0.00    -0.122 A  
HETATM    7  C   UNL     1      -6.890   8.218  68.210  1.00  0.00    -0.065 A  
ENDROOT
BRANCH   5   8
HETATM    8  C   UNL     1      -9.619   8.351  70.939  1.00  0.00    -0.175 C  
BRANCH   8   9
HETATM    9  N   UNL     1     -10.908   8.284  70.194  1.00  0.00    -0.241 NA 
HETATM   10  C   UNL     1     -10.748   8.481  68.717  1.00  0.00    -0.054 C  
HETATM   11  C   UNL     1     -10.603   9.943  68.202  1.00  0.00    -0.227 C  
HETATM   12  C   UNL     1     -11.925   9.264  70.665  1.00  0.00    -0.152 C  
HETATM   13  C   UNL     1     -11.691  10.728  70.231  1.00  0.00    -0.352 C  
HETATM   14  N   UNL     1     -11.676  10.774  68.765  1.00  0.00    -0.351 NA 
BRANCH  14  15
HETATM   15  C   UNL     1     -11.693  12.059  68.220  1.00  0.00    -0.334 A  
HETATM   16  N   UNL     1     -11.262  13.066  68.964  1.00  0.00    -0.264 NA 
HETATM   17  C   UNL     1     -11.324  14.271  68.421  1.00  0.00    -0.283 A  
HETATM   18  N   UNL     1     -12.149  12.211  66.978  1.00  0.00    -0.546 NA 
HETATM   19  N   UNL     1     -11.826  14.520  67.222  1.00  0.00    -0.407 NA 
HETATM   20  C   UNL     1     -12.190  13.458  66.518  1.00  0.00    -0.356 A  
BRANCH  17  21
HETATM   21  N   UNL     1     -10.777  15.349  69.090  1.00  0.00    -0.233 NA 
HETATM   22  H   UNL     1     -11.338  15.929  69.714  1.00  0.00     0.000 HD 
BRANCH  21  23
HETATM   23  C   UNL     1      -9.380  15.620  68.870  1.00  0.00    -0.223 C  
BRANCH  23  24
HETATM   24  C   UNL     1      -9.324  16.781  67.928  1.00  0.00    -0.229 C  
HETATM   25  C   UNL     1      -9.964  17.946  68.102  1.00  0.00    -0.350 C  
ENDBRANCH  23  24
ENDBRANCH  21  23
ENDBRANCH  17  21
BRANCH  20  26
HETATM   26  N   UNL     1     -12.525  13.715  65.201  1.00  0.00    -0.516 NA 
HETATM   27  H   UNL     1     -13.492  13.628  64.888  1.00  0.00     0.000 HD 
BRANCH  26  28
HETATM   28  C   UNL     1     -11.492  14.110  64.275  1.00  0.00    -0.272 C  
BRANCH  28  29
HETATM   29  C   UNL     1     -11.586  15.600  64.074  1.00  0.00     0.079 C  
HETATM   30  C   UNL     1     -10.791  16.506  64.661  1.00  0.00    -0.003 C  
ENDBRANCH  28  29
ENDBRANCH  26  28
ENDBRANCH  20  26
ENDBRANCH  14  15
ENDBRANCH   8   9
BRANCH   8  31
HETATM   31  C   UNL     1      -9.271   7.066  71.729  1.00  0.00    -0.145 A  
HETATM   32  C   UNL     1      -8.621   4.665  73.041  1.00  0.00    -0.113 A  
HETATM   33  C   UNL     1      -7.892   5.815  73.304  1.00  0.00    -0.106 A  
HETATM   34  F   UNL     1      -8.281   3.512  73.635  1.00  0.00    -0.075 F  
HETATM   35  C   UNL     1     -10.022   5.894  71.515  1.00  0.00    -0.221 A  
HETATM   36  C   UNL     1      -8.223   7.013  72.662  1.00  0.00    -0.117 A  
HETATM   37  C   UNL     1      -9.695   4.698  72.164  1.00  0.00    -0.219 A  
ENDBRANCH   8  31
ENDBRANCH   5   8
TORSDOF 10
ENDMDL
MODEL      129
REMARK 921   NORMALIZED FREE ENERGY PREDICTED BY IDOCK:   -3.97 KCAL/MOL
REMARK 922        TOTAL FREE ENERGY PREDICTED BY IDOCK:   -7.64 KCAL/MOL
REMARK 923 INTER-LIGAND FREE ENERGY PREDICTED BY IDOCK:   -7.25 KCAL/MOL
REMARK 924 INTRA-LIGAND FREE ENERGY PREDICTED BY IDOCK:   -0.39 KCAL/MOL
REMARK 927      BINDING AFFINITY PREDICTED BY RF-SCORE:    0.00 PKD
ROOT
HETATM    1  F   UNL     1     -12.571  10.249  72.329  1.00  0.00    -0.427 F  
HETATM    2  C   UNL     1     -11.806  10.082  71.242  1.00  0.00    -0.385 A  
HETATM    3  C   UNL     1     -10.620   9.365  71.343  1.00  0.00    -0.381 A  
HETATM    4  C   UNL     1      -9.805   9.215  70.218  1.00  0.00    -0.245 A  
HETATM    5  C   UNL     1     -10.173   9.779  68.981  1.00  0.00    -0.214 A  
HETATM    6  C   UNL     1     -11.400  10.466  68.900  1.00  0.00    -0.278 A  
HETATM    7  C   UNL     1     -12.209  10.625  70.030  1.00  0.00    -0.373 A  
ENDROOT
BRANCH   5   8
HETATM    8  C   UNL     1      -9.246   9.634  67.760  1.00  0.00    -0.124 C  
BRANCH   8   9
HETATM    9  N   UNL     1      -7.871  10.137  68.036  1.00  0.00    -0.096 NA 
HETATM   10  C   UNL     1      -7.802  11.042  69.229  1.00  0.00    -0.052 C  
HETATM   11  C   UNL     1      -8.232  12.525  69.028  1.00  0.00     0.375 C  
HETATM   12  C   UNL     1      -7.256  10.865  66.892  1.00  0.00    -0.124 C  
HETATM   13  C   UNL     1      -7.786  12.294  66.648  1.00  0.00     0.147 C  
HETATM   14  N   UNL     1      -7.541  13.086  67.859  1.00  0.00    -0.128 NA 
BRANCH  14  15
HETATM   15  C   UNL     1      -7.767  14.456  67.718  1.00  0.00    -0.161 A  
HETATM   16  N   UNL     1      -6.833  15.194  67.137  1.00  0.00    -0.250 NA 
HETATM   17  C   UNL     1      -7.072  16.491  67.052  1.00  0.00    -0.212 A  
HETATM   18  N   UNL     1      -8.910  14.957  68.181  1.00  0.00    -0.169 NA 
HETATM   19  N   UNL     1      -8.149  17.082  67.547  1.00  0.00    -0.174 NA 
HETATM   20  C   UNL     1      -9.061  16.273  68.068  1.00  0.00    -0.188 A  
BRANCH  17  21
HETATM   21  N   UNL     1      -6.200  17.301  66.349  1.00  0.00    -0.215 NA 
HETATM   22  H   UNL     1      -6.122  17.244  65.334  1.00  0.00     0.000 HD 
BRANCH  21  23
HETATM   23  C   UNL     1      -5.406  18.230  67.111  1.00  0.00    -0.129 C  
BRANCH  23  24
HETATM   24  C   UNL     1      -5.956  19.589  66.816  1.00  0.00    -0.169 C  
HETATM   25  C   UNL     1      -6.978  19.843  65.985  1.00  0.00    -0.288 C  
ENDBRANCH  23  24
ENDBRANCH  21  23
ENDBRANCH  17  21
BRANCH  20  26
HETATM   26  N   UNL     1     -10.258  16.880  68.399  1.00  0.00    -0.301 NA 
HETATM   27  H   UNL     1     -10.856  16.481  69.124  1.00  0.00     0.000 HD 
BRANCH  26  28
HETATM   28  C   UNL     1     -10.656  18.082  67.708  1.00  0.00    -0.394 C  
BRANCH  28  29
HETATM   29  C   UNL     1     -10.204  19.264  68.526  1.00  0.00    -0.471 C  
HETATM   30  C   UNL     1      -9.798  20.438  68.021  1.00  0.00    -0.377 C  
ENDBRANCH  28  29
ENDBRANCH  26  28
ENDBRANCH  20  26
ENDBRANCH  14  15
ENDBRANCH   8   9
BRANCH   8  31
HETATM   31  C   UNL     1      -9.300   8.178  67.235  1.00  0.00    -0.174 A  
HETATM   32  C   UNL     1      -9.493   5.575  66.190  1.00  0.00    -0.151 A  
HETATM   33  C   UNL     1      -8.268   6.222  66.209  1.00  0.00    -0.117 A  
HETATM   34  F   UNL     1      -9.592   4.352  65.650  1.00  0.00    -0.139 F  
HETATM   35  C   UNL     1     -10.523   7.481  67.244  1.00  0.00    -0.391 A  
HETATM   36  C   UNL     1      -8.167   7.511  66.741  1.00  0.00    -0.124 A  
HETATM   37  C   UNL     1     -10.620   6.187  66.718  1.00  0.00    -0.351 A  
ENDBRANCH   8  31
ENDBRANCH   5   8
TORSDOF 10
ENDMDL
MODEL      130
REMARK 921   NORMALIZED FREE ENERGY PREDICTED BY IDOCK:   -3.96 KCAL/MOL
REMARK 922        TOTAL FREE ENERGY PREDICTED BY IDOCK:   -7.63 KCAL/MOL
REMARK 923 INTER-LIGAND FREE ENERGY PREDICTED BY IDOCK:   -6.62 KCAL/MOL
REMARK 924 INTRA-LIGAND FREE ENERGY PREDICTED BY IDOCK:   -1.01 KCAL/MOL
REMARK 927      BINDING AFFINITY PREDICTED BY RF-SCORE:    0.00 PKD
ROOT
HETATM    1  F   UNL     1      -7.830  20.240  68.078  1.00  0.00    -0.327 F  
HETATM    2  C   UNL     1      -7.966  18.935  67.808  1.00  0.00    -0.251 A  
HETATM    3  C   UNL     1      -7.953  18.015  68.850  1.00  0.00    -0.185 A  
HETATM    4  C   UNL     1      -8.064  16.650  68.571  1.00  0.00    -0.226 A  
HETATM    5  C   UNL     1      -8.193  16.196  67.244  1.00  0.00    -0.203 A  
HETATM    6  C   UNL     1      -8.242  17.154  66.212  1.00  0.00    -0.306 A  
HETATM    7  C   UNL     1      -8.120  18.519  66.494  1.00  0.00    -0.299 A  
ENDROOT
BRANCH   5   8
HETATM    8  C   UNL     1      -8.278  14.687  66.949  1.00  0.00    -0.076 C  
BRANCH   8   9
HETATM    9  N   UNL     1      -7.789  13.863  68.091  1.00  0.00    -0.134 NA 
HETATM   10  C   UNL     1      -6.427  13.283  67.859  1.00  0.00    -0.147 C  
HETATM   11  C   UNL     1      -6.336  12.000  66.981  1.00  0.00    -0.124 C  
HETATM   12  C   UNL     1      -8.695  12.739  68.453  1.00  0.00    -0.119 C  
HETATM   13  C   UNL     1      -8.666  11.526  67.498  1.00  0.00    -0.145 C  
HETATM   14  N   UNL     1      -7.296  11.000  67.468  1.00  0.00    -0.097 NA 
BRANCH  14  15
HETATM   15  C   UNL     1      -7.156   9.772  66.820  1.00  0.00    -0.089 A  
HETATM   16  N   UNL     1      -7.931   9.515  65.777  1.00  0.00    -0.109 NA 
HETATM   17  C   UNL     1      -7.788   8.328  65.212  1.00  0.00    -0.120 A  
HETATM   18  N   UNL     1      -6.253   8.912  67.287  1.00  0.00    -0.058 NA 
HETATM   19  N   UNL     1      -6.965   7.390  65.653  1.00  0.00    -0.059 NA 
HETATM   20  C   UNL     1      -6.187   7.737  66.669  1.00  0.00    -0.049 A  
BRANCH  17  21
HETATM   21  N   UNL     1      -8.473   8.040  64.046  1.00  0.00    -0.390 NA 
HETATM   22  H   UNL     1      -9.242   7.371  64.033  1.00  0.00     0.000 HD 
BRANCH  21  23
HETATM   23  C   UNL     1      -8.054   8.726  62.852  1.00  0.00    -0.174 C  
BRANCH  23  24
HETATM   24  C   UNL     1      -9.216   9.567  62.425  1.00  0.00    -0.185 C  
HETATM   25  C   UNL     1      -9.302  10.896  62.578  1.00  0.00    -0.308 C  
ENDBRANCH  23  24
ENDBRANCH  21  23
ENDBRANCH  17  21
BRANCH  20  26
HETATM   26  N   UNL     1      -5.201   6.823  66.989  1.00  0.00    -0.009 NA 
HETATM   27  H   UNL     1      -4.399   6.692  66.372  1.00  0.00     0.000 HD 
BRANCH  26  28
HETATM   28  C   UNL     1      -5.317   6.055  68.205  1.00  0.00    -0.004 C  
BRANCH  28  29
HETATM   29  C   UNL     1      -6.671   5.394  68.214  1.00  0.00    -0.054 C  
HETATM   30  C   UNL     1      -7.101   4.535  69.150  1.00  0.00    -0.052 C  
ENDBRANCH  28  29
ENDBRANCH  26  28
ENDBRANCH  20  26
ENDBRANCH  14  15
ENDBRANCH   8   9
BRANCH   8  31
HETATM   31  C   UNL     1      -9.707  14.330  66.472  1.00  0.00    -0.304 A  
HETATM   32  C   UNL     1     -12.339  13.812  65.629  1.00  0.00    -0.482 A  
HETATM   33  C   UNL     1     -11.278  13.558  64.774  1.00  0.00    -0.363 A  
HETATM   34  F   UNL     1     -13.596  13.607  65.209  1.00  0.00    -0.195 F  
HETATM   35  C   UNL     1     -10.800  14.537  67.335  1.00  0.00    -0.291 A  
HETATM   36  C   UNL     1      -9.968  13.801  65.197  1.00  0.00    -0.240 A  
HETATM   37  C   UNL     1     -12.111  14.285  66.913  1.00  0.00    -0.440 A  
ENDBRANCH   8  31
ENDBRANCH   5   8
TORSDOF 10
ENDMDL
MODEL      131
REMARK 921   NORMALIZED FREE ENERGY PREDICTED BY IDOCK:   -3.95 KCAL/MOL
REMARK 922        TOTAL FREE ENERGY PREDICTED BY IDOCK:   -7.61 KCAL/MOL
REMARK 923 INTER-LIGAND FREE ENERGY PREDICTED BY IDOCK:   -8.04 KCAL/MOL
REMARK 924 INTRA-LIGAND FREE ENERGY PREDICTED BY IDOCK:    0.44 KCAL/MOL
REMARK 927      BINDING AFFINITY PREDICTED BY RF-SCORE:    0.00 PKD
ROOT
HETATM    1  F   UNL     1      -9.173  20.990  66.796  1.00  0.00    -0.291 F  
HETATM    2  C   UNL     1      -9.497  19.691  66.841  1.00  0.00    -0.358 A  
HETATM    3  C   UNL     1      -8.577  18.741  66.413  1.00  0.00    -0.294 A  
HETATM    4  C   UNL     1      -8.922  17.387  66.429  1.00  0.00    -0.274 A  
HETATM    5  C   UNL     1     -10.190  16.973  66.880  1.00  0.00    -0.305 A  
HETATM    6  C   UNL     1     -11.086  17.954  67.345  1.00  0.00     0.104 A  
HETATM    7  C   UNL     1     -10.743  19.310  67.317  1.00  0.00    -0.594 A  
ENDROOT
BRANCH   5   8
HETATM    8  C   UNL     1     -10.567  15.480  66.859  1.00  0.00    -0.307 C  
BRANCH   8   9
HETATM    9  N   UNL     1      -9.521  14.645  66.203  1.00  0.00    -0.296 NA 
HETATM   10  C   UNL     1     -10.054  13.360  65.646  1.00  0.00    -0.274 C  
HETATM   11  C   UNL     1     -10.272  12.184  66.643  1.00  0.00    -0.201 C  
HETATM   12  C   UNL     1      -8.379  14.303  67.095  1.00  0.00    -0.180 C  
HETATM   13  C   UNL     1      -8.662  13.211  68.150  1.00  0.00    -0.193 C  
HETATM   14  N   UNL     1      -9.057  11.986  67.447  1.00  0.00    -0.173 NA 
BRANCH  14  15
HETATM   15  C   UNL     1      -9.135  10.849  68.251  1.00  0.00    -0.158 A  
HETATM   16  N   UNL     1     -10.229  10.658  68.973  1.00  0.00    -0.206 NA 
HETATM   17  C   UNL     1     -10.248   9.585  69.746  1.00  0.00    -0.228 A  
HETATM   18  N   UNL     1      -8.100  10.012  68.261  1.00  0.00    -0.103 NA 
HETATM   19  N   UNL     1      -9.237   8.740  69.868  1.00  0.00    -0.153 NA 
HETATM   20  C   UNL     1      -8.197   8.968  69.078  1.00  0.00    -0.119 A  
BRANCH  17  21
HETATM   21  N   UNL     1     -11.404   9.258  70.430  1.00  0.00    -0.305 NA 
HETATM   22  H   UNL     1     -12.283   9.742  70.250  1.00  0.00     0.000 HD 
BRANCH  21  23
HETATM   23  C   UNL     1     -11.314   8.203  71.406  1.00  0.00    -0.259 C  
BRANCH  23  24
HETATM   24  C   UNL     1     -12.240   8.584  72.517  1.00  0.00    -0.383 C  
HETATM   25  C   UNL     1     -13.251   9.458  72.412  1.00  0.00    -0.483 C  
ENDBRANCH  23  24
ENDBRANCH  21  23
ENDBRANCH  17  21
BRANCH  20  26
HETATM   26  N   UNL     1      -7.239   7.971  69.071  1.00  0.00    -0.076 NA 
HETATM   27  H   UNL     1      -7.441   7.058  69.481  1.00  0.00     0.000 HD 
BRANCH  26  28
HETATM   28  C   UNL     1      -5.950   8.235  68.481  1.00  0.00    -0.041 C  
BRANCH  28  29
HETATM   29  C   UNL     1      -5.252   6.916  68.270  1.00  0.00    -0.015 C  
HETATM   30  C   UNL     1      -5.194   6.255  67.105  1.00  0.00    -0.005 C  
ENDBRANCH  28  29
ENDBRANCH  26  28
ENDBRANCH  20  26
ENDBRANCH  14  15
ENDBRANCH   8   9
BRANCH   8  31
HETATM   31  C   UNL     1     -10.948  15.018  68.287  1.00  0.00    -0.274 A  
HETATM   32  C   UNL     1     -11.671  14.313  70.911  1.00  0.00    -0.177 A  
HETATM   33  C   UNL     1     -12.297  13.703  69.835  1.00  0.00    -0.310 A  
HETATM   34  F   UNL     1     -12.049  14.008  72.161  1.00  0.00    -0.259 F  
HETATM   35  C   UNL     1     -10.299  15.590  69.398  1.00  0.00    -0.258 A  
HETATM   36  C   UNL     1     -11.929  14.042  68.529  1.00  0.00    -0.383 A  
HETATM   37  C   UNL     1     -10.663  15.243  70.704  1.00  0.00    -0.214 A  
ENDBRANCH   8  31
ENDBRANCH   5   8
TORSDOF 10
ENDMDL
MODEL      132
REMARK 921   NORMALIZED FREE ENERGY PREDICTED BY IDOCK:   -3.95 KCAL/MOL
REMARK 922        TOTAL FREE ENERGY PREDICTED BY IDOCK:   -7.60 KCAL/MOL
REMARK 923 INTER-LIGAND FREE ENERGY PREDICTED BY IDOCK:   -8.79 KCAL/MOL
REMARK 924 INTRA-LIGAND FREE ENERGY PREDICTED BY IDOCK:    1.18 KCAL/MOL
REMARK 927      BINDING AFFINITY PREDICTED BY RF-SCORE:    0.00 PKD
ROOT
HETATM    1  F   UNL     1     -10.749   4.448  65.118  1.00  0.00    -0.276 F  
HETATM    2  C   UNL     1     -10.297   5.068  66.215  1.00  0.00    -0.291 A  
HETATM    3  C   UNL     1      -8.978   4.885  66.612  1.00  0.00    -0.111 A  
HETATM    4  C   UNL     1      -8.511   5.506  67.773  1.00  0.00    -0.098 A  
HETATM    5  C   UNL     1      -9.362   6.321  68.545  1.00  0.00    -0.121 A  
HETATM    6  C   UNL     1     -10.682   6.521  68.097  1.00  0.00    -0.347 A  
HETATM    7  C   UNL     1     -11.151   5.889  66.940  1.00  0.00    -0.175 A  
ENDROOT
BRANCH   5   8
HETATM    8  C   UNL     1      -8.842   6.970  69.841  1.00  0.00    -0.142 C  
BRANCH   8   9
HETATM    9  N   UNL     1      -7.766   7.968  69.577  1.00  0.00    -0.101 NA 
HETATM   10  C   UNL     1      -7.989   9.275  70.276  1.00  0.00    -0.146 C  
HETATM   11  C   UNL     1      -8.985  10.276  69.621  1.00  0.00    -0.118 C  
HETATM   12  C   UNL     1      -7.564   8.265  68.132  1.00  0.00    -0.098 C  
HETATM   13  C   UNL     1      -8.634   9.170  67.482  1.00  0.00    -0.116 C  
HETATM   14  N   UNL     1      -8.649  10.449  68.201  1.00  0.00    -0.122 NA 
BRANCH  14  15
HETATM   15  C   UNL     1      -9.410  11.451  67.595  1.00  0.00    -0.159 A  
HETATM   16  N   UNL     1      -9.225  11.693  66.306  1.00  0.00    -0.214 NA 
HETATM   17  C   UNL     1      -9.942  12.671  65.780  1.00  0.00    -0.256 A  
HETATM   18  N   UNL     1     -10.282  12.121  68.346  1.00  0.00    -0.208 NA 
HETATM   19  N   UNL     1     -10.779  13.431  66.468  1.00  0.00    -0.284 NA 
HETATM   20  C   UNL     1     -10.949  13.097  67.739  1.00  0.00    -0.251 A  
BRANCH  17  21
HETATM   21  N   UNL     1      -9.892  12.896  64.417  1.00  0.00    -0.601 NA 
HETATM   22  H   UNL     1      -9.361  13.673  64.025  1.00  0.00     0.000 HD 
BRANCH  21  23
HETATM   23  C   UNL     1     -10.622  11.986  63.573  1.00  0.00    -0.465 C  
BRANCH  23  24
HETATM   24  C   UNL     1      -9.596  11.223  62.797  1.00  0.00    -0.327 C  
HETATM   25  C   UNL     1      -9.139  10.003  63.115  1.00  0.00    -0.296 C  
ENDBRANCH  23  24
ENDBRANCH  21  23
ENDBRANCH  17  21
BRANCH  20  26
HETATM   26  N   UNL     1     -11.968  13.769  68.389  1.00  0.00    -0.368 NA 
HETATM   27  H   UNL     1     -12.633  14.334  67.860  1.00  0.00     0.000 HD 
BRANCH  26  28
HETATM   28  C   UNL     1     -12.080  13.664  69.823  1.00  0.00    -0.334 C  
BRANCH  28  29
HETATM   29  C   UNL     1     -12.015  15.053  70.402  1.00  0.00    -0.372 C  
HETATM   30  C   UNL     1     -11.377  16.091  69.841  1.00  0.00    -0.340 C  
ENDBRANCH  28  29
ENDBRANCH  26  28
ENDBRANCH  20  26
ENDBRANCH  14  15
ENDBRANCH   8   9
BRANCH   8  31
HETATM   31  C   UNL     1     -10.034   7.520  70.663  1.00  0.00    -0.183 A  
HETATM   32  C   UNL     1     -12.107   8.582  72.237  1.00  0.00    -0.387 A  
HETATM   33  C   UNL     1     -12.081   8.827  70.873  1.00  0.00    -0.195 A  
HETATM   34  F   UNL     1     -13.071   9.128  72.993  1.00  0.00    -0.433 F  
HETATM   35  C   UNL     1     -10.109   7.251  72.043  1.00  0.00    -0.207 A  
HETATM   36  C   UNL     1     -11.059   8.288  70.086  1.00  0.00    -0.189 A  
HETATM   37  C   UNL     1     -11.138   7.785  72.828  1.00  0.00    -0.457 A  
ENDBRANCH   8  31
ENDBRANCH   5   8
TORSDOF 10
ENDMDL
MODEL      133
REMARK 921   NORMALIZED FREE ENERGY PREDICTED BY IDOCK:   -3.94 KCAL/MOL
REMARK 922        TOTAL FREE ENERGY PREDICTED BY IDOCK:   -7.58 KCAL/MOL
REMARK 923 INTER-LIGAND FREE ENERGY PREDICTED BY IDOCK:   -8.05 KCAL/MOL
REMARK 924 INTRA-LIGAND FREE ENERGY PREDICTED BY IDOCK:    0.47 KCAL/MOL
REMARK 927      BINDING AFFINITY PREDICTED BY RF-SCORE:    0.00 PKD
ROOT
HETATM    1  F   UNL     1      -6.129  12.103  68.489  1.00  0.00    -0.050 F  
HETATM    2  C   UNL     1      -7.078  12.953  68.076  1.00  0.00    -0.111 A  
HETATM    3  C   UNL     1      -7.133  14.232  68.615  1.00  0.00    -0.111 A  
HETATM    4  C   UNL     1      -8.140  15.112  68.210  1.00  0.00    -0.138 A  
HETATM    5  C   UNL     1      -9.098  14.718  67.256  1.00  0.00    -0.214 A  
HETATM    6  C   UNL     1      -8.993  13.429  66.697  1.00  0.00    -0.135 A  
HETATM    7  C   UNL     1      -7.991  12.546  67.113  1.00  0.00    -0.140 A  
ENDROOT
BRANCH   5   8
HETATM    8  C   UNL     1     -10.223  15.686  66.845  1.00  0.00    -0.281 C  
BRANCH   8   9
HETATM    9  N   UNL     1     -11.449  15.506  67.673  1.00  0.00    -0.267 NA 
HETATM   10  C   UNL     1     -11.153  15.169  69.102  1.00  0.00    -0.258 C  
HETATM   11  C   UNL     1     -10.795  13.689  69.430  1.00  0.00    -0.009 C  
HETATM   12  C   UNL     1     -12.376  14.462  67.154  1.00  0.00    -0.071 C  
HETATM   13  C   UNL     1     -11.936  13.001  67.394  1.00  0.00    -0.316 C  
HETATM   14  N   UNL     1     -11.802  12.796  68.841  1.00  0.00    -0.316 NA 
BRANCH  14  15
HETATM   15  C   UNL     1     -11.622  11.467  69.229  1.00  0.00    -0.322 A  
HETATM   16  N   UNL     1     -10.826  10.699  68.501  1.00  0.00    -0.215 NA 
HETATM   17  C   UNL     1     -10.709   9.438  68.884  1.00  0.00    -0.178 A  
HETATM   18  N   UNL     1     -12.267  11.034  70.309  1.00  0.00    -0.340 NA 
HETATM   19  N   UNL     1     -11.366   8.908  69.903  1.00  0.00    -0.068 NA 
HETATM   20  C   UNL     1     -12.104   9.750  70.614  1.00  0.00    -0.230 A  
BRANCH  17  21
HETATM   21  N   UNL     1      -9.800   8.614  68.248  1.00  0.00    -0.160 NA 
HETATM   22  H   UNL     1     -10.079   7.709  67.868  1.00  0.00     0.000 HD 
BRANCH  21  23
HETATM   23  C   UNL     1      -8.445   9.086  68.144  1.00  0.00    -0.129 C  
BRANCH  23  24
HETATM   24  C   UNL     1      -7.695   8.456  69.275  1.00  0.00    -0.098 C  
HETATM   25  C   UNL     1      -7.635   7.139  69.520  1.00  0.00    -0.101 C  
ENDBRANCH  23  24
ENDBRANCH  21  23
ENDBRANCH  17  21
BRANCH  20  26
HETATM   26  N   UNL     1     -12.623   9.228  71.784  1.00  0.00    -0.354 NA 
HETATM   27  H   UNL     1     -13.240   9.791  72.371  1.00  0.00     0.000 HD 
BRANCH  26  28
HETATM   28  C   UNL     1     -12.285   7.879  72.166  1.00  0.00    -0.310 C  
BRANCH  28  29
HETATM   29  C   UNL     1     -10.988   7.920  72.931  1.00  0.00    -0.452 C  
HETATM   30  C   UNL     1     -10.169   6.874  73.112  1.00  0.00    -0.264 C  
ENDBRANCH  28  29
ENDBRANCH  26  28
ENDBRANCH  20  26
ENDBRANCH  14  15
ENDBRANCH   8   9
BRANCH   8  31
HETATM   31  C   UNL     1      -9.678  17.136  66.819  1.00  0.00    -0.277 A  
HETATM   32  C   UNL     1      -8.714  19.776  66.909  1.00  0.00    -0.331 A  
HETATM   33  C   UNL     1      -7.906  18.762  66.419  1.00  0.00    -0.297 A  
HETATM   34  F   UNL     1      -8.236  21.025  66.993  1.00  0.00    -0.306 F  
HETATM   35  C   UNL     1     -10.493  18.192  67.271  1.00  0.00    -0.407 A  
HETATM   36  C   UNL     1      -8.389  17.451  66.360  1.00  0.00    -0.302 A  
HETATM   37  C   UNL     1     -10.010  19.505  67.322  1.00  0.00    -0.493 A  
ENDBRANCH   8  31
ENDBRANCH   5   8
TORSDOF 10
ENDMDL
MODEL      134
REMARK 921   NORMALIZED FREE ENERGY PREDICTED BY IDOCK:   -3.93 KCAL/MOL
REMARK 922        TOTAL FREE ENERGY PREDICTED BY IDOCK:   -7.57 KCAL/MOL
REMARK 923 INTER-LIGAND FREE ENERGY PREDICTED BY IDOCK:   -8.77 KCAL/MOL
REMARK 924 INTRA-LIGAND FREE ENERGY PREDICTED BY IDOCK:    1.20 KCAL/MOL
REMARK 927      BINDING AFFINITY PREDICTED BY RF-SCORE:    0.00 PKD
ROOT
HETATM    1  F   UNL     1     -12.736  14.200  66.586  1.00  0.00    -0.447 F  
HETATM    2  C   UNL     1     -11.981  13.171  66.991  1.00  0.00    -0.355 A  
HETATM    3  C   UNL     1     -11.593  13.088  68.323  1.00  0.00    -0.375 A  
HETATM    4  C   UNL     1     -10.780  12.032  68.743  1.00  0.00    -0.252 A  
HETATM    5  C   UNL     1     -10.353  11.047  67.832  1.00  0.00    -0.213 A  
HETATM    6  C   UNL     1     -10.795  11.134  66.497  1.00  0.00    -0.302 A  
HETATM    7  C   UNL     1     -11.600  12.198  66.077  1.00  0.00    -0.420 A  
ENDROOT
BRANCH   5   8
HETATM    8  C   UNL     1      -9.428   9.909  68.303  1.00  0.00    -0.139 C  
BRANCH   8   9
HETATM    9  N   UNL     1      -7.987  10.276  68.199  1.00  0.00    -0.107 NA 
HETATM   10  C   UNL     1      -7.570  11.316  69.194  1.00  0.00    -0.070 C  
HETATM   11  C   UNL     1      -7.904  12.800  68.861  1.00  0.00     0.139 C  
HETATM   12  C   UNL     1      -7.589  10.767  66.851  1.00  0.00    -0.123 C  
HETATM   13  C   UNL     1      -8.034  12.205  66.506  1.00  0.00     0.152 C  
HETATM   14  N   UNL     1      -7.452  13.115  67.499  1.00  0.00    -0.161 NA 
BRANCH  14  15
HETATM   15  C   UNL     1      -7.584  14.471  67.197  1.00  0.00    -0.012 A  
HETATM   16  N   UNL     1      -8.760  14.914  66.780  1.00  0.00    -0.253 NA 
HETATM   17  C   UNL     1      -8.833  16.199  66.475  1.00  0.00    -0.296 A  
HETATM   18  N   UNL     1      -6.516  15.254  67.336  1.00  0.00    -0.302 NA 
HETATM   19  N   UNL     1      -7.805  17.032  66.518  1.00  0.00    -0.266 NA 
HETATM   20  C   UNL     1      -6.675  16.528  66.992  1.00  0.00    -0.205 A  
BRANCH  17  21
HETATM   21  N   UNL     1     -10.057  16.755  66.154  1.00  0.00    -0.334 NA 
HETATM   22  H   UNL     1     -10.576  16.458  65.328  1.00  0.00     0.000 HD 
BRANCH  21  23
HETATM   23  C   UNL     1     -10.568  17.772  67.035  1.00  0.00    -0.262 C  
BRANCH  23  24
HETATM   24  C   UNL     1     -10.589  19.040  66.241  1.00  0.00    -0.493 C  
HETATM   25  C   UNL     1     -10.013  20.192  66.614  1.00  0.00    -0.595 C  
ENDBRANCH  23  24
ENDBRANCH  21  23
ENDBRANCH  17  21
BRANCH  20  26
HETATM   26  N   UNL     1      -5.672  17.453  67.216  1.00  0.00    -0.128 NA 
HETATM   27  H   UNL     1      -4.731  17.143  67.465  1.00  0.00     0.000 HD 
BRANCH  26  28
HETATM   28  C   UNL     1      -5.967  18.859  67.096  1.00  0.00    -0.159 C  
BRANCH  28  29
HETATM   29  C   UNL     1      -6.010  19.450  68.481  1.00  0.00    -0.241 C  
HETATM   30  C   UNL     1      -7.108  19.544  69.244  1.00  0.00    -0.372 C  
ENDBRANCH  28  29
ENDBRANCH  26  28
ENDBRANCH  20  26
ENDBRANCH  14  15
ENDBRANCH   8   9
BRANCH   8  31
HETATM   31  C   UNL     1      -9.865   9.431  69.710  1.00  0.00    -0.218 A  
HETATM   32  C   UNL     1     -10.722   8.457  72.204  1.00  0.00    -0.337 A  
HETATM   33  C   UNL     1      -9.371   8.660  71.970  1.00  0.00    -0.362 A  
HETATM   34  F   UNL     1     -11.124   7.949  73.378  1.00  0.00    -0.425 F  
HETATM   35  C   UNL     1     -11.234   9.257  69.990  1.00  0.00    -0.190 A  
HETATM   36  C   UNL     1      -8.944   9.158  70.735  1.00  0.00    -0.296 A  
HETATM   37  C   UNL     1     -11.660   8.766  71.230  1.00  0.00    -0.353 A  
ENDBRANCH   8  31
ENDBRANCH   5   8
TORSDOF 10
ENDMDL
MODEL      135
REMARK 921   NORMALIZED FREE ENERGY PREDICTED BY IDOCK:   -3.89 KCAL/MOL
REMARK 922        TOTAL FREE ENERGY PREDICTED BY IDOCK:   -7.50 KCAL/MOL
REMARK 923 INTER-LIGAND FREE ENERGY PREDICTED BY IDOCK:   -8.29 KCAL/MOL
REMARK 924 INTRA-LIGAND FREE ENERGY PREDICTED BY IDOCK:    0.79 KCAL/MOL
REMARK 927      BINDING AFFINITY PREDICTED BY RF-SCORE:    0.00 PKD
ROOT
HETATM    1  F   UNL     1     -13.219  14.022  72.674  1.00  0.00    -0.462 F  
HETATM    2  C   UNL     1     -12.686  14.371  71.496  1.00  0.00    -0.345 A  
HETATM    3  C   UNL     1     -12.538  13.414  70.500  1.00  0.00    -0.281 A  
HETATM    4  C   UNL     1     -11.954  13.768  69.281  1.00  0.00    -0.399 A  
HETATM    5  C   UNL     1     -11.518  15.086  69.047  1.00  0.00    -0.322 A  
HETATM    6  C   UNL     1     -11.717  16.044  70.061  1.00  0.00    -0.284 A  
HETATM    7  C   UNL     1     -12.292  15.685  71.284  1.00  0.00    -0.484 A  
ENDROOT
BRANCH   5   8
HETATM    8  C   UNL     1     -10.844  15.452  67.712  1.00  0.00    -0.302 C  
BRANCH   8   9
HETATM    9  N   UNL     1      -9.357  15.411  67.803  1.00  0.00    -0.195 NA 
HETATM   10  C   UNL     1      -8.703  14.899  66.555  1.00  0.00    -0.169 C  
HETATM   11  C   UNL     1      -8.666  13.356  66.348  1.00  0.00     0.237 C  
HETATM   12  C   UNL     1      -8.847  14.594  68.938  1.00  0.00    -0.136 C  
HETATM   13  C   UNL     1      -8.930  13.063  68.748  1.00  0.00     0.178 C  
HETATM   14  N   UNL     1      -8.147  12.707  67.559  1.00  0.00    -0.166 NA 
BRANCH  14  15
HETATM   15  C   UNL     1      -7.946  11.338  67.381  1.00  0.00    -0.132 A  
HETATM   16  N   UNL     1      -7.889  10.863  66.146  1.00  0.00    -0.159 NA 
HETATM   17  C   UNL     1      -7.729   9.556  66.022  1.00  0.00    -0.100 A  
HETATM   18  N   UNL     1      -7.827  10.572  68.463  1.00  0.00    -0.105 NA 
HETATM   19  N   UNL     1      -7.671   8.715  67.042  1.00  0.00    -0.095 NA 
HETATM   20  C   UNL     1      -7.684   9.268  68.246  1.00  0.00    -0.087 A  
BRANCH  17  21
HETATM   21  N   UNL     1      -7.536   9.008  64.767  1.00  0.00    -0.102 NA 
HETATM   22  H   UNL     1      -7.409   8.004  64.639  1.00  0.00     0.000 HD 
BRANCH  21  23
HETATM   23  C   UNL     1      -7.524   9.915  63.649  1.00  0.00    -0.135 C  
BRANCH  23  24
HETATM   24  C   UNL     1      -8.874   9.809  63.012  1.00  0.00    -0.255 C  
HETATM   25  C   UNL     1      -9.840  10.734  63.096  1.00  0.00    -0.378 C  
ENDBRANCH  23  24
ENDBRANCH  21  23
ENDBRANCH  17  21
BRANCH  20  26
HETATM   26  N   UNL     1      -7.424   8.400  69.291  1.00  0.00    -0.082 NA 
HETATM   27  H   UNL     1      -6.473   8.286  69.642  1.00  0.00     0.000 HD 
BRANCH  26  28
HETATM   28  C   UNL     1      -8.512   7.658  69.880  1.00  0.00    -0.137 C  
BRANCH  28  29
HETATM   29  C   UNL     1      -8.899   8.335  71.169  1.00  0.00    -0.182 C  
HETATM   30  C   UNL     1     -10.087   8.908  71.411  1.00  0.00    -0.379 C  
ENDBRANCH  28  29
ENDBRANCH  26  28
ENDBRANCH  20  26
ENDBRANCH  14  15
ENDBRANCH   8   9
BRANCH   8  31
HETATM   31  C   UNL     1     -11.438  14.584  66.574  1.00  0.00    -0.366 A  
HETATM   32  C   UNL     1     -12.401  13.036  64.435  1.00  0.00    -0.376 A  
HETATM   33  C   UNL     1     -12.280  12.472  65.695  1.00  0.00    -0.403 A  
HETATM   34  F   UNL     1     -12.818  12.282  63.406  1.00  0.00    -0.575 F  
HETATM   35  C   UNL     1     -11.613  15.143  65.294  1.00  0.00    -0.206 A  
HETATM   36  C   UNL     1     -11.815  13.245  66.764  1.00  0.00    -0.448 A  
HETATM   37  C   UNL     1     -12.086  14.370  64.227  1.00  0.00    -0.461 A  
ENDBRANCH   8  31
ENDBRANCH   5   8
TORSDOF 10
ENDMDL
MODEL      136
REMARK 921   NORMALIZED FREE ENERGY PREDICTED BY IDOCK:   -3.87 KCAL/MOL
REMARK 922        TOTAL FREE ENERGY PREDICTED BY IDOCK:   -7.48 KCAL/MOL
REMARK 923 INTER-LIGAND FREE ENERGY PREDICTED BY IDOCK:   -8.51 KCAL/MOL
REMARK 924 INTRA-LIGAND FREE ENERGY PREDICTED BY IDOCK:    1.03 KCAL/MOL
REMARK 927      BINDING AFFINITY PREDICTED BY RF-SCORE:    0.00 PKD
ROOT
HETATM    1  F   UNL     1     -10.643   8.081  73.388  1.00  0.00    -0.392 F  
HETATM    2  C   UNL     1     -10.663   8.629  72.167  1.00  0.00    -0.347 A  
HETATM    3  C   UNL     1     -11.847   9.172  71.679  1.00  0.00    -0.443 A  
HETATM    4  C   UNL     1     -11.880   9.718  70.393  1.00  0.00    -0.264 A  
HETATM    5  C   UNL     1     -10.726   9.729  69.586  1.00  0.00    -0.264 A  
HETATM    6  C   UNL     1      -9.532   9.208  70.122  1.00  0.00    -0.235 A  
HETATM    7  C   UNL     1      -9.503   8.652  71.405  1.00  0.00    -0.306 A  
ENDROOT
BRANCH   5   8
HETATM    8  C   UNL     1     -10.788  10.302  68.158  1.00  0.00    -0.265 C  
BRANCH   8   9
HETATM    9  N   UNL     1     -11.867  11.319  68.008  1.00  0.00    -0.624 NA 
HETATM   10  C   UNL     1     -11.641  12.255  66.859  1.00  0.00    -0.361 C  
HETATM   11  C   UNL     1     -10.651  13.436  67.084  1.00  0.00    -0.259 C  
HETATM   12  C   UNL     1     -12.082  12.151  69.223  1.00  0.00    -0.178 C  
HETATM   13  C   UNL     1     -11.020  13.242  69.480  1.00  0.00     0.068 C  
HETATM   14  N   UNL     1     -11.000  14.144  68.323  1.00  0.00    -0.244 NA 
BRANCH  14  15
HETATM   15  C   UNL     1     -10.246  15.305  68.500  1.00  0.00    -0.224 A  
HETATM   16  N   UNL     1      -8.926  15.206  68.508  1.00  0.00    -0.179 NA 
HETATM   17  C   UNL     1      -8.250  16.325  68.710  1.00  0.00    -0.227 A  
HETATM   18  N   UNL     1     -10.893  16.458  68.660  1.00  0.00    -0.313 NA 
HETATM   19  N   UNL     1      -8.813  17.500  68.945  1.00  0.00    -0.196 NA 
HETATM   20  C   UNL     1     -10.136  17.530  68.872  1.00  0.00    -0.346 A  
BRANCH  17  21
HETATM   21  N   UNL     1      -6.872  16.318  68.606  1.00  0.00    -0.135 NA 
HETATM   22  H   UNL     1      -6.394  15.754  67.904  1.00  0.00     0.000 HD 
BRANCH  21  23
HETATM   23  C   UNL     1      -6.139  17.142  69.532  1.00  0.00    -0.238 C  
BRANCH  23  24
HETATM   24  C   UNL     1      -5.253  16.215  70.304  1.00  0.00    -0.164 C  
HETATM   25  C   UNL     1      -5.658  15.091  70.912  1.00  0.00    -0.092 C  
ENDBRANCH  23  24
ENDBRANCH  21  23
ENDBRANCH  17  21
BRANCH  20  26
HETATM   26  N   UNL     1     -10.696  18.793  68.923  1.00  0.00    -0.163 NA 
HETATM   27  H   UNL     1     -11.536  18.963  69.477  1.00  0.00     0.000 HD 
BRANCH  26  28
HETATM   28  C   UNL     1     -10.080  19.869  68.186  1.00  0.00    -0.441 C  
BRANCH  28  29
HETATM   29  C   UNL     1     -10.548  19.785  66.756  1.00  0.00    -0.586 C  
HETATM   30  C   UNL     1      -9.787  20.040  65.682  1.00  0.00    -0.193 C  
ENDBRANCH  28  29
ENDBRANCH  26  28
ENDBRANCH  20  26
ENDBRANCH  14  15
ENDBRANCH   8   9
BRANCH   8  31
HETATM   31  C   UNL     1      -9.382  10.796  67.734  1.00  0.00    -0.158 A  
HETATM   32  C   UNL     1      -6.778  11.623  67.071  1.00  0.00    -0.145 A  
HETATM   33  C   UNL     1      -7.550  10.953  66.134  1.00  0.00    -0.119 A  
HETATM   34  F   UNL     1      -5.521  11.975  66.768  1.00  0.00    -0.125 F  
HETATM   35  C   UNL     1      -8.593  11.516  68.651  1.00  0.00    -0.109 A  
HETATM   36  C   UNL     1      -8.850  10.554  66.457  1.00  0.00    -0.155 A  
HETATM   37  C   UNL     1      -7.294  11.922  68.323  1.00  0.00    -0.093 A  
ENDBRANCH   8  31
ENDBRANCH   5   8
TORSDOF 10
ENDMDL
MODEL      137
REMARK 921   NORMALIZED FREE ENERGY PREDICTED BY IDOCK:   -3.82 KCAL/MOL
REMARK 922        TOTAL FREE ENERGY PREDICTED BY IDOCK:   -7.40 KCAL/MOL
REMARK 923 INTER-LIGAND FREE ENERGY PREDICTED BY IDOCK:   -6.55 KCAL/MOL
REMARK 924 INTRA-LIGAND FREE ENERGY PREDICTED BY IDOCK:   -0.85 KCAL/MOL
REMARK 927      BINDING AFFINITY PREDICTED BY RF-SCORE:    0.00 PKD
ROOT
HETATM    1  F   UNL     1      -5.991   8.746  63.214  1.00  0.00    -0.080 F  
HETATM    2  C   UNL     1      -6.889   9.364  63.992  1.00  0.00    -0.096 A  
HETATM    3  C   UNL     1      -6.486  10.422  64.798  1.00  0.00    -0.059 A  
HETATM    4  C   UNL     1      -7.414  11.049  65.633  1.00  0.00     0.132 A  
HETATM    5  C   UNL     1      -8.756  10.623  65.665  1.00  0.00    -0.198 A  
HETATM    6  C   UNL     1      -9.145   9.575  64.809  1.00  0.00    -0.271 A  
HETATM    7  C   UNL     1      -8.211   8.941  63.981  1.00  0.00    -0.168 A  
ENDROOT
BRANCH   5   8
HETATM    8  C   UNL     1      -9.759  11.301  66.617  1.00  0.00    -0.196 C  
BRANCH   8   9
HETATM    9  N   UNL     1      -9.321  11.227  68.040  1.00  0.00    -0.161 NA 
HETATM   10  C   UNL     1      -8.174  10.287  68.256  1.00  0.00    -0.115 C  
HETATM   11  C   UNL     1      -8.501   8.767  68.347  1.00  0.00    -0.130 C  
HETATM   12  C   UNL     1     -10.403  10.830  68.982  1.00  0.00    -0.215 C  
HETATM   13  C   UNL     1     -10.784   9.334  68.968  1.00  0.00    -0.167 C  
HETATM   14  N   UNL     1      -9.590   8.554  69.311  1.00  0.00    -0.168 NA 
BRANCH  14  15
HETATM   15  C   UNL     1      -9.826   7.200  69.552  1.00  0.00    -0.162 A  
HETATM   16  N   UNL     1     -10.208   6.831  70.765  1.00  0.00    -0.195 NA 
HETATM   17  C   UNL     1     -10.390   5.535  70.959  1.00  0.00    -0.239 A  
HETATM   18  N   UNL     1      -9.646   6.341  68.551  1.00  0.00    -0.126 NA 
HETATM   19  N   UNL     1     -10.168   4.609  70.040  1.00  0.00    -0.195 NA 
HETATM   20  C   UNL     1      -9.836   5.057  68.838  1.00  0.00    -0.175 A  
BRANCH  17  21
HETATM   21  N   UNL     1     -10.909   5.092  72.161  1.00  0.00    -0.158 NA 
HETATM   22  H   UNL     1     -11.720   5.539  72.588  1.00  0.00     0.000 HD 
BRANCH  21  23
HETATM   23  C   UNL     1     -10.255   3.972  72.786  1.00  0.00    -0.163 C  
BRANCH  23  24
HETATM   24  C   UNL     1      -9.706   4.479  74.082  1.00  0.00    -0.152 C  
HETATM   25  C   UNL     1      -9.411   5.760  74.345  1.00  0.00    -0.159 C  
ENDBRANCH  23  24
ENDBRANCH  21  23
ENDBRANCH  17  21
BRANCH  20  26
HETATM   26  N   UNL     1      -9.801   4.096  67.845  1.00  0.00    -0.093 NA 
HETATM   27  H   UNL     1      -9.762   3.105  68.087  1.00  0.00     0.000 HD 
BRANCH  26  28
HETATM   28  C   UNL     1      -9.823   4.508  66.463  1.00  0.00    -0.227 C  
BRANCH  28  29
HETATM   29  C   UNL     1      -8.406   4.791  66.036  1.00  0.00    -0.112 C  
HETATM   30  C   UNL     1      -8.047   5.298  64.848  1.00  0.00    -0.122 C  
ENDBRANCH  28  29
ENDBRANCH  26  28
ENDBRANCH  20  26
ENDBRANCH  14  15
ENDBRANCH   8   9
BRANCH   8  31
HETATM   31  C   UNL     1     -10.064  12.735  66.118  1.00  0.00    -0.274 A  
HETATM   32  C   UNL     1     -10.753  15.306  65.212  1.00  0.00    -0.415 A  
HETATM   33  C   UNL     1     -10.005  15.160  66.370  1.00  0.00    -0.288 A  
HETATM   34  F   UNL     1     -11.119  16.531  64.807  1.00  0.00    -0.443 F  
HETATM   35  C   UNL     1     -10.785  12.915  64.922  1.00  0.00    -0.333 A  
HETATM   36  C   UNL     1      -9.650  13.882  66.814  1.00  0.00    -0.288 A  
HETATM   37  C   UNL     1     -11.134  14.195  64.475  1.00  0.00    -0.340 A  
ENDBRANCH   8  31
ENDBRANCH   5   8
TORSDOF 10
ENDMDL
MODEL      138
REMARK 921   NORMALIZED FREE ENERGY PREDICTED BY IDOCK:   -3.81 KCAL/MOL
REMARK 922        TOTAL FREE ENERGY PREDICTED BY IDOCK:   -7.39 KCAL/MOL
REMARK 923 INTER-LIGAND FREE ENERGY PREDICTED BY IDOCK:   -9.11 KCAL/MOL
REMARK 924 INTRA-LIGAND FREE ENERGY PREDICTED BY IDOCK:    1.72 KCAL/MOL
REMARK 927      BINDING AFFINITY PREDICTED BY RF-SCORE:    0.00 PKD
ROOT
HETATM    1  F   UNL     1     -12.687  15.945  71.114  1.00  0.00    -0.462 F  
HETATM    2  C   UNL     1     -11.950  15.500  70.088  1.00  0.00    -0.366 A  
HETATM    3  C   UNL     1     -12.097  14.187  69.659  1.00  0.00    -0.400 A  
HETATM    4  C   UNL     1     -11.309  13.709  68.608  1.00  0.00    -0.321 A  
HETATM    5  C   UNL     1     -10.369  14.547  67.976  1.00  0.00    -0.229 A  
HETATM    6  C   UNL     1     -10.271  15.884  68.406  1.00  0.00    -0.226 A  
HETATM    7  C   UNL     1     -11.053  16.357  69.465  1.00  0.00    -0.293 A  
ENDROOT
BRANCH   5   8
HETATM    8  C   UNL     1      -9.483  13.996  66.843  1.00  0.00    -0.265 C  
BRANCH   8   9
HETATM    9  N   UNL     1      -8.368  13.153  67.362  1.00  0.00    -0.180 NA 
HETATM   10  C   UNL     1      -7.978  12.050  66.426  1.00  0.00     0.201 C  
HETATM   11  C   UNL     1      -8.860  10.766  66.425  1.00  0.00    -0.165 C  
HETATM   12  C   UNL     1      -8.650  12.533  68.686  1.00  0.00     0.045 C  
HETATM   13  C   UNL     1      -9.619  11.330  68.666  1.00  0.00    -0.190 C  
HETATM   14  N   UNL     1      -9.043  10.292  67.804  1.00  0.00    -0.134 NA 
BRANCH  14  15
HETATM   15  C   UNL     1      -9.695   9.060  67.858  1.00  0.00    -0.155 A  
HETATM   16  N   UNL     1     -10.439   8.784  68.919  1.00  0.00    -0.214 NA 
HETATM   17  C   UNL     1     -11.013   7.592  68.944  1.00  0.00     0.089 A  
HETATM   18  N   UNL     1      -9.532   8.216  66.842  1.00  0.00    -0.176 NA 
HETATM   19  N   UNL     1     -10.849   6.669  68.011  1.00  0.00    -0.267 NA 
HETATM   20  C   UNL     1     -10.133   7.035  66.958  1.00  0.00    -0.229 A  
BRANCH  17  21
HETATM   21  N   UNL     1     -11.901   7.285  69.958  1.00  0.00    -0.532 NA 
HETATM   22  H   UNL     1     -12.764   6.774  69.773  1.00  0.00     0.000 HD 
BRANCH  21  23
HETATM   23  C   UNL     1     -11.556   7.718  71.287  1.00  0.00    -0.277 C  
BRANCH  23  24
HETATM   24  C   UNL     1     -12.692   8.573  71.755  1.00  0.00    -0.385 C  
HETATM   25  C   UNL     1     -13.038   9.753  71.222  1.00  0.00    -0.465 C  
ENDBRANCH  23  24
ENDBRANCH  21  23
ENDBRANCH  17  21
BRANCH  20  26
HETATM   26  N   UNL     1     -10.135   6.135  65.908  1.00  0.00    -0.328 NA 
HETATM   27  H   UNL     1      -9.911   6.446  64.962  1.00  0.00     0.000 HD 
BRANCH  26  28
HETATM   28  C   UNL     1     -10.458   4.753  66.163  1.00  0.00    -0.290 C  
BRANCH  28  29
HETATM   29  C   UNL     1     -10.726   4.082  64.841  1.00  0.00    -0.108 C  
HETATM   30  C   UNL     1      -9.978   3.106  64.308  1.00  0.00    -0.148 C  
ENDBRANCH  28  29
ENDBRANCH  26  28
ENDBRANCH  20  26
ENDBRANCH  14  15
ENDBRANCH   8   9
BRANCH   8  31
HETATM   31  C   UNL     1     -10.369  13.299  65.781  1.00  0.00    -0.290 A  
HETATM   32  C   UNL     1     -12.073  12.132  63.874  1.00  0.00    -0.488 A  
HETATM   33  C   UNL     1     -10.789  12.508  63.513  1.00  0.00    -0.443 A  
HETATM   34  F   UNL     1     -12.899  11.618  62.951  1.00  0.00    -0.636 F  
HETATM   35  C   UNL     1     -11.663  12.867  66.131  1.00  0.00    -0.451 A  
HETATM   36  C   UNL     1      -9.935  13.076  64.464  1.00  0.00    -0.148 A  
HETATM   37  C   UNL     1     -12.513  12.292  65.179  1.00  0.00    -0.183 A  
ENDBRANCH   8  31
ENDBRANCH   5   8
TORSDOF 10
ENDMDL
MODEL      139
REMARK 921   NORMALIZED FREE ENERGY PREDICTED BY IDOCK:   -3.80 KCAL/MOL
REMARK 922        TOTAL FREE ENERGY PREDICTED BY IDOCK:   -7.37 KCAL/MOL
REMARK 923 INTER-LIGAND FREE ENERGY PREDICTED BY IDOCK:   -7.47 KCAL/MOL
REMARK 924 INTRA-LIGAND FREE ENERGY PREDICTED BY IDOCK:    0.09 KCAL/MOL
REMARK 927      BINDING AFFINITY PREDICTED BY RF-SCORE:    0.00 PKD
ROOT
HETATM    1  F   UNL     1      -9.722  20.529  66.688  1.00  0.00    -0.516 F  
HETATM    2  C   UNL     1      -9.884  19.206  66.817  1.00  0.00    -0.342 A  
HETATM    3  C   UNL     1      -8.970  18.343  66.223  1.00  0.00    -0.205 A  
HETATM    4  C   UNL     1      -9.152  16.962  66.329  1.00  0.00    -0.302 A  
HETATM    5  C   UNL     1     -10.250  16.433  67.035  1.00  0.00    -0.282 A  
HETATM    6  C   UNL     1     -11.137  17.331  67.660  1.00  0.00    -0.002 A  
HETATM    7  C   UNL     1     -10.959  18.713  67.543  1.00  0.00    -0.238 A  
ENDROOT
BRANCH   5   8
HETATM    8  C   UNL     1     -10.456  14.909  67.113  1.00  0.00    -0.271 C  
BRANCH   8   9
HETATM    9  N   UNL     1      -9.205  14.157  66.809  1.00  0.00    -0.265 NA 
HETATM   10  C   UNL     1      -9.454  12.859  66.101  1.00  0.00    -0.154 C  
HETATM   11  C   UNL     1      -9.895  11.644  66.969  1.00  0.00    -0.193 C  
HETATM   12  C   UNL     1      -8.378  13.856  68.010  1.00  0.00    -0.166 C  
HETATM   13  C   UNL     1      -8.904  12.719  68.913  1.00  0.00     0.343 C  
HETATM   14  N   UNL     1      -8.981  11.494  68.110  1.00  0.00    -0.166 NA 
BRANCH  14  15
HETATM   15  C   UNL     1      -9.231  10.331  68.839  1.00  0.00    -0.175 A  
HETATM   16  N   UNL     1      -8.646   9.206  68.455  1.00  0.00    -0.128 NA 
HETATM   17  C   UNL     1      -8.935   8.121  69.154  1.00  0.00    -0.144 A  
HETATM   18  N   UNL     1     -10.053  10.406  69.883  1.00  0.00    -0.168 NA 
HETATM   19  N   UNL     1      -9.793   8.094  70.162  1.00  0.00    -0.183 NA 
HETATM   20  C   UNL     1     -10.300   9.265  70.519  1.00  0.00    -0.254 A  
BRANCH  17  21
HETATM   21  N   UNL     1      -8.267   6.940  68.889  1.00  0.00    -0.120 NA 
HETATM   22  H   UNL     1      -8.685   6.211  68.311  1.00  0.00     0.000 HD 
BRANCH  21  23
HETATM   23  C   UNL     1      -6.956   6.785  69.462  1.00  0.00    -0.067 C  
BRANCH  23  24
HETATM   24  C   UNL     1      -6.969   5.473  70.182  1.00  0.00    -0.064 C  
HETATM   25  C   UNL     1      -7.436   5.281  71.424  1.00  0.00    -0.095 C  
ENDBRANCH  23  24
ENDBRANCH  21  23
ENDBRANCH  17  21
BRANCH  20  26
HETATM   26  N   UNL     1     -11.035   9.251  71.690  1.00  0.00    -0.373 NA 
HETATM   27  H   UNL     1     -10.652   8.824  72.534  1.00  0.00     0.000 HD 
BRANCH  26  28
HETATM   28  C   UNL     1     -12.349   9.847  71.706  1.00  0.00    -0.368 C  
BRANCH  28  29
HETATM   29  C   UNL     1     -13.330   8.804  72.175  1.00  0.00    -0.465 C  
HETATM   30  C   UNL     1     -13.671   7.705  71.488  1.00  0.00    -0.440 C  
ENDBRANCH  28  29
ENDBRANCH  26  28
ENDBRANCH  20  26
ENDBRANCH  14  15
ENDBRANCH   8   9
BRANCH   8  31
HETATM   31  C   UNL     1     -11.109  14.540  68.468  1.00  0.00    -0.271 A  
HETATM   32  C   UNL     1     -12.251  13.739  70.909  1.00  0.00    -0.349 A  
HETATM   33  C   UNL     1     -11.328  14.773  70.885  1.00  0.00    -0.206 A  
HETATM   34  F   UNL     1     -12.760  13.329  72.080  1.00  0.00    -0.367 F  
HETATM   35  C   UNL     1     -12.081  13.522  68.516  1.00  0.00    -0.303 A  
HETATM   36  C   UNL     1     -10.770  15.182  69.670  1.00  0.00    -0.289 A  
HETATM   37  C   UNL     1     -12.644  13.119  69.733  1.00  0.00     0.122 A  
ENDBRANCH   8  31
ENDBRANCH   5   8
TORSDOF 10
ENDMDL
MODEL      140
REMARK 921   NORMALIZED FREE ENERGY PREDICTED BY IDOCK:   -3.79 KCAL/MOL
REMARK 922        TOTAL FREE ENERGY PREDICTED BY IDOCK:   -7.35 KCAL/MOL
REMARK 923 INTER-LIGAND FREE ENERGY PREDICTED BY IDOCK:   -7.55 KCAL/MOL
REMARK 924 INTRA-LIGAND FREE ENERGY PREDICTED BY IDOCK:    0.20 KCAL/MOL
REMARK 927      BINDING AFFINITY PREDICTED BY RF-SCORE:    0.00 PKD
ROOT
HETATM    1  F   UNL     1      -8.553  11.614  65.615  1.00  0.00    -0.117 F  
HETATM    2  C   UNL     1      -9.236  11.315  66.727  1.00  0.00    -0.175 A  
HETATM    3  C   UNL     1     -10.304  10.429  66.657  1.00  0.00    -0.292 A  
HETATM    4  C   UNL     1     -11.039  10.136  67.809  1.00  0.00    -0.293 A  
HETATM    5  C   UNL     1     -10.705  10.727  69.044  1.00  0.00    -0.265 A  
HETATM    6  C   UNL     1      -9.593  11.589  69.092  1.00  0.00     0.153 A  
HETATM    7  C   UNL     1      -8.866  11.889  67.935  1.00  0.00    -0.172 A  
ENDROOT
BRANCH   5   8
HETATM    8  C   UNL     1     -11.546  10.422  70.297  1.00  0.00    -0.327 C  
BRANCH   8   9
HETATM    9  N   UNL     1     -10.761   9.699  71.338  1.00  0.00    -0.276 NA 
HETATM   10  C   UNL     1      -9.363   9.376  70.905  1.00  0.00    -0.193 C  
HETATM   11  C   UNL     1      -9.168   8.132  69.989  1.00  0.00    -0.155 C  
HETATM   12  C   UNL     1     -11.390   8.428  71.791  1.00  0.00    -0.300 C  
HETATM   13  C   UNL     1     -11.278   7.242  70.809  1.00  0.00    -0.274 C  
HETATM   14  N   UNL     1      -9.854   6.973  70.576  1.00  0.00    -0.179 NA 
BRANCH  14  15
HETATM   15  C   UNL     1      -9.588   5.792  69.882  1.00  0.00    -0.159 A  
HETATM   16  N   UNL     1      -9.083   5.877  68.661  1.00  0.00    -0.116 NA 
HETATM   17  C   UNL     1      -8.875   4.735  68.027  1.00  0.00    -0.105 A  
HETATM   18  N   UNL     1      -9.862   4.635  70.480  1.00  0.00    -0.216 NA 
HETATM   19  N   UNL     1      -9.183   3.546  68.519  1.00  0.00    -0.152 NA 
HETATM   20  C   UNL     1      -9.637   3.537  69.764  1.00  0.00    -0.136 A  
BRANCH  17  21
HETATM   21  N   UNL     1      -8.236   4.742  66.801  1.00  0.00    -0.107 NA 
HETATM   22  H   UNL     1      -7.259   4.464  66.710  1.00  0.00     0.000 HD 
BRANCH  21  23
HETATM   23  C   UNL     1      -9.007   5.159  65.660  1.00  0.00    -0.154 C  
BRANCH  23  24
HETATM   24  C   UNL     1      -8.284   6.330  65.072  1.00  0.00    -0.132 C  
HETATM   25  C   UNL     1      -7.539   7.202  65.766  1.00  0.00    -0.094 C  
ENDBRANCH  23  24
ENDBRANCH  21  23
ENDBRANCH  17  21
BRANCH  20  26
HETATM   26  N   UNL     1      -9.766   2.283  70.331  1.00  0.00    -0.029 NA 
HETATM   27  H   UNL     1     -10.248   1.537  69.829  1.00  0.00     0.000 HD 
BRANCH  26  28
HETATM   28  C   UNL     1      -9.211   2.039  71.640  1.00  0.00    -0.096 C  
BRANCH  28  29
HETATM   29  C   UNL     1     -10.196   2.535  72.666  1.00  0.00    -0.236 C  
HETATM   30  C   UNL     1     -10.296   2.074  73.922  1.00  0.00    -0.182 C  
ENDBRANCH  28  29
ENDBRANCH  26  28
ENDBRANCH  20  26
ENDBRANCH  14  15
ENDBRANCH   8   9
BRANCH   8  31
HETATM   31  C   UNL     1     -12.226  11.720  70.798  1.00  0.00    -0.424 A  
HETATM   32  C   UNL     1     -13.492  14.108  71.574  1.00  0.00    -0.344 A  
HETATM   33  C   UNL     1     -13.896  12.901  72.124  1.00  0.00    -0.390 A  
HETATM   34  F   UNL     1     -14.127  15.239  71.912  1.00  0.00    -0.453 F  
HETATM   35  C   UNL     1     -11.806  12.964  70.288  1.00  0.00    -0.291 A  
HETATM   36  C   UNL     1     -13.258  11.715  71.750  1.00  0.00    -0.438 A  
HETATM   37  C   UNL     1     -12.441  14.152  70.670  1.00  0.00    -0.432 A  
ENDBRANCH   8  31
ENDBRANCH   5   8
TORSDOF 10
ENDMDL
MODEL      141
REMARK 921   NORMALIZED FREE ENERGY PREDICTED BY IDOCK:   -3.77 KCAL/MOL
REMARK 922        TOTAL FREE ENERGY PREDICTED BY IDOCK:   -7.31 KCAL/MOL
REMARK 923 INTER-LIGAND FREE ENERGY PREDICTED BY IDOCK:   -6.30 KCAL/MOL
REMARK 924 INTRA-LIGAND FREE ENERGY PREDICTED BY IDOCK:   -1.01 KCAL/MOL
REMARK 927      BINDING AFFINITY PREDICTED BY RF-SCORE:    0.00 PKD
ROOT
HETATM    1  F   UNL     1     -11.747   6.042  66.372  1.00  0.00     0.044 F  
HETATM    2  C   UNL     1     -10.780   6.527  67.161  1.00  0.00    -0.368 A  
HETATM    3  C   UNL     1      -9.759   7.288  66.604  1.00  0.00    -0.249 A  
HETATM    4  C   UNL     1      -8.732   7.771  67.420  1.00  0.00    -0.128 A  
HETATM    5  C   UNL     1      -8.722   7.499  68.801  1.00  0.00    -0.128 A  
HETATM    6  C   UNL     1      -9.790   6.759  69.344  1.00  0.00    -0.162 A  
HETATM    7  C   UNL     1     -10.812   6.267  68.524  1.00  0.00    -0.394 A  
ENDROOT
BRANCH   5   8
HETATM    8  C   UNL     1      -7.564   8.009  69.680  1.00  0.00    -0.096 C  
BRANCH   8   9
HETATM    9  N   UNL     1      -7.959   9.189  70.501  1.00  0.00    -0.137 NA 
HETATM   10  C   UNL     1      -9.382   9.608  70.285  1.00  0.00    -0.242 C  
HETATM   11  C   UNL     1      -9.692  10.466  69.023  1.00  0.00    -0.206 C  
HETATM   12  C   UNL     1      -7.105  10.388  70.279  1.00  0.00    -0.049 C  
HETATM   13  C   UNL     1      -7.359  11.153  68.962  1.00  0.00    -0.120 C  
HETATM   14  N   UNL     1      -8.757  11.598  68.954  1.00  0.00     0.006 NA 
BRANCH  14  15
HETATM   15  C   UNL     1      -9.080  12.490  67.930  1.00  0.00    -0.199 A  
HETATM   16  N   UNL     1      -8.504  13.682  67.925  1.00  0.00    -0.164 NA 
HETATM   17  C   UNL     1      -8.862  14.508  66.956  1.00  0.00    -0.237 A  
HETATM   18  N   UNL     1      -9.961  12.101  67.010  1.00  0.00    -0.201 NA 
HETATM   19  N   UNL     1      -9.779  14.228  66.043  1.00  0.00    -0.305 NA 
HETATM   20  C   UNL     1     -10.275  12.999  66.082  1.00  0.00    -0.284 A  
BRANCH  17  21
HETATM   21  N   UNL     1      -8.211  15.719  66.817  1.00  0.00    -0.249 NA 
HETATM   22  H   UNL     1      -7.300  15.885  67.244  1.00  0.00     0.000 HD 
BRANCH  21  23
HETATM   23  C   UNL     1      -8.873  16.736  66.042  1.00  0.00    -0.183 C  
BRANCH  23  24
HETATM   24  C   UNL     1      -8.881  17.968  66.891  1.00  0.00    -0.266 C  
HETATM   25  C   UNL     1      -9.548  19.095  66.605  1.00  0.00    -0.394 C  
ENDBRANCH  23  24
ENDBRANCH  21  23
ENDBRANCH  17  21
BRANCH  20  26
HETATM   26  N   UNL     1     -11.078  12.659  65.010  1.00  0.00    -0.284 NA 
HETATM   27  H   UNL     1     -12.094  12.689  65.096  1.00  0.00     0.000 HD 
BRANCH  26  28
HETATM   28  C   UNL     1     -10.465  12.260  63.767  1.00  0.00    -0.444 C  
BRANCH  28  29
HETATM   29  C   UNL     1     -10.322  10.760  63.774  1.00  0.00    -0.294 C  
HETATM   30  C   UNL     1      -9.159  10.099  63.871  1.00  0.00    -0.293 C  
ENDBRANCH  28  29
ENDBRANCH  26  28
ENDBRANCH  20  26
ENDBRANCH  14  15
ENDBRANCH   8   9
BRANCH   8  31
HETATM   31  C   UNL     1      -6.973   6.833  70.496  1.00  0.00    -0.063 A  
HETATM   32  C   UNL     1      -6.027   4.676  72.032  1.00  0.00    -0.016 A  
HETATM   33  C   UNL     1      -5.857   4.671  70.656  1.00  0.00    -0.017 A  
HETATM   34  F   UNL     1      -5.615   3.626  72.757  1.00  0.00     0.000 F  
HETATM   35  C   UNL     1      -7.093   6.833  71.900  1.00  0.00    -0.079 A  
HETATM   36  C   UNL     1      -6.315   5.749  69.893  1.00  0.00    -0.031 A  
HETATM   37  C   UNL     1      -6.627   5.755  72.663  1.00  0.00    -0.067 A  
ENDBRANCH   8  31
ENDBRANCH   5   8
TORSDOF 10
ENDMDL
MODEL      142
REMARK 921   NORMALIZED FREE ENERGY PREDICTED BY IDOCK:   -3.76 KCAL/MOL
REMARK 922        TOTAL FREE ENERGY PREDICTED BY IDOCK:   -7.30 KCAL/MOL
REMARK 923 INTER-LIGAND FREE ENERGY PREDICTED BY IDOCK:   -7.54 KCAL/MOL
REMARK 924 INTRA-LIGAND FREE ENERGY PREDICTED BY IDOCK:    0.24 KCAL/MOL
REMARK 927      BINDING AFFINITY PREDICTED BY RF-SCORE:    0.00 PKD
ROOT
HETATM    1  F   UNL     1     -12.599  12.761  65.838  1.00  0.00    -0.470 F  
HETATM    2  C   UNL     1     -11.594  11.973  66.241  1.00  0.00    -0.310 A  
HETATM    3  C   UNL     1     -10.502  11.774  65.405  1.00  0.00    -0.317 A  
HETATM    4  C   UNL     1      -9.466  10.928  65.809  1.00  0.00    -0.246 A  
HETATM    5  C   UNL     1      -9.513  10.278  67.058  1.00  0.00    -0.191 A  
HETATM    6  C   UNL     1     -10.613  10.530  67.900  1.00  0.00    -0.271 A  
HETATM    7  C   UNL     1     -11.655  11.369  67.489  1.00  0.00    -0.298 A  
ENDROOT
BRANCH   5   8
HETATM    8  C   UNL     1      -8.380   9.321  67.474  1.00  0.00    -0.119 C  
BRANCH   8   9
HETATM    9  N   UNL     1      -7.366   9.993  68.335  1.00  0.00    -0.077 NA 
HETATM   10  C   UNL     1      -7.956  11.025  69.247  1.00  0.00    -0.027 C  
HETATM   11  C   UNL     1      -8.268  12.424  68.638  1.00  0.00    -0.002 C  
HETATM   12  C   UNL     1      -6.270  10.651  67.570  1.00  0.00    -0.056 C  
HETATM   13  C   UNL     1      -6.643  11.981  66.882  1.00  0.00    -0.047 C  
HETATM   14  N   UNL     1      -7.089  12.922  67.916  1.00  0.00    -0.110 NA 
BRANCH  14  15
HETATM   15  C   UNL     1      -7.253  14.237  67.478  1.00  0.00    -0.176 A  
HETATM   16  N   UNL     1      -6.183  15.013  67.393  1.00  0.00    -0.328 NA 
HETATM   17  C   UNL     1      -6.387  16.261  67.005  1.00  0.00    -0.099 A  
HETATM   18  N   UNL     1      -8.481  14.652  67.174  1.00  0.00    -0.213 NA 
HETATM   19  N   UNL     1      -7.581  16.773  66.750  1.00  0.00    -0.219 NA 
HETATM   20  C   UNL     1      -8.597  15.924  66.808  1.00  0.00    -0.266 A  
BRANCH  17  21
HETATM   21  N   UNL     1      -5.305  17.089  66.774  1.00  0.00    -0.235 NA 
HETATM   22  H   UNL     1      -4.352  16.790  66.982  1.00  0.00     0.000 HD 
BRANCH  21  23
HETATM   23  C   UNL     1      -5.579  18.392  66.226  1.00  0.00    -0.158 C  
BRANCH  23  24
HETATM   24  C   UNL     1      -5.326  19.370  67.330  1.00  0.00    -0.165 C  
HETATM   25  C   UNL     1      -5.678  20.663  67.310  1.00  0.00    -0.236 C  
ENDBRANCH  23  24
ENDBRANCH  21  23
ENDBRANCH  17  21
BRANCH  20  26
HETATM   26  N   UNL     1      -9.802  16.423  66.349  1.00  0.00    -0.276 NA 
HETATM   27  H   UNL     1     -10.562  15.788  66.102  1.00  0.00     0.000 HD 
BRANCH  26  28
HETATM   28  C   UNL     1      -9.974  17.849  66.221  1.00  0.00    -0.331 C  
BRANCH  28  29
HETATM   29  C   UNL     1     -10.629  18.357  67.479  1.00  0.00    -0.447 C  
HETATM   30  C   UNL     1     -10.060  19.191  68.360  1.00  0.00    -0.498 C  
ENDBRANCH  28  29
ENDBRANCH  26  28
ENDBRANCH  20  26
ENDBRANCH  14  15
ENDBRANCH   8   9
BRANCH   8  31
HETATM   31  C   UNL     1      -8.984   8.033  68.086  1.00  0.00    -0.135 A  
HETATM   32  C   UNL     1     -10.151   5.775  69.287  1.00  0.00    -0.205 A  
HETATM   33  C   UNL     1     -10.300   5.987  67.926  1.00  0.00    -0.255 A  
HETATM   34  F   UNL     1     -10.746   4.722  69.866  1.00  0.00    -0.265 F  
HETATM   35  C   UNL     1      -8.812   7.770  69.458  1.00  0.00    -0.139 A  
HETATM   36  C   UNL     1      -9.709   7.102  67.324  1.00  0.00    -0.198 A  
HETATM   37  C   UNL     1      -9.398   6.648  70.057  1.00  0.00    -0.158 A  
ENDBRANCH   8  31
ENDBRANCH   5   8
TORSDOF 10
ENDMDL
MODEL      143
REMARK 921   NORMALIZED FREE ENERGY PREDICTED BY IDOCK:   -3.76 KCAL/MOL
REMARK 922        TOTAL FREE ENERGY PREDICTED BY IDOCK:   -7.30 KCAL/MOL
REMARK 923 INTER-LIGAND FREE ENERGY PREDICTED BY IDOCK:   -8.36 KCAL/MOL
REMARK 924 INTRA-LIGAND FREE ENERGY PREDICTED BY IDOCK:    1.06 KCAL/MOL
REMARK 927      BINDING AFFINITY PREDICTED BY RF-SCORE:    0.00 PKD
ROOT
HETATM    1  F   UNL     1     -10.920   4.380  64.897  1.00  0.00    -0.308 F  
HETATM    2  C   UNL     1     -10.242   5.125  65.779  1.00  0.00    -0.053 A  
HETATM    3  C   UNL     1     -10.897   5.628  66.897  1.00  0.00    -0.287 A  
HETATM    4  C   UNL     1     -10.201   6.431  67.805  1.00  0.00    -0.196 A  
HETATM    5  C   UNL     1      -8.840   6.732  67.602  1.00  0.00    -0.117 A  
HETATM    6  C   UNL     1      -8.193   6.174  66.482  1.00  0.00    -0.111 A  
HETATM    7  C   UNL     1      -8.895   5.380  65.569  1.00  0.00    -0.153 A  
ENDROOT
BRANCH   5   8
HETATM    8  C   UNL     1      -8.096   7.646  68.593  1.00  0.00    -0.127 C  
BRANCH   8   9
HETATM    9  N   UNL     1      -7.239   8.648  67.897  1.00  0.00    -0.086 NA 
HETATM   10  C   UNL     1      -6.935   9.850  68.738  1.00  0.00    -0.062 C  
HETATM   11  C   UNL     1      -8.031  10.953  68.833  1.00  0.00    -0.146 C  
HETATM   12  C   UNL     1      -7.810   9.138  66.612  1.00  0.00    -0.100 C  
HETATM   13  C   UNL     1      -8.973  10.145  66.741  1.00  0.00    -0.132 C  
HETATM   14  N   UNL     1      -8.487  11.313  67.484  1.00  0.00    -0.129 NA 
BRANCH  14  15
HETATM   15  C   UNL     1      -9.358  12.404  67.493  1.00  0.00    -0.181 A  
HETATM   16  N   UNL     1     -10.405  12.384  66.682  1.00  0.00    -0.224 NA 
HETATM   17  C   UNL     1     -11.186  13.451  66.700  1.00  0.00    -0.309 A  
HETATM   18  N   UNL     1      -9.089  13.418  68.313  1.00  0.00    -0.191 NA 
HETATM   19  N   UNL     1     -10.955  14.529  67.432  1.00  0.00    -0.295 NA 
HETATM   20  C   UNL     1      -9.918  14.456  68.254  1.00  0.00    -0.232 A  
BRANCH  17  21
HETATM   21  N   UNL     1     -12.363  13.446  65.974  1.00  0.00    -0.429 NA 
HETATM   22  H   UNL     1     -13.178  12.919  66.286  1.00  0.00     0.000 HD 
BRANCH  21  23
HETATM   23  C   UNL     1     -12.388  14.217  64.758  1.00  0.00    -0.426 C  
BRANCH  23  24
HETATM   24  C   UNL     1     -12.076  13.260  63.651  1.00  0.00    -0.551 C  
HETATM   25  C   UNL     1     -12.771  12.147  63.377  1.00  0.00    -0.508 C  
ENDBRANCH  23  24
ENDBRANCH  21  23
ENDBRANCH  17  21
BRANCH  20  26
HETATM   26  N   UNL     1      -9.806  15.503  69.149  1.00  0.00    -0.229 NA 
HETATM   27  H   UNL     1      -9.211  15.416  69.973  1.00  0.00     0.000 HD 
BRANCH  26  28
HETATM   28  C   UNL     1     -10.541  16.721  68.906  1.00  0.00    -0.350 C  
BRANCH  28  29
HETATM   29  C   UNL     1      -9.550  17.811  68.592  1.00  0.00    -0.322 C  
HETATM   30  C   UNL     1      -8.804  17.875  67.479  1.00  0.00    -0.248 C  
ENDBRANCH  28  29
ENDBRANCH  26  28
ENDBRANCH  20  26
ENDBRANCH  14  15
ENDBRANCH   8   9
BRANCH   8  31
HETATM   31  C   UNL     1      -9.104   8.257  69.597  1.00  0.00    -0.154 A  
HETATM   32  C   UNL     1     -11.032   9.277  71.371  1.00  0.00    -0.359 A  
HETATM   33  C   UNL     1      -9.832   8.786  71.863  1.00  0.00    -0.395 A  
HETATM   34  F   UNL     1     -11.967   9.721  72.223  1.00  0.00    -0.355 F  
HETATM   35  C   UNL     1     -10.313   8.802  69.122  1.00  0.00    -0.227 A  
HETATM   36  C   UNL     1      -8.867   8.291  70.980  1.00  0.00    -0.176 A  
HETATM   37  C   UNL     1     -11.275   9.304  70.007  1.00  0.00    -0.190 A  
ENDBRANCH   8  31
ENDBRANCH   5   8
TORSDOF 10
ENDMDL
MODEL      144
REMARK 921   NORMALIZED FREE ENERGY PREDICTED BY IDOCK:   -3.75 KCAL/MOL
REMARK 922        TOTAL FREE ENERGY PREDICTED BY IDOCK:   -7.29 KCAL/MOL
REMARK 923 INTER-LIGAND FREE ENERGY PREDICTED BY IDOCK:   -7.83 KCAL/MOL
REMARK 924 INTRA-LIGAND FREE ENERGY PREDICTED BY IDOCK:    0.54 KCAL/MOL
REMARK 927      BINDING AFFINITY PREDICTED BY RF-SCORE:    0.00 PKD
ROOT
HETATM    1  F   UNL     1      -6.467   8.656  73.950  1.00  0.00    -0.130 F  
HETATM    2  C   UNL     1      -7.035   8.277  72.798  1.00  0.00    -0.097 A  
HETATM    3  C   UNL     1      -8.038   7.315  72.814  1.00  0.00    -0.122 A  
HETATM    4  C   UNL     1      -8.613   6.894  71.611  1.00  0.00    -0.117 A  
HETATM    5  C   UNL     1      -8.190   7.438  70.383  1.00  0.00    -0.121 A  
HETATM    6  C   UNL     1      -7.200   8.440  70.402  1.00  0.00    -0.037 A  
HETATM    7  C   UNL     1      -6.618   8.851  71.605  1.00  0.00    -0.070 A  
ENDROOT
BRANCH   5   8
HETATM    8  C   UNL     1      -8.808   6.938  69.064  1.00  0.00    -0.130 C  
BRANCH   8   9
HETATM    9  N   UNL     1     -10.277   7.185  69.003  1.00  0.00    -0.184 NA 
HETATM   10  C   UNL     1     -10.780   7.409  67.610  1.00  0.00    -0.207 C  
HETATM   11  C   UNL     1     -10.585   8.828  66.998  1.00  0.00    -0.213 C  
HETATM   12  C   UNL     1     -10.727   8.338  69.829  1.00  0.00    -0.221 C  
HETATM   13  C   UNL     1     -10.416   9.735  69.249  1.00  0.00    -0.219 C  
HETATM   14  N   UNL     1     -11.072   9.844  67.941  1.00  0.00    -0.226 NA 
BRANCH  14  15
HETATM   15  C   UNL     1     -11.066  11.125  67.388  1.00  0.00    -0.307 A  
HETATM   16  N   UNL     1     -10.487  11.303  66.210  1.00  0.00    -0.251 NA 
HETATM   17  C   UNL     1     -10.475  12.538  65.737  1.00  0.00    -0.271 A  
HETATM   18  N   UNL     1     -11.638  12.111  68.076  1.00  0.00    -0.330 NA 
HETATM   19  N   UNL     1     -10.958  13.586  66.386  1.00  0.00    -0.292 NA 
HETATM   20  C   UNL     1     -11.567  13.323  67.534  1.00  0.00    -0.346 A  
BRANCH  17  21
HETATM   21  N   UNL     1      -9.999  12.775  64.461  1.00  0.00    -0.573 NA 
HETATM   22  H   UNL     1      -9.267  13.463  64.286  1.00  0.00     0.000 HD 
BRANCH  21  23
HETATM   23  C   UNL     1     -10.582  12.010  63.390  1.00  0.00    -0.428 C  
BRANCH  23  24
HETATM   24  C   UNL     1      -9.447  11.312  62.711  1.00  0.00    -0.355 C  
HETATM   25  C   UNL     1      -8.876  10.176  63.136  1.00  0.00    -0.232 C  
ENDBRANCH  23  24
ENDBRANCH  21  23
ENDBRANCH  17  21
BRANCH  20  26
HETATM   26  N   UNL     1     -12.236  14.392  68.099  1.00  0.00    -0.590 NA 
HETATM   27  H   UNL     1     -13.110  14.727  67.691  1.00  0.00     0.000 HD 
BRANCH  26  28
HETATM   28  C   UNL     1     -11.687  15.030  69.270  1.00  0.00    -0.323 C  
BRANCH  28  29
HETATM   29  C   UNL     1     -12.651  14.828  70.410  1.00  0.00    -0.399 C  
HETATM   30  C   UNL     1     -12.652  13.775  71.240  1.00  0.00    -0.444 C  
ENDBRANCH  28  29
ENDBRANCH  26  28
ENDBRANCH  20  26
ENDBRANCH  14  15
ENDBRANCH   8   9
BRANCH   8  31
HETATM   31  C   UNL     1      -8.014   7.515  67.865  1.00  0.00    -0.119 A  
HETATM   32  C   UNL     1      -6.680   8.526  65.606  1.00  0.00    -0.060 A  
HETATM   33  C   UNL     1      -6.911   9.349  66.698  1.00  0.00    -0.080 A  
HETATM   34  F   UNL     1      -6.084   9.023  64.513  1.00  0.00    -0.066 F  
HETATM   35  C   UNL     1      -7.727   6.690  66.761  1.00  0.00    -0.106 A  
HETATM   36  C   UNL     1      -7.562   8.844  67.828  1.00  0.00    -0.093 A  
HETATM   37  C   UNL     1      -7.068   7.195  65.634  1.00  0.00    -0.068 A  
ENDBRANCH   8  31
ENDBRANCH   5   8
TORSDOF 10
ENDMDL
MODEL      145
REMARK 921   NORMALIZED FREE ENERGY PREDICTED BY IDOCK:   -3.72 KCAL/MOL
REMARK 922        TOTAL FREE ENERGY PREDICTED BY IDOCK:   -7.24 KCAL/MOL
REMARK 923 INTER-LIGAND FREE ENERGY PREDICTED BY IDOCK:   -8.44 KCAL/MOL
REMARK 924 INTRA-LIGAND FREE ENERGY PREDICTED BY IDOCK:    1.21 KCAL/MOL
REMARK 927      BINDING AFFINITY PREDICTED BY RF-SCORE:    0.00 PKD
ROOT
HETATM    1  F   UNL     1     -12.400  13.931  63.443  1.00  0.00    -0.532 F  
HETATM    2  C   UNL     1     -11.510  13.102  64.005  1.00  0.00    -0.406 A  
HETATM    3  C   UNL     1     -11.018  13.383  65.274  1.00  0.00    -0.306 A  
HETATM    4  C   UNL     1     -10.066  12.537  65.850  1.00  0.00    -0.270 A  
HETATM    5  C   UNL     1      -9.604  11.399  65.162  1.00  0.00    -0.258 A  
HETATM    6  C   UNL     1     -10.151  11.118  63.894  1.00  0.00    -0.404 A  
HETATM    7  C   UNL     1     -11.095  11.972  63.314  1.00  0.00    -0.400 A  
ENDROOT
BRANCH   5   8
HETATM    8  C   UNL     1      -8.529  10.497  65.796  1.00  0.00    -0.175 C  
BRANCH   8   9
HETATM    9  N   UNL     1      -7.798  11.184  66.898  1.00  0.00    -0.145 NA 
HETATM   10  C   UNL     1      -6.851  10.283  67.629  1.00  0.00    -0.075 C  
HETATM   11  C   UNL     1      -7.453   9.337  68.710  1.00  0.00    -0.076 C  
HETATM   12  C   UNL     1      -8.690  11.809  67.913  1.00  0.00    -0.164 C  
HETATM   13  C   UNL     1      -9.363  10.831  68.900  1.00  0.00    -0.175 C  
HETATM   14  N   UNL     1      -8.309  10.110  69.621  1.00  0.00    -0.174 NA 
BRANCH  14  15
HETATM   15  C   UNL     1      -8.755   9.348  70.702  1.00  0.00    -0.211 A  
HETATM   16  N   UNL     1      -7.878   8.598  71.352  1.00  0.00    -0.122 NA 
HETATM   17  C   UNL     1      -8.349   7.868  72.349  1.00  0.00    -0.138 A  
HETATM   18  N   UNL     1     -10.046   9.405  71.022  1.00  0.00    -0.297 NA 
HETATM   19  N   UNL     1      -9.626   7.813  72.690  1.00  0.00    -0.181 NA 
HETATM   20  C   UNL     1     -10.436   8.627  72.027  1.00  0.00    -0.352 A  
BRANCH  17  21
HETATM   21  N   UNL     1      -7.472   7.160  73.149  1.00  0.00    -0.072 NA 
HETATM   22  H   UNL     1      -6.462   7.270  73.058  1.00  0.00     0.000 HD 
BRANCH  21  23
HETATM   23  C   UNL     1      -8.044   6.261  74.117  1.00  0.00    -0.108 C  
BRANCH  23  24
HETATM   24  C   UNL     1      -7.369   4.942  73.911  1.00  0.00    -0.083 C  
HETATM   25  C   UNL     1      -7.997   3.790  73.634  1.00  0.00    -0.086 C  
ENDBRANCH  23  24
ENDBRANCH  21  23
ENDBRANCH  17  21
BRANCH  20  26
HETATM   26  N   UNL     1     -11.723   8.704  72.525  1.00  0.00    -0.329 NA 
HETATM   27  H   UNL     1     -11.983   8.188  73.367  1.00  0.00     0.000 HD 
BRANCH  26  28
HETATM   28  C   UNL     1     -12.696   9.521  71.842  1.00  0.00    -0.411 C  
BRANCH  28  29
HETATM   29  C   UNL     1     -13.973   8.729  71.724  1.00  0.00    -0.475 C  
HETATM   30  C   UNL     1     -14.043   7.396  71.603  1.00  0.00    -0.552 C  
ENDBRANCH  28  29
ENDBRANCH  26  28
ENDBRANCH  20  26
ENDBRANCH  14  15
ENDBRANCH   8   9
BRANCH   8  31
HETATM   31  C   UNL     1      -9.159   9.140  66.197  1.00  0.00    -0.234 A  
HETATM   32  C   UNL     1     -10.417   6.714  66.856  1.00  0.00    -0.279 A  
HETATM   33  C   UNL     1      -9.190   6.702  66.212  1.00  0.00    -0.158 A  
HETATM   34  F   UNL     1     -11.036   5.555  67.127  1.00  0.00    -0.286 F  
HETATM   35  C   UNL     1     -10.385   9.122  66.890  1.00  0.00    -0.321 A  
HETATM   36  C   UNL     1      -8.556   7.908  65.896  1.00  0.00    -0.171 A  
HETATM   37  C   UNL     1     -11.014   7.913  67.212  1.00  0.00    -0.016 A  
ENDBRANCH   8  31
ENDBRANCH   5   8
TORSDOF 10
ENDMDL
MODEL      146
REMARK 921   NORMALIZED FREE ENERGY PREDICTED BY IDOCK:   -3.71 KCAL/MOL
REMARK 922        TOTAL FREE ENERGY PREDICTED BY IDOCK:   -7.22 KCAL/MOL
REMARK 923 INTER-LIGAND FREE ENERGY PREDICTED BY IDOCK:   -6.09 KCAL/MOL
REMARK 924 INTRA-LIGAND FREE ENERGY PREDICTED BY IDOCK:   -1.13 KCAL/MOL
REMARK 927      BINDING AFFINITY PREDICTED BY RF-SCORE:    0.00 PKD
ROOT
HETATM    1  F   UNL     1     -11.855   6.112  66.264  1.00  0.00     0.300 F  
HETATM    2  C   UNL     1     -10.943   6.809  66.953  1.00  0.00    -0.300 A  
HETATM    3  C   UNL     1     -10.021   7.594  66.270  1.00  0.00    -0.021 A  
HETATM    4  C   UNL     1      -9.048   8.299  66.984  1.00  0.00    -0.172 A  
HETATM    5  C   UNL     1      -8.994   8.227  68.390  1.00  0.00    -0.136 A  
HETATM    6  C   UNL     1      -9.966   7.456  69.057  1.00  0.00    -0.176 A  
HETATM    7  C   UNL     1     -10.932   6.743  68.340  1.00  0.00    -0.257 A  
ENDROOT
BRANCH   5   8
HETATM    8  C   UNL     1      -7.894   8.982  69.159  1.00  0.00    -0.093 C  
BRANCH   8   9
HETATM    9  N   UNL     1      -8.435  10.151  69.909  1.00  0.00    -0.146 NA 
HETATM   10  C   UNL     1      -9.843  10.496  69.530  1.00  0.00    -0.142 C  
HETATM   11  C   UNL     1     -10.051  11.321  68.225  1.00  0.00    -0.188 C  
HETATM   12  C   UNL     1      -7.620  11.388  69.762  1.00  0.00     0.534 C  
HETATM   13  C   UNL     1      -7.762  12.123  68.411  1.00  0.00    -0.134 C  
HETATM   14  N   UNL     1      -9.170  12.497  68.239  1.00  0.00    -0.202 NA 
BRANCH  14  15
HETATM   15  C   UNL     1      -9.420  13.358  67.170  1.00  0.00    -0.244 A  
HETATM   16  N   UNL     1     -10.113  12.900  66.138  1.00  0.00    -0.271 NA 
HETATM   17  C   UNL     1     -10.300  13.738  65.132  1.00  0.00    -0.372 A  
HETATM   18  N   UNL     1      -8.943  14.599  67.235  1.00  0.00    -0.194 NA 
HETATM   19  N   UNL     1      -9.803  14.964  65.085  1.00  0.00    -0.235 NA 
HETATM   20  C   UNL     1      -9.164  15.369  66.174  1.00  0.00    -0.327 A  
BRANCH  17  21
HETATM   21  N   UNL     1     -11.118  13.370  64.081  1.00  0.00    -0.517 NA 
HETATM   22  H   UNL     1     -11.356  14.026  63.337  1.00  0.00     0.000 HD 
BRANCH  21  23
HETATM   23  C   UNL     1     -11.620  12.020  64.080  1.00  0.00    -0.411 C  
BRANCH  23  24
HETATM   24  C   UNL     1     -10.749  11.253  63.135  1.00  0.00    -0.173 C  
HETATM   25  C   UNL     1      -9.774  10.408  63.501  1.00  0.00    -0.333 C  
ENDBRANCH  23  24
ENDBRANCH  21  23
ENDBRANCH  17  21
BRANCH  20  26
HETATM   26  N   UNL     1      -8.825  16.709  66.188  1.00  0.00    -0.425 NA 
HETATM   27  H   UNL     1      -7.845  16.993  66.217  1.00  0.00     0.000 HD 
BRANCH  26  28
HETATM   28  C   UNL     1      -9.871  17.702  66.162  1.00  0.00    -0.242 C  
BRANCH  28  29
HETATM   29  C   UNL     1      -9.278  19.018  66.594  1.00  0.00    -0.351 C  
HETATM   30  C   UNL     1      -9.974  20.146  66.794  1.00  0.00    -0.604 C  
ENDBRANCH  28  29
ENDBRANCH  26  28
ENDBRANCH  20  26
ENDBRANCH  14  15
ENDBRANCH   8   9
BRANCH   8  31
HETATM   31  C   UNL     1      -7.088   7.984  70.027  1.00  0.00    -0.049 A  
HETATM   32  C   UNL     1      -5.736   6.159  71.685  1.00  0.00    -0.027 A  
HETATM   33  C   UNL     1      -5.839   5.911  70.325  1.00  0.00    -0.024 A  
HETATM   34  F   UNL     1      -5.131   5.265  72.480  1.00  0.00    -0.007 F  
HETATM   35  C   UNL     1      -6.930   8.232  71.405  1.00  0.00    -0.065 A  
HETATM   36  C   UNL     1      -6.499   6.825  69.497  1.00  0.00    -0.044 A  
HETATM   37  C   UNL     1      -6.262   7.320  72.230  1.00  0.00    -0.043 A  
ENDBRANCH   8  31
ENDBRANCH   5   8
TORSDOF 10
ENDMDL
MODEL      147
REMARK 921   NORMALIZED FREE ENERGY PREDICTED BY IDOCK:   -3.69 KCAL/MOL
REMARK 922        TOTAL FREE ENERGY PREDICTED BY IDOCK:   -7.19 KCAL/MOL
REMARK 923 INTER-LIGAND FREE ENERGY PREDICTED BY IDOCK:   -8.58 KCAL/MOL
REMARK 924 INTRA-LIGAND FREE ENERGY PREDICTED BY IDOCK:    1.39 KCAL/MOL
REMARK 927      BINDING AFFINITY PREDICTED BY RF-SCORE:    0.00 PKD
ROOT
HETATM    1  F   UNL     1     -13.040  14.238  66.128  1.00  0.00    -0.427 F  
HETATM    2  C   UNL     1     -12.202  13.296  66.580  1.00  0.00    -0.327 A  
HETATM    3  C   UNL     1     -11.805  12.269  65.732  1.00  0.00    -0.417 A  
HETATM    4  C   UNL     1     -10.955  11.267  66.208  1.00  0.00    -0.265 A  
HETATM    5  C   UNL     1     -10.492  11.288  67.538  1.00  0.00    -0.234 A  
HETATM    6  C   UNL     1     -10.880  12.363  68.363  1.00  0.00    -0.263 A  
HETATM    7  C   UNL     1     -11.739  13.359  67.887  1.00  0.00    -0.396 A  
ENDROOT
BRANCH   5   8
HETATM    8  C   UNL     1      -9.585  10.158  68.058  1.00  0.00    -0.145 C  
BRANCH   8   9
HETATM    9  N   UNL     1      -8.141  10.522  67.993  1.00  0.00    -0.109 NA 
HETATM   10  C   UNL     1      -7.724  11.476  69.071  1.00  0.00    -0.034 C  
HETATM   11  C   UNL     1      -8.046  12.985  68.856  1.00  0.00     0.206 C  
HETATM   12  C   UNL     1      -7.729  11.116  66.692  1.00  0.00    -0.155 C  
HETATM   13  C   UNL     1      -8.162  12.580  66.460  1.00  0.00     0.215 C  
HETATM   14  N   UNL     1      -7.582  13.403  67.526  1.00  0.00    -0.170 NA 
BRANCH  14  15
HETATM   15  C   UNL     1      -7.702  14.780  67.333  1.00  0.00    -0.204 A  
HETATM   16  N   UNL     1      -6.609  15.479  67.064  1.00  0.00    -0.244 NA 
HETATM   17  C   UNL     1      -6.763  16.784  66.920  1.00  0.00    -0.220 A  
HETATM   18  N   UNL     1      -8.911  15.328  67.436  1.00  0.00    -0.171 NA 
HETATM   19  N   UNL     1      -7.915  17.418  67.073  1.00  0.00    -0.205 NA 
HETATM   20  C   UNL     1      -8.971  16.648  67.291  1.00  0.00    -0.200 A  
BRANCH  17  21
HETATM   21  N   UNL     1      -5.690  17.557  66.516  1.00  0.00    -0.182 NA 
HETATM   22  H   UNL     1      -4.826  17.592  67.057  1.00  0.00     0.000 HD 
BRANCH  21  23
HETATM   23  C   UNL     1      -5.843  18.308  65.297  1.00  0.00    -0.180 C  
BRANCH  23  24
HETATM   24  C   UNL     1      -5.842  19.751  65.695  1.00  0.00    -0.198 C  
HETATM   25  C   UNL     1      -6.371  20.749  64.973  1.00  0.00    -0.286 C  
ENDBRANCH  23  24
ENDBRANCH  21  23
ENDBRANCH  17  21
BRANCH  20  26
HETATM   26  N   UNL     1     -10.189  17.301  67.252  1.00  0.00    -0.311 NA 
HETATM   27  H   UNL     1     -10.883  17.143  67.983  1.00  0.00     0.000 HD 
BRANCH  26  28
HETATM   28  C   UNL     1     -10.468  18.209  66.166  1.00  0.00    -0.364 C  
BRANCH  28  29
HETATM   29  C   UNL     1     -10.642  19.590  66.743  1.00  0.00    -0.597 C  
HETATM   30  C   UNL     1      -9.641  20.430  67.041  1.00  0.00    -0.571 C  
ENDBRANCH  28  29
ENDBRANCH  26  28
ENDBRANCH  20  26
ENDBRANCH  14  15
ENDBRANCH   8   9
BRANCH   8  31
HETATM   31  C   UNL     1     -10.067   9.706  69.459  1.00  0.00    -0.223 A  
HETATM   32  C   UNL     1     -11.019   8.787  71.940  1.00  0.00    -0.365 A  
HETATM   33  C   UNL     1      -9.655   8.830  71.697  1.00  0.00    -0.363 A  
HETATM   34  F   UNL     1     -11.472   8.306  73.107  1.00  0.00    -0.397 F  
HETATM   35  C   UNL     1     -11.445   9.693  69.749  1.00  0.00    -0.095 A  
HETATM   36  C   UNL     1      -9.179   9.300  70.469  1.00  0.00    -0.311 A  
HETATM   37  C   UNL     1     -11.919   9.230  70.982  1.00  0.00    -0.369 A  
ENDBRANCH   8  31
ENDBRANCH   5   8
TORSDOF 10
ENDMDL
MODEL      148
REMARK 921   NORMALIZED FREE ENERGY PREDICTED BY IDOCK:   -3.66 KCAL/MOL
REMARK 922        TOTAL FREE ENERGY PREDICTED BY IDOCK:   -7.15 KCAL/MOL
REMARK 923 INTER-LIGAND FREE ENERGY PREDICTED BY IDOCK:   -6.05 KCAL/MOL
REMARK 924 INTRA-LIGAND FREE ENERGY PREDICTED BY IDOCK:   -1.10 KCAL/MOL
REMARK 927      BINDING AFFINITY PREDICTED BY RF-SCORE:    0.00 PKD
ROOT
HETATM    1  F   UNL     1      -8.358   3.572  65.242  1.00  0.00    -0.095 F  
HETATM    2  C   UNL     1      -8.623   4.204  66.392  1.00  0.00    -0.113 A  
HETATM    3  C   UNL     1      -9.763   3.868  67.113  1.00  0.00    -0.182 A  
HETATM    4  C   UNL     1     -10.059   4.546  68.298  1.00  0.00    -0.030 A  
HETATM    5  C   UNL     1      -9.212   5.566  68.774  1.00  0.00    -0.142 A  
HETATM    6  C   UNL     1      -8.043   5.858  68.044  1.00  0.00    -0.105 A  
HETATM    7  C   UNL     1      -7.755   5.185  66.852  1.00  0.00    -0.092 A  
ENDROOT
BRANCH   5   8
HETATM    8  C   UNL     1      -9.570   6.328  70.063  1.00  0.00    -0.158 C  
BRANCH   8   9
HETATM    9  N   UNL     1     -10.768   7.197  69.887  1.00  0.00    -0.233 NA 
HETATM   10  C   UNL     1     -11.073   7.498  68.451  1.00  0.00     0.242 C  
HETATM   11  C   UNL     1     -10.241   8.619  67.762  1.00  0.00    -0.225 C  
HETATM   12  C   UNL     1     -10.676   8.499  70.603  1.00  0.00    -0.220 C  
HETATM   13  C   UNL     1      -9.752   9.553  69.954  1.00  0.00    -0.224 C  
HETATM   14  N   UNL     1     -10.248   9.826  68.601  1.00  0.00    -0.183 NA 
BRANCH  14  15
HETATM   15  C   UNL     1      -9.649  10.915  67.967  1.00  0.00    -0.162 A  
HETATM   16  N   UNL     1     -10.102  11.282  66.777  1.00  0.00    -0.213 NA 
HETATM   17  C   UNL     1      -9.485  12.298  66.197  1.00  0.00    -0.217 A  
HETATM   18  N   UNL     1      -8.643  11.529  68.586  1.00  0.00    -0.142 NA 
HETATM   19  N   UNL     1      -8.435  12.920  66.711  1.00  0.00    -0.084 NA 
HETATM   20  C   UNL     1      -8.071  12.530  67.924  1.00  0.00    -0.163 A  
BRANCH  17  21
HETATM   21  N   UNL     1      -9.983  12.813  65.015  1.00  0.00    -0.475 NA 
HETATM   22  H   UNL     1     -10.102  12.228  64.188  1.00  0.00     0.000 HD 
BRANCH  21  23
HETATM   23  C   UNL     1     -10.327  14.211  65.001  1.00  0.00    -0.418 C  
BRANCH  23  24
HETATM   24  C   UNL     1     -11.800  14.280  65.256  1.00  0.00    -0.374 C  
HETATM   25  C   UNL     1     -12.383  14.114  66.452  1.00  0.00    -0.431 C  
ENDBRANCH  23  24
ENDBRANCH  21  23
ENDBRANCH  17  21
BRANCH  20  26
HETATM   26  N   UNL     1      -7.106  13.317  68.525  1.00  0.00    -0.099 NA 
HETATM   27  H   UNL     1      -6.117  13.085  68.427  1.00  0.00     0.000 HD 
BRANCH  26  28
HETATM   28  C   UNL     1      -7.511  14.469  69.293  1.00  0.00    -0.102 C  
BRANCH  28  29
HETATM   29  C   UNL     1      -6.639  15.630  68.892  1.00  0.00    -0.116 C  
HETATM   30  C   UNL     1      -6.661  16.232  67.695  1.00  0.00    -0.169 C  
ENDBRANCH  28  29
ENDBRANCH  26  28
ENDBRANCH  20  26
ENDBRANCH  14  15
ENDBRANCH   8   9
BRANCH   8  31
HETATM   31  C   UNL     1      -9.672   5.333  71.246  1.00  0.00    -0.222 A  
HETATM   32  C   UNL     1      -9.753   3.595  73.454  1.00  0.00    -0.109 A  
HETATM   33  C   UNL     1     -10.893   4.288  73.079  1.00  0.00    -0.267 A  
HETATM   34  F   UNL     1      -9.782   2.802  74.535  1.00  0.00    -0.106 F  
HETATM   35  C   UNL     1      -8.541   4.584  71.622  1.00  0.00    -0.125 A  
HETATM   36  C   UNL     1     -10.859   5.142  71.972  1.00  0.00    -0.194 A  
HETATM   37  C   UNL     1      -8.580   3.723  72.726  1.00  0.00    -0.097 A  
ENDBRANCH   8  31
ENDBRANCH   5   8
TORSDOF 10
ENDMDL
MODEL      149
REMARK 921   NORMALIZED FREE ENERGY PREDICTED BY IDOCK:   -3.62 KCAL/MOL
REMARK 922        TOTAL FREE ENERGY PREDICTED BY IDOCK:   -7.09 KCAL/MOL
REMARK 923 INTER-LIGAND FREE ENERGY PREDICTED BY IDOCK:   -7.05 KCAL/MOL
REMARK 924 INTRA-LIGAND FREE ENERGY PREDICTED BY IDOCK:   -0.04 KCAL/MOL
REMARK 927      BINDING AFFINITY PREDICTED BY RF-SCORE:    0.00 PKD
ROOT
HETATM    1  F   UNL     1     -13.160  12.211  63.238  1.00  0.00    -0.550 F  
HETATM    2  C   UNL     1     -11.988  12.011  63.855  1.00  0.00    -0.443 A  
HETATM    3  C   UNL     1     -10.803  12.219  63.158  1.00  0.00    -0.184 A  
HETATM    4  C   UNL     1      -9.579  11.982  63.789  1.00  0.00    -0.095 A  
HETATM    5  C   UNL     1      -9.531  11.540  65.125  1.00  0.00    -0.190 A  
HETATM    6  C   UNL     1     -10.747  11.377  65.818  1.00  0.00    -0.309 A  
HETATM    7  C   UNL     1     -11.972  11.604  65.181  1.00  0.00     0.187 A  
ENDROOT
BRANCH   5   8
HETATM    8  C   UNL     1      -8.175  11.250  65.795  1.00  0.00     0.071 C  
BRANCH   8   9
HETATM    9  N   UNL     1      -8.230  11.428  67.274  1.00  0.00    -0.144 NA 
HETATM   10  C   UNL     1      -9.397  12.252  67.727  1.00  0.00    -0.194 C  
HETATM   11  C   UNL     1      -9.267  13.800  67.612  1.00  0.00    -0.207 C  
HETATM   12  C   UNL     1      -7.002  12.042  67.851  1.00  0.00    -0.095 C  
HETATM   13  C   UNL     1      -6.846  13.561  67.622  1.00  0.00    -0.170 C  
HETATM   14  N   UNL     1      -8.003  14.236  68.221  1.00  0.00    -0.131 NA 
BRANCH  14  15
HETATM   15  C   UNL     1      -7.899  15.626  68.288  1.00  0.00    -0.128 A  
HETATM   16  N   UNL     1      -6.692  16.171  68.273  1.00  0.00    -0.120 NA 
HETATM   17  C   UNL     1      -6.638  17.489  68.370  1.00  0.00    -0.190 A  
HETATM   18  N   UNL     1      -9.021  16.338  68.371  1.00  0.00    -0.196 NA 
HETATM   19  N   UNL     1      -7.698  18.266  68.525  1.00  0.00    -0.298 NA 
HETATM   20  C   UNL     1      -8.873  17.655  68.481  1.00  0.00    -0.285 A  
BRANCH  17  21
HETATM   21  N   UNL     1      -5.422  18.133  68.236  1.00  0.00    -0.164 NA 
HETATM   22  H   UNL     1      -4.578  17.626  67.969  1.00  0.00     0.000 HD 
BRANCH  21  23
HETATM   23  C   UNL     1      -5.397  19.550  68.490  1.00  0.00    -0.193 C  
BRANCH  23  24
HETATM   24  C   UNL     1      -5.332  20.212  67.150  1.00  0.00    -0.177 C  
HETATM   25  C   UNL     1      -6.102  21.238  66.759  1.00  0.00    -0.392 C  
ENDBRANCH  23  24
ENDBRANCH  21  23
ENDBRANCH  17  21
BRANCH  20  26
HETATM   26  N   UNL     1      -9.969  18.496  68.444  1.00  0.00    -0.362 NA 
HETATM   27  H   UNL     1     -10.910  18.123  68.570  1.00  0.00     0.000 HD 
BRANCH  26  28
HETATM   28  C   UNL     1      -9.769  19.908  68.226  1.00  0.00    -0.368 C  
BRANCH  28  29
HETATM   29  C   UNL     1     -10.152  20.222  66.804  1.00  0.00    -0.556 C  
HETATM   30  C   UNL     1     -10.624  19.331  65.920  1.00  0.00    -0.521 C  
ENDBRANCH  28  29
ENDBRANCH  26  28
ENDBRANCH  20  26
ENDBRANCH  14  15
ENDBRANCH   8   9
BRANCH   8  31
HETATM   31  C   UNL     1      -7.654   9.865  65.338  1.00  0.00    -0.131 A  
HETATM   32  C   UNL     1      -6.589   7.377  64.576  1.00  0.00    -0.040 A  
HETATM   33  C   UNL     1      -7.797   7.433  65.254  1.00  0.00    -0.121 A  
HETATM   34  F   UNL     1      -6.061   6.187  64.254  1.00  0.00    -0.024 F  
HETATM   35  C   UNL     1      -6.451   9.782  64.610  1.00  0.00    -0.111 A  
HETATM   36  C   UNL     1      -8.335   8.670  65.621  1.00  0.00    -0.151 A  
HETATM   37  C   UNL     1      -5.918   8.542  64.236  1.00  0.00    -0.066 A  
ENDBRANCH   8  31
ENDBRANCH   5   8
TORSDOF 10
ENDMDL
MODEL      150
REMARK 921   NORMALIZED FREE ENERGY PREDICTED BY IDOCK:   -3.61 KCAL/MOL
REMARK 922        TOTAL FREE ENERGY PREDICTED BY IDOCK:   -7.06 KCAL/MOL
REMARK 923 INTER-LIGAND FREE ENERGY PREDICTED BY IDOCK:   -8.50 KCAL/MOL
REMARK 924 INTRA-LIGAND FREE ENERGY PREDICTED BY IDOCK:    1.44 KCAL/MOL
REMARK 927      BINDING AFFINITY PREDICTED BY RF-SCORE:    0.00 PKD
ROOT
HETATM    1  F   UNL     1     -13.772  10.617  71.431  1.00  0.00    -0.261 F  
HETATM    2  C   UNL     1     -12.898   9.604  71.462  1.00  0.00    -0.392 A  
HETATM    3  C   UNL     1     -13.360   8.306  71.649  1.00  0.00    -0.353 A  
HETATM    4  C   UNL     1     -12.448   7.249  71.713  1.00  0.00    -0.378 A  
HETATM    5  C   UNL     1     -11.065   7.483  71.585  1.00  0.00    -0.270 A  
HETATM    6  C   UNL     1     -10.630   8.803  71.356  1.00  0.00    -0.349 A  
HETATM    7  C   UNL     1     -11.543   9.861  71.304  1.00  0.00    -0.456 A  
ENDROOT
BRANCH   5   8
HETATM    8  C   UNL     1     -10.071   6.312  71.692  1.00  0.00    -0.188 C  
BRANCH   8   9
HETATM    9  N   UNL     1      -9.737   5.735  70.359  1.00  0.00    -0.171 NA 
HETATM   10  C   UNL     1      -8.570   6.406  69.700  1.00  0.00    -0.134 C  
HETATM   11  C   UNL     1      -8.839   7.757  68.973  1.00  0.00    -0.138 C  
HETATM   12  C   UNL     1     -10.869   5.762  69.392  1.00  0.00    -0.323 C  
HETATM   13  C   UNL     1     -11.184   7.142  68.774  1.00  0.00     0.133 C  
HETATM   14  N   UNL     1      -9.986   7.611  68.067  1.00  0.00    -0.168 NA 
BRANCH  14  15
HETATM   15  C   UNL     1     -10.181   8.742  67.273  1.00  0.00    -0.263 A  
HETATM   16  N   UNL     1      -9.667   8.753  66.053  1.00  0.00    -0.242 NA 
HETATM   17  C   UNL     1      -9.847   9.857  65.346  1.00  0.00    -0.313 A  
HETATM   18  N   UNL     1     -10.869   9.760  67.785  1.00  0.00    -0.275 NA 
HETATM   19  N   UNL     1     -10.458  10.939  65.802  1.00  0.00    -0.236 NA 
HETATM   20  C   UNL     1     -10.989  10.835  67.011  1.00  0.00    -0.227 A  
BRANCH  17  21
HETATM   21  N   UNL     1      -9.448   9.892  64.023  1.00  0.00    -0.387 NA 
HETATM   22  H   UNL     1     -10.011  10.354  63.310  1.00  0.00     0.000 HD 
BRANCH  21  23
HETATM   23  C   UNL     1      -8.202   9.247  63.696  1.00  0.00    -0.166 C  
BRANCH  23  24
HETATM   24  C   UNL     1      -7.468  10.192  62.797  1.00  0.00    -0.141 C  
HETATM   25  C   UNL     1      -6.137  10.347  62.764  1.00  0.00    -0.145 C  
ENDBRANCH  23  24
ENDBRANCH  21  23
ENDBRANCH  17  21
BRANCH  20  26
HETATM   26  N   UNL     1     -11.789  11.896  67.392  1.00  0.00    -0.611 NA 
HETATM   27  H   UNL     1     -12.137  11.962  68.349  1.00  0.00     0.000 HD 
BRANCH  26  28
HETATM   28  C   UNL     1     -12.128  12.908  66.422  1.00  0.00    -0.329 C  
BRANCH  28  29
HETATM   29  C   UNL     1     -11.411  14.179  66.801  1.00  0.00    -0.383 C  
HETATM   30  C   UNL     1     -11.291  14.650  68.051  1.00  0.00    -0.329 C  
ENDBRANCH  28  29
ENDBRANCH  26  28
ENDBRANCH  20  26
ENDBRANCH  14  15
ENDBRANCH   8   9
BRANCH   8  31
HETATM   31  C   UNL     1      -8.840   6.749  72.524  1.00  0.00    -0.134 A  
HETATM   32  C   UNL     1      -6.529   7.537  73.918  1.00  0.00    -0.077 A  
HETATM   33  C   UNL     1      -7.667   8.327  73.966  1.00  0.00    -0.250 A  
HETATM   34  F   UNL     1      -5.414   7.938  74.547  1.00  0.00    -0.066 F  
HETATM   35  C   UNL     1      -7.684   5.944  72.529  1.00  0.00    -0.101 A  
HETATM   36  C   UNL     1      -8.822   7.929  73.285  1.00  0.00    -0.311 A  
HETATM   37  C   UNL     1      -6.531   6.340  73.218  1.00  0.00    -0.069 A  
ENDBRANCH   8  31
ENDBRANCH   5   8
TORSDOF 10
ENDMDL
MODEL      151
REMARK 921   NORMALIZED FREE ENERGY PREDICTED BY IDOCK:   -3.57 KCAL/MOL
REMARK 922        TOTAL FREE ENERGY PREDICTED BY IDOCK:   -6.99 KCAL/MOL
REMARK 923 INTER-LIGAND FREE ENERGY PREDICTED BY IDOCK:   -6.41 KCAL/MOL
REMARK 924 INTRA-LIGAND FREE ENERGY PREDICTED BY IDOCK:   -0.59 KCAL/MOL
REMARK 927      BINDING AFFINITY PREDICTED BY RF-SCORE:    0.00 PKD
ROOT
HETATM    1  F   UNL     1      -6.510  21.375  66.999  1.00  0.00    -0.353 F  
HETATM    2  C   UNL     1      -6.749  20.057  67.013  1.00  0.00    -0.216 A  
HETATM    3  C   UNL     1      -6.361  19.302  68.113  1.00  0.00    -0.246 A  
HETATM    4  C   UNL     1      -6.581  17.922  68.118  1.00  0.00    -0.197 A  
HETATM    5  C   UNL     1      -7.197  17.288  67.022  1.00  0.00    -0.218 A  
HETATM    6  C   UNL     1      -7.616  18.084  65.938  1.00  0.00    -0.171 A  
HETATM    7  C   UNL     1      -7.384  19.464  65.931  1.00  0.00    -0.306 A  
ENDROOT
BRANCH   5   8
HETATM    8  C   UNL     1      -7.401  15.761  67.028  1.00  0.00    -0.191 C  
BRANCH   8   9
HETATM    9  N   UNL     1      -6.721  15.108  68.182  1.00  0.00    -0.120 NA 
HETATM   10  C   UNL     1      -5.762  14.033  67.771  1.00  0.00    -0.061 C  
HETATM   11  C   UNL     1      -6.359  12.638  67.420  1.00  0.00    -0.150 C  
HETATM   12  C   UNL     1      -7.658  14.512  69.173  1.00  0.00    -0.102 C  
HETATM   13  C   UNL     1      -8.323  13.185  68.747  1.00  0.00     0.120 C  
HETATM   14  N   UNL     1      -7.262  12.203  68.494  1.00  0.00    -0.097 NA 
BRANCH  14  15
HETATM   15  C   UNL     1      -7.710  10.894  68.311  1.00  0.00    -0.111 A  
HETATM   16  N   UNL     1      -8.163  10.228  69.363  1.00  0.00    -0.160 NA 
HETATM   17  C   UNL     1      -8.547   8.980  69.153  1.00  0.00    -0.133 A  
HETATM   18  N   UNL     1      -7.652  10.373  67.088  1.00  0.00    -0.095 NA 
HETATM   19  N   UNL     1      -8.459   8.363  67.985  1.00  0.00    -0.131 NA 
HETATM   20  C   UNL     1      -8.043   9.108  66.970  1.00  0.00    -0.109 A  
BRANCH  17  21
HETATM   21  N   UNL     1      -9.145   8.269  70.176  1.00  0.00    -0.146 NA 
HETATM   22  H   UNL     1      -8.643   8.049  71.035  1.00  0.00     0.000 HD 
BRANCH  21  23
HETATM   23  C   UNL     1     -10.509   7.853  69.976  1.00  0.00    -0.231 C  
BRANCH  23  24
HETATM   24  C   UNL     1     -11.364   8.957  70.513  1.00  0.00    -0.268 C  
HETATM   25  C   UNL     1     -11.453   9.304  71.805  1.00  0.00    -0.448 C  
ENDBRANCH  23  24
ENDBRANCH  21  23
ENDBRANCH  17  21
BRANCH  20  26
HETATM   26  N   UNL     1      -8.145   8.510  65.727  1.00  0.00    -0.109 NA 
HETATM   27  H   UNL     1      -8.589   9.005  64.952  1.00  0.00     0.000 HD 
BRANCH  26  28
HETATM   28  C   UNL     1      -7.618   7.182  65.537  1.00  0.00    -0.098 C  
BRANCH  28  29
HETATM   29  C   UNL     1      -8.756   6.278  65.140  1.00  0.00     0.039 C  
HETATM   30  C   UNL     1      -8.628   4.992  64.782  1.00  0.00    -0.150 C  
ENDBRANCH  28  29
ENDBRANCH  26  28
ENDBRANCH  20  26
ENDBRANCH  14  15
ENDBRANCH   8   9
BRANCH   8  31
HETATM   31  C   UNL     1      -8.911  15.437  66.910  1.00  0.00    -0.281 A  
HETATM   32  C   UNL     1     -11.621  14.713  66.715  1.00  0.00    -0.360 A  
HETATM   33  C   UNL     1     -11.220  15.638  67.667  1.00  0.00    -0.274 A  
HETATM   34  F   UNL     1     -12.906  14.336  66.654  1.00  0.00    -0.375 F  
HETATM   35  C   UNL     1      -9.352  14.533  65.925  1.00  0.00    -0.130 A  
HETATM   36  C   UNL     1      -9.875  16.010  67.756  1.00  0.00    -0.231 A  
HETATM   37  C   UNL     1     -10.701  14.169  65.832  1.00  0.00    -0.298 A  
ENDBRANCH   8  31
ENDBRANCH   5   8
TORSDOF 10
ENDMDL
MODEL      152
REMARK 921   NORMALIZED FREE ENERGY PREDICTED BY IDOCK:   -3.56 KCAL/MOL
REMARK 922        TOTAL FREE ENERGY PREDICTED BY IDOCK:   -6.99 KCAL/MOL
REMARK 923 INTER-LIGAND FREE ENERGY PREDICTED BY IDOCK:   -5.95 KCAL/MOL
REMARK 924 INTRA-LIGAND FREE ENERGY PREDICTED BY IDOCK:   -1.04 KCAL/MOL
REMARK 927      BINDING AFFINITY PREDICTED BY RF-SCORE:    0.00 PKD
ROOT
HETATM    1  F   UNL     1     -11.773   5.876  69.546  1.00  0.00    -0.397 F  
HETATM    2  C   UNL     1     -10.837   6.326  68.700  1.00  0.00    -0.333 A  
HETATM    3  C   UNL     1     -11.198   7.202  67.683  1.00  0.00     0.008 A  
HETATM    4  C   UNL     1     -10.230   7.649  66.779  1.00  0.00    -0.333 A  
HETATM    5  C   UNL     1      -8.892   7.225  66.889  1.00  0.00    -0.138 A  
HETATM    6  C   UNL     1      -8.549   6.369  67.954  1.00  0.00    -0.116 A  
HETATM    7  C   UNL     1      -9.521   5.914  68.851  1.00  0.00    -0.146 A  
ENDROOT
BRANCH   5   8
HETATM    8  C   UNL     1      -7.845   7.699  65.864  1.00  0.00    -0.103 C  
BRANCH   8   9
HETATM    9  N   UNL     1      -6.862   8.646  66.463  1.00  0.00    -0.071 NA 
HETATM   10  C   UNL     1      -7.267   9.139  67.819  1.00  0.00    -0.080 C  
HETATM   11  C   UNL     1      -8.312  10.292  67.878  1.00  0.00    -0.114 C  
HETATM   12  C   UNL     1      -6.589   9.842  65.619  1.00  0.00    -0.087 C  
HETATM   13  C   UNL     1      -7.698  10.917  65.609  1.00  0.00     0.012 C  
HETATM   14  N   UNL     1      -7.896  11.383  66.987  1.00  0.00    -0.151 NA 
BRANCH  14  15
HETATM   15  C   UNL     1      -8.710  12.509  67.112  1.00  0.00    -0.200 A  
HETATM   16  N   UNL     1      -8.179  13.624  67.590  1.00  0.00    -0.164 NA 
HETATM   17  C   UNL     1      -8.993  14.658  67.722  1.00  0.00    -0.181 A  
HETATM   18  N   UNL     1      -9.988  12.406  66.751  1.00  0.00    -0.221 NA 
HETATM   19  N   UNL     1     -10.288  14.622  67.453  1.00  0.00    -0.241 NA 
HETATM   20  C   UNL     1     -10.737  13.489  66.932  1.00  0.00    -0.274 A  
BRANCH  17  21
HETATM   21  N   UNL     1      -8.480  15.886  68.096  1.00  0.00    -0.165 NA 
HETATM   22  H   UNL     1      -8.760  16.745  67.623  1.00  0.00     0.000 HD 
BRANCH  21  23
HETATM   23  C   UNL     1      -7.534  15.900  69.181  1.00  0.00    -0.210 C  
BRANCH  23  24
HETATM   24  C   UNL     1      -6.414  16.791  68.746  1.00  0.00    -0.170 C  
HETATM   25  C   UNL     1      -5.928  16.863  67.498  1.00  0.00    -0.165 C  
ENDBRANCH  23  24
ENDBRANCH  21  23
ENDBRANCH  17  21
BRANCH  20  26
HETATM   26  N   UNL     1     -12.041  13.532  66.474  1.00  0.00    -0.412 NA 
HETATM   27  H   UNL     1     -12.744  14.081  66.971  1.00  0.00     0.000 HD 
BRANCH  26  28
HETATM   28  C   UNL     1     -12.398  12.794  65.288  1.00  0.00    -0.488 C  
BRANCH  28  29
HETATM   29  C   UNL     1     -12.399  13.751  64.123  1.00  0.00    -0.382 C  
HETATM   30  C   UNL     1     -12.222  15.076  64.217  1.00  0.00    -0.312 C  
ENDBRANCH  28  29
ENDBRANCH  26  28
ENDBRANCH  20  26
ENDBRANCH  14  15
ENDBRANCH   8   9
BRANCH   8  31
HETATM   31  C   UNL     1      -7.207   6.473  65.167  1.00  0.00    -0.070 A  
HETATM   32  C   UNL     1      -6.088   4.299  63.778  1.00  0.00    -0.018 A  
HETATM   33  C   UNL     1      -5.296   5.059  64.624  1.00  0.00    -0.013 A  
HETATM   34  F   UNL     1      -5.541   3.292  63.082  1.00  0.00    -0.008 F  
HETATM   35  C   UNL     1      -7.998   5.657  64.334  1.00  0.00    -0.125 A  
HETATM   36  C   UNL     1      -5.854   6.132  65.327  1.00  0.00    -0.025 A  
HETATM   37  C   UNL     1      -7.439   4.579  63.638  1.00  0.00    -0.055 A  
ENDBRANCH   8  31
ENDBRANCH   5   8
TORSDOF 10
ENDMDL
MODEL      153
REMARK 921   NORMALIZED FREE ENERGY PREDICTED BY IDOCK:   -3.52 KCAL/MOL
REMARK 922        TOTAL FREE ENERGY PREDICTED BY IDOCK:   -6.92 KCAL/MOL
REMARK 923 INTER-LIGAND FREE ENERGY PREDICTED BY IDOCK:   -8.42 KCAL/MOL
REMARK 924 INTRA-LIGAND FREE ENERGY PREDICTED BY IDOCK:    1.50 KCAL/MOL
REMARK 927      BINDING AFFINITY PREDICTED BY RF-SCORE:    0.00 PKD
ROOT
HETATM    1  F   UNL     1     -11.424  16.760  71.792  1.00  0.00    -0.435 F  
HETATM    2  C   UNL     1     -11.528  15.769  70.897  1.00  0.00    -0.403 A  
HETATM    3  C   UNL     1     -10.378  15.247  70.316  1.00  0.00    -0.162 A  
HETATM    4  C   UNL     1     -10.484  14.234  69.359  1.00  0.00    -0.049 A  
HETATM    5  C   UNL     1     -11.744  13.731  68.980  1.00  0.00    -0.372 A  
HETATM    6  C   UNL     1     -12.889  14.251  69.615  1.00  0.00     0.273 A  
HETATM    7  C   UNL     1     -12.781  15.273  70.564  1.00  0.00    -0.440 A  
ENDROOT
BRANCH   5   8
HETATM    8  C   UNL     1     -11.846  12.640  67.899  1.00  0.00    -0.332 C  
BRANCH   8   9
HETATM    9  N   UNL     1     -11.778  13.205  66.521  1.00  0.00    -0.363 NA 
HETATM   10  C   UNL     1     -10.467  12.951  65.842  1.00  0.00    -0.279 C  
HETATM   11  C   UNL     1      -9.277  13.884  66.212  1.00  0.00    -0.088 C  
HETATM   12  C   UNL     1     -12.032  14.671  66.461  1.00  0.00    -0.268 C  
HETATM   13  C   UNL     1     -10.872  15.569  66.942  1.00  0.00    -0.301 C  
HETATM   14  N   UNL     1      -9.699  15.288  66.108  1.00  0.00    -0.291 NA 
BRANCH  14  15
HETATM   15  C   UNL     1      -8.635  16.175  66.277  1.00  0.00    -0.338 A  
HETATM   16  N   UNL     1      -8.758  17.407  65.807  1.00  0.00    -0.480 NA 
HETATM   17  C   UNL     1      -7.715  18.205  65.960  1.00  0.00    -0.169 A  
HETATM   18  N   UNL     1      -7.542  15.736  66.897  1.00  0.00    -0.223 NA 
HETATM   19  N   UNL     1      -6.567  17.830  66.502  1.00  0.00    -0.198 NA 
HETATM   20  C   UNL     1      -6.536  16.600  66.994  1.00  0.00    -0.196 A  
BRANCH  17  21
HETATM   21  N   UNL     1      -7.818  19.537  65.607  1.00  0.00    -0.415 NA 
HETATM   22  H   UNL     1      -8.684  19.922  65.230  1.00  0.00     0.000 HD 
BRANCH  21  23
HETATM   23  C   UNL     1      -6.650  20.359  65.795  1.00  0.00    -0.241 C  
BRANCH  23  24
HETATM   24  C   UNL     1      -6.222  20.793  64.429  1.00  0.00    -0.356 C  
HETATM   25  C   UNL     1      -5.604  20.012  63.531  1.00  0.00    -0.313 C  
ENDBRANCH  23  24
ENDBRANCH  21  23
ENDBRANCH  17  21
BRANCH  20  26
HETATM   26  N   UNL     1      -5.406  16.292  67.729  1.00  0.00    -0.123 NA 
HETATM   27  H   UNL     1      -4.477  16.467  67.344  1.00  0.00     0.000 HD 
BRANCH  26  28
HETATM   28  C   UNL     1      -5.553  15.722  69.045  1.00  0.00    -0.104 C  
BRANCH  28  29
HETATM   29  C   UNL     1      -6.004  16.812  69.982  1.00  0.00    -0.187 C  
HETATM   30  C   UNL     1      -5.261  17.866  70.349  1.00  0.00    -0.260 C  
ENDBRANCH  28  29
ENDBRANCH  26  28
ENDBRANCH  20  26
ENDBRANCH  14  15
ENDBRANCH   8   9
BRANCH   8  31
HETATM   31  C   UNL     1     -10.808  11.526  68.183  1.00  0.00    -0.259 A  
HETATM   32  C   UNL     1      -8.932   9.467  68.565  1.00  0.00    -0.128 A  
HETATM   33  C   UNL     1      -8.595  10.774  68.878  1.00  0.00    -0.155 A  
HETATM   34  F   UNL     1      -8.021   8.493  68.705  1.00  0.00    -0.108 F  
HETATM   35  C   UNL     1     -11.138  10.184  67.915  1.00  0.00    -0.303 A  
HETATM   36  C   UNL     1      -9.531  11.798  68.702  1.00  0.00    -0.107 A  
HETATM   37  C   UNL     1     -10.202   9.159  68.100  1.00  0.00    -0.249 A  
ENDBRANCH   8  31
ENDBRANCH   5   8
TORSDOF 10
ENDMDL
MODEL      154
REMARK 921   NORMALIZED FREE ENERGY PREDICTED BY IDOCK:   -3.50 KCAL/MOL
REMARK 922        TOTAL FREE ENERGY PREDICTED BY IDOCK:   -6.88 KCAL/MOL
REMARK 923 INTER-LIGAND FREE ENERGY PREDICTED BY IDOCK:   -8.91 KCAL/MOL
REMARK 924 INTRA-LIGAND FREE ENERGY PREDICTED BY IDOCK:    2.03 KCAL/MOL
REMARK 927      BINDING AFFINITY PREDICTED BY RF-SCORE:    0.00 PKD
ROOT
HETATM    1  F   UNL     1     -11.993  17.118  72.626  1.00  0.00    -0.300 F  
HETATM    2  C   UNL     1     -12.094  16.010  71.881  1.00  0.00    -0.514 A  
HETATM    3  C   UNL     1     -10.995  15.171  71.748  1.00  0.00     0.017 A  
HETATM    4  C   UNL     1     -11.087  14.029  70.947  1.00  0.00     0.882 A  
HETATM    5  C   UNL     1     -12.285  13.717  70.275  1.00  0.00    -0.429 A  
HETATM    6  C   UNL     1     -13.394  14.565  70.460  1.00  0.00    -0.026 A  
HETATM    7  C   UNL     1     -13.296  15.713  71.254  1.00  0.00    -0.485 A  
ENDROOT
BRANCH   5   8
HETATM    8  C   UNL     1     -12.360  12.475  69.368  1.00  0.00     0.096 C  
BRANCH   8   9
HETATM    9  N   UNL     1     -11.509  12.616  68.152  1.00  0.00    -0.290 NA 
HETATM   10  C   UNL     1     -10.046  12.710  68.462  1.00  0.00    -0.178 C  
HETATM   11  C   UNL     1      -9.500  14.094  68.923  1.00  0.00    -0.025 C  
HETATM   12  C   UNL     1     -11.860  13.790  67.306  1.00  0.00    -0.401 C  
HETATM   13  C   UNL     1     -11.403  15.162  67.848  1.00  0.00    -0.338 C  
HETATM   14  N   UNL     1      -9.942  15.136  67.986  1.00  0.00    -0.220 NA 
BRANCH  14  15
HETATM   15  C   UNL     1      -9.359  16.374  68.258  1.00  0.00    -0.210 A  
HETATM   16  N   UNL     1      -8.045  16.433  68.416  1.00  0.00    -0.179 NA 
HETATM   17  C   UNL     1      -7.536  17.619  68.703  1.00  0.00    -0.276 A  
HETATM   18  N   UNL     1     -10.153  17.438  68.353  1.00  0.00    -0.325 NA 
HETATM   19  N   UNL     1      -8.259  18.713  68.884  1.00  0.00    -0.251 NA 
HETATM   20  C   UNL     1      -9.560  18.587  68.660  1.00  0.00    -0.352 A  
BRANCH  17  21
HETATM   21  N   UNL     1      -6.164  17.778  68.758  1.00  0.00    -0.195 NA 
HETATM   22  H   UNL     1      -5.572  17.116  69.259  1.00  0.00     0.000 HD 
BRANCH  21  23
HETATM   23  C   UNL     1      -5.607  18.918  68.077  1.00  0.00    -0.188 C  
BRANCH  23  24
HETATM   24  C   UNL     1      -5.589  18.566  66.623  1.00  0.00    -0.169 C  
HETATM   25  C   UNL     1      -6.350  19.142  65.682  1.00  0.00    -0.273 C  
ENDBRANCH  23  24
ENDBRANCH  21  23
ENDBRANCH  17  21
BRANCH  20  26
HETATM   26  N   UNL     1     -10.270  19.774  68.658  1.00  0.00    -0.514 NA 
HETATM   27  H   UNL     1     -10.994  19.942  69.357  1.00  0.00     0.000 HD 
BRANCH  26  28
HETATM   28  C   UNL     1      -9.976  20.771  67.658  1.00  0.00    -0.157 C  
BRANCH  28  29
HETATM   29  C   UNL     1      -9.875  20.080  66.323  1.00  0.00    -0.576 C  
HETATM   30  C   UNL     1     -10.909  19.570  65.640  1.00  0.00    -0.354 C  
ENDBRANCH  28  29
ENDBRANCH  26  28
ENDBRANCH  20  26
ENDBRANCH  14  15
ENDBRANCH   8   9
BRANCH   8  31
HETATM   31  C   UNL     1     -12.074  11.202  70.202  1.00  0.00    -0.443 A  
HETATM   32  C   UNL     1     -11.427   8.940  71.742  1.00  0.00    -0.353 A  
HETATM   33  C   UNL     1     -12.526   9.715  72.081  1.00  0.00    -0.350 A  
HETATM   34  F   UNL     1     -11.094   7.888  72.504  1.00  0.00    -0.297 F  
HETATM   35  C   UNL     1     -10.990  10.373  69.855  1.00  0.00    -0.364 A  
HETATM   36  C   UNL     1     -12.857  10.832  71.308  1.00  0.00    -0.540 A  
HETATM   37  C   UNL     1     -10.665   9.250  70.626  1.00  0.00    -0.331 A  
ENDBRANCH   8  31
ENDBRANCH   5   8
TORSDOF 10
ENDMDL
MODEL      155
REMARK 921   NORMALIZED FREE ENERGY PREDICTED BY IDOCK:   -3.48 KCAL/MOL
REMARK 922        TOTAL FREE ENERGY PREDICTED BY IDOCK:   -6.86 KCAL/MOL
REMARK 923 INTER-LIGAND FREE ENERGY PREDICTED BY IDOCK:   -7.61 KCAL/MOL
REMARK 924 INTRA-LIGAND FREE ENERGY PREDICTED BY IDOCK:    0.75 KCAL/MOL
REMARK 927      BINDING AFFINITY PREDICTED BY RF-SCORE:    0.00 PKD
ROOT
HETATM    1  F   UNL     1     -12.789  12.483  64.260  1.00  0.00    -0.484 F  
HETATM    2  C   UNL     1     -11.588  12.087  64.700  1.00  0.00    -0.297 A  
HETATM    3  C   UNL     1     -10.448  12.768  64.286  1.00  0.00    -0.423 A  
HETATM    4  C   UNL     1      -9.190  12.339  64.719  1.00  0.00     0.500 A  
HETATM    5  C   UNL     1      -9.064  11.226  65.573  1.00  0.00    -0.184 A  
HETATM    6  C   UNL     1     -10.239  10.581  66.007  1.00  0.00    -0.310 A  
HETATM    7  C   UNL     1     -11.496  11.006  65.564  1.00  0.00     0.410 A  
ENDROOT
BRANCH   5   8
HETATM    8  C   UNL     1      -7.669  10.744  66.012  1.00  0.00    -0.139 C  
BRANCH   8   9
HETATM    9  N   UNL     1      -7.301  11.249  67.365  1.00  0.00    -0.108 NA 
HETATM   10  C   UNL     1      -8.396  11.085  68.375  1.00  0.00    -0.139 C  
HETATM   11  C   UNL     1      -9.541  12.140  68.366  1.00  0.00    -0.186 C  
HETATM   12  C   UNL     1      -6.893  12.681  67.382  1.00  0.00    -0.140 C  
HETATM   13  C   UNL     1      -8.043  13.703  67.257  1.00  0.00    -0.139 C  
HETATM   14  N   UNL     1      -8.967  13.493  68.377  1.00  0.00    -0.175 NA 
BRANCH  14  15
HETATM   15  C   UNL     1      -9.941  14.481  68.525  1.00  0.00    -0.238 A  
HETATM   16  N   UNL     1      -9.782  15.627  67.882  1.00  0.00    -0.211 NA 
HETATM   17  C   UNL     1     -10.712  16.548  68.075  1.00  0.00    -0.343 A  
HETATM   18  N   UNL     1     -10.983  14.225  69.314  1.00  0.00    -0.254 NA 
HETATM   19  N   UNL     1     -11.741  16.403  68.894  1.00  0.00    -0.181 NA 
HETATM   20  C   UNL     1     -11.861  15.212  69.463  1.00  0.00    -0.332 A  
BRANCH  17  21
HETATM   21  N   UNL     1     -10.676  17.718  67.340  1.00  0.00    -0.328 NA 
HETATM   22  H   UNL     1     -10.878  17.725  66.340  1.00  0.00     0.000 HD 
BRANCH  21  23
HETATM   23  C   UNL     1     -10.340  18.927  68.046  1.00  0.00    -0.389 C  
BRANCH  23  24
HETATM   24  C   UNL     1      -8.951  19.286  67.622  1.00  0.00    -0.346 C  
HETATM   25  C   UNL     1      -7.884  19.325  68.433  1.00  0.00    -0.377 C  
ENDBRANCH  23  24
ENDBRANCH  21  23
ENDBRANCH  17  21
BRANCH  20  26
HETATM   26  N   UNL     1     -13.041  15.011  70.155  1.00  0.00    -0.629 NA 
HETATM   27  H   UNL     1     -13.857  14.622  69.681  1.00  0.00     0.000 HD 
BRANCH  26  28
HETATM   28  C   UNL     1     -13.108  15.357  71.554  1.00  0.00    -0.467 C  
BRANCH  28  29
HETATM   29  C   UNL     1     -13.026  14.085  72.356  1.00  0.00    -0.471 C  
HETATM   30  C   UNL     1     -13.505  12.896  71.963  1.00  0.00    -0.568 C  
ENDBRANCH  28  29
ENDBRANCH  26  28
ENDBRANCH  20  26
ENDBRANCH  14  15
ENDBRANCH   8   9
BRANCH   8  31
HETATM   31  C   UNL     1      -7.576   9.206  65.858  1.00  0.00    -0.095 A  
HETATM   32  C   UNL     1      -7.481   6.401  65.696  1.00  0.00    -0.082 A  
HETATM   33  C   UNL     1      -8.014   7.135  64.648  1.00  0.00    -0.114 A  
HETATM   34  F   UNL     1      -7.478   5.061  65.636  1.00  0.00    -0.075 F  
HETATM   35  C   UNL     1      -7.000   8.438  66.888  1.00  0.00    -0.074 A  
HETATM   36  C   UNL     1      -8.049   8.531  64.721  1.00  0.00    -0.151 A  
HETATM   37  C   UNL     1      -6.959   7.041  66.810  1.00  0.00    -0.073 A  
ENDBRANCH   8  31
ENDBRANCH   5   8
TORSDOF 10
ENDMDL
MODEL      156
REMARK 921   NORMALIZED FREE ENERGY PREDICTED BY IDOCK:   -3.47 KCAL/MOL
REMARK 922        TOTAL FREE ENERGY PREDICTED BY IDOCK:   -6.84 KCAL/MOL
REMARK 923 INTER-LIGAND FREE ENERGY PREDICTED BY IDOCK:   -6.25 KCAL/MOL
REMARK 924 INTRA-LIGAND FREE ENERGY PREDICTED BY IDOCK:   -0.59 KCAL/MOL
REMARK 927      BINDING AFFINITY PREDICTED BY RF-SCORE:    0.00 PKD
ROOT
HETATM    1  F   UNL     1      -7.933  20.200  67.719  1.00  0.00    -0.317 F  
HETATM    2  C   UNL     1      -8.081  18.885  67.513  1.00  0.00    -0.260 A  
HETATM    3  C   UNL     1      -7.944  18.005  68.580  1.00  0.00    -0.310 A  
HETATM    4  C   UNL     1      -8.068  16.630  68.363  1.00  0.00    -0.208 A  
HETATM    5  C   UNL     1      -8.335  16.125  67.076  1.00  0.00    -0.247 A  
HETATM    6  C   UNL     1      -8.508  17.044  66.022  1.00  0.00    -0.171 A  
HETATM    7  C   UNL     1      -8.373  18.419  66.239  1.00  0.00    -0.231 A  
ENDROOT
BRANCH   5   8
HETATM    8  C   UNL     1      -8.434  14.606  66.848  1.00  0.00    -0.173 C  
BRANCH   8   9
HETATM    9  N   UNL     1      -7.987  13.829  68.038  1.00  0.00    -0.141 NA 
HETATM   10  C   UNL     1      -6.648  13.181  67.852  1.00  0.00    -0.137 C  
HETATM   11  C   UNL     1      -6.603  11.848  67.049  1.00  0.00    -0.128 C  
HETATM   12  C   UNL     1      -8.941  12.764  68.453  1.00  0.00    -0.120 C  
HETATM   13  C   UNL     1      -8.954  11.499  67.568  1.00  0.00    -0.159 C  
HETATM   14  N   UNL     1      -7.607  10.917  67.581  1.00  0.00    -0.095 NA 
BRANCH  14  15
HETATM   15  C   UNL     1      -7.512   9.650  67.004  1.00  0.00    -0.091 A  
HETATM   16  N   UNL     1      -6.842   8.709  67.652  1.00  0.00    -0.070 NA 
HETATM   17  C   UNL     1      -6.749   7.532  67.056  1.00  0.00    -0.066 A  
HETATM   18  N   UNL     1      -8.094   9.449  65.824  1.00  0.00    -0.113 NA 
HETATM   19  N   UNL     1      -7.237   7.268  65.855  1.00  0.00    -0.072 NA 
HETATM   20  C   UNL     1      -7.937   8.242  65.290  1.00  0.00    -0.128 A  
BRANCH  17  21
HETATM   21  N   UNL     1      -6.173   6.470  67.728  1.00  0.00    -0.030 NA 
HETATM   22  H   UNL     1      -5.216   6.519  68.079  1.00  0.00     0.000 HD 
BRANCH  21  23
HETATM   23  C   UNL     1      -6.981   5.293  67.913  1.00  0.00    -0.065 C  
BRANCH  23  24
HETATM   24  C   UNL     1      -7.398   5.295  69.350  1.00  0.00    -0.061 C  
HETATM   25  C   UNL     1      -8.629   5.583  69.795  1.00  0.00    -0.112 C  
ENDBRANCH  23  24
ENDBRANCH  21  23
ENDBRANCH  17  21
BRANCH  20  26
HETATM   26  N   UNL     1      -8.605   7.887  64.133  1.00  0.00    -0.364 NA 
HETATM   27  H   UNL     1      -9.478   7.362  64.182  1.00  0.00     0.000 HD 
BRANCH  26  28
HETATM   28  C   UNL     1      -8.053   8.266  62.855  1.00  0.00    -0.158 C  
BRANCH  28  29
HETATM   29  C   UNL     1      -6.589   8.563  63.046  1.00  0.00    -0.090 C  
HETATM   30  C   UNL     1      -5.915   9.541  62.424  1.00  0.00    -0.092 C  
ENDBRANCH  28  29
ENDBRANCH  26  28
ENDBRANCH  20  26
ENDBRANCH  14  15
ENDBRANCH   8   9
BRANCH   8  31
HETATM   31  C   UNL     1      -9.854  14.245  66.347  1.00  0.00    -0.309 A  
HETATM   32  C   UNL     1     -12.470  13.724  65.458  1.00  0.00    -0.512 A  
HETATM   33  C   UNL     1     -11.391  13.431  64.638  1.00  0.00    -0.372 A  
HETATM   34  F   UNL     1     -13.718  13.516  65.014  1.00  0.00     0.137 F  
HETATM   35  C   UNL     1     -10.966  14.492  67.176  1.00  0.00    -0.304 A  
HETATM   36  C   UNL     1     -10.089  13.677  65.084  1.00  0.00    -0.298 A  
HETATM   37  C   UNL     1     -12.269  14.237  66.730  1.00  0.00    -0.384 A  
ENDBRANCH   8  31
ENDBRANCH   5   8
TORSDOF 10
ENDMDL
MODEL      157
REMARK 921   NORMALIZED FREE ENERGY PREDICTED BY IDOCK:   -3.40 KCAL/MOL
REMARK 922        TOTAL FREE ENERGY PREDICTED BY IDOCK:   -6.73 KCAL/MOL
REMARK 923 INTER-LIGAND FREE ENERGY PREDICTED BY IDOCK:   -6.56 KCAL/MOL
REMARK 924 INTRA-LIGAND FREE ENERGY PREDICTED BY IDOCK:   -0.17 KCAL/MOL
REMARK 927      BINDING AFFINITY PREDICTED BY RF-SCORE:    0.00 PKD
ROOT
HETATM    1  F   UNL     1     -12.199  13.871  62.635  1.00  0.00    -0.058 F  
HETATM    2  C   UNL     1     -11.385  13.082  63.348  1.00  0.00    -0.156 A  
HETATM    3  C   UNL     1     -10.358  13.652  64.092  1.00  0.00     0.160 A  
HETATM    4  C   UNL     1      -9.488  12.830  64.814  1.00  0.00     0.385 A  
HETATM    5  C   UNL     1      -9.643  11.430  64.800  1.00  0.00    -0.239 A  
HETATM    6  C   UNL     1     -10.717  10.884  64.070  1.00  0.00    -0.208 A  
HETATM    7  C   UNL     1     -11.580  11.708  63.340  1.00  0.00    -0.340 A  
ENDROOT
BRANCH   5   8
HETATM    8  C   UNL     1      -8.655  10.537  65.572  1.00  0.00    -0.180 C  
BRANCH   8   9
HETATM    9  N   UNL     1      -9.072  10.332  66.989  1.00  0.00    -0.139 NA 
HETATM   10  C   UNL     1     -10.458  10.823  67.273  1.00  0.00    -0.237 C  
HETATM   11  C   UNL     1     -10.641  12.352  67.510  1.00  0.00    -0.219 C  
HETATM   12  C   UNL     1      -8.163  10.969  67.981  1.00  0.00    -0.123 C  
HETATM   13  C   UNL     1      -8.289  12.503  68.111  1.00  0.00    -0.175 C  
HETATM   14  N   UNL     1      -9.666  12.817  68.506  1.00  0.00    -0.175 NA 
BRANCH  14  15
HETATM   15  C   UNL     1      -9.880  14.145  68.876  1.00  0.00    -0.105 A  
HETATM   16  N   UNL     1     -10.969  14.441  69.569  1.00  0.00    -0.230 NA 
HETATM   17  C   UNL     1     -11.150  15.716  69.872  1.00  0.00    -0.319 A  
HETATM   18  N   UNL     1      -8.981  15.055  68.507  1.00  0.00    -0.179 NA 
HETATM   19  N   UNL     1     -10.343  16.692  69.486  1.00  0.00    -0.276 NA 
HETATM   20  C   UNL     1      -9.249  16.314  68.839  1.00  0.00    -0.249 A  
BRANCH  17  21
HETATM   21  N   UNL     1     -12.196  16.080  70.698  1.00  0.00    -0.475 NA 
HETATM   22  H   UNL     1     -13.121  16.289  70.324  1.00  0.00     0.000 HD 
BRANCH  21  23
HETATM   23  C   UNL     1     -11.925  16.149  72.110  1.00  0.00    -0.537 C  
BRANCH  23  24
HETATM   24  C   UNL     1     -12.524  14.916  72.711  1.00  0.00    -0.451 C  
HETATM   25  C   UNL     1     -13.698  14.377  72.353  1.00  0.00    -0.590 C  
ENDBRANCH  23  24
ENDBRANCH  21  23
ENDBRANCH  17  21
BRANCH  20  26
HETATM   26  N   UNL     1      -8.325  17.317  68.618  1.00  0.00    -0.262 NA 
HETATM   27  H   UNL     1      -8.529  18.278  68.897  1.00  0.00     0.000 HD 
BRANCH  26  28
HETATM   28  C   UNL     1      -7.067  16.993  67.990  1.00  0.00    -0.163 C  
BRANCH  28  29
HETATM   29  C   UNL     1      -6.143  18.171  68.156  1.00  0.00    -0.177 C  
HETATM   30  C   UNL     1      -5.904  19.099  67.218  1.00  0.00    -0.174 C  
ENDBRANCH  28  29
ENDBRANCH  26  28
ENDBRANCH  20  26
ENDBRANCH  14  15
ENDBRANCH   8   9
BRANCH   8  31
HETATM   31  C   UNL     1      -8.410   9.227  64.783  1.00  0.00    -0.167 A  
HETATM   32  C   UNL     1      -7.836   6.890  63.329  1.00  0.00    -0.104 A  
HETATM   33  C   UNL     1      -8.324   6.796  64.623  1.00  0.00     0.040 A  
HETATM   34  F   UNL     1      -7.520   5.775  62.655  1.00  0.00    -0.045 F  
HETATM   35  C   UNL     1      -7.956   9.293  63.452  1.00  0.00    -0.143 A  
HETATM   36  C   UNL     1      -8.624   7.957  65.343  1.00  0.00    -0.118 A  
HETATM   37  C   UNL     1      -7.663   8.129  62.731  1.00  0.00    -0.133 A  
ENDBRANCH   8  31
ENDBRANCH   5   8
TORSDOF 10
ENDMDL
MODEL      158
REMARK 921   NORMALIZED FREE ENERGY PREDICTED BY IDOCK:   -3.39 KCAL/MOL
REMARK 922        TOTAL FREE ENERGY PREDICTED BY IDOCK:   -6.72 KCAL/MOL
REMARK 923 INTER-LIGAND FREE ENERGY PREDICTED BY IDOCK:   -7.01 KCAL/MOL
REMARK 924 INTRA-LIGAND FREE ENERGY PREDICTED BY IDOCK:    0.28 KCAL/MOL
REMARK 927      BINDING AFFINITY PREDICTED BY RF-SCORE:    0.00 PKD
ROOT
HETATM    1  F   UNL     1      -5.793  20.731  71.240  1.00  0.00    -0.222 F  
HETATM    2  C   UNL     1      -5.926  19.607  70.525  1.00  0.00    -0.233 A  
HETATM    3  C   UNL     1      -6.643  19.632  69.335  1.00  0.00    -0.383 A  
HETATM    4  C   UNL     1      -6.810  18.455  68.602  1.00  0.00    -0.275 A  
HETATM    5  C   UNL     1      -6.256  17.241  69.053  1.00  0.00    -0.209 A  
HETATM    6  C   UNL     1      -5.500  17.254  70.241  1.00  0.00    -0.242 A  
HETATM    7  C   UNL     1      -5.343  18.432  70.980  1.00  0.00    -0.240 A  
ENDROOT
BRANCH   5   8
HETATM    8  C   UNL     1      -6.478  15.946  68.251  1.00  0.00    -0.120 C  
BRANCH   8   9
HETATM    9  N   UNL     1      -5.752  14.787  68.844  1.00  0.00    -0.085 NA 
HETATM   10  C   UNL     1      -5.400  13.734  67.838  1.00  0.00    -0.086 C  
HETATM   11  C   UNL     1      -6.521  12.734  67.425  1.00  0.00    -0.137 C  
HETATM   12  C   UNL     1      -6.492  14.116  69.948  1.00  0.00    -0.119 C  
HETATM   13  C   UNL     1      -7.672  13.220  69.512  1.00  0.00     0.748 C  
HETATM   14  N   UNL     1      -7.149  12.172  68.628  1.00  0.00    -0.099 NA 
BRANCH  14  15
HETATM   15  C   UNL     1      -8.056  11.156  68.326  1.00  0.00    -0.131 A  
HETATM   16  N   UNL     1      -9.348  11.388  68.504  1.00  0.00    -0.186 NA 
HETATM   17  C   UNL     1     -10.171  10.387  68.236  1.00  0.00    -0.160 A  
HETATM   18  N   UNL     1      -7.578   9.996  67.879  1.00  0.00    -0.089 NA 
HETATM   19  N   UNL     1      -9.776   9.183  67.854  1.00  0.00    -0.150 NA 
HETATM   20  C   UNL     1      -8.474   9.042  67.650  1.00  0.00    -0.117 A  
BRANCH  17  21
HETATM   21  N   UNL     1     -11.536  10.597  68.279  1.00  0.00    -0.642 NA 
HETATM   22  H   UNL     1     -12.149  10.269  67.532  1.00  0.00     0.000 HD 
BRANCH  21  23
HETATM   23  C   UNL     1     -12.057  11.300  69.422  1.00  0.00    -0.315 C  
BRANCH  23  24
HETATM   24  C   UNL     1     -12.178  10.285  70.515  1.00  0.00    -0.390 C  
HETATM   25  C   UNL     1     -12.908  10.436  71.630  1.00  0.00    -0.579 C  
ENDBRANCH  23  24
ENDBRANCH  21  23
ENDBRANCH  17  21
BRANCH  20  26
HETATM   26  N   UNL     1      -8.101   7.846  67.065  1.00  0.00    -0.115 NA 
HETATM   27  H   UNL     1      -7.173   7.456  67.235  1.00  0.00     0.000 HD 
BRANCH  26  28
HETATM   28  C   UNL     1      -9.036   7.155  66.211  1.00  0.00    -0.155 C  
BRANCH  28  29
HETATM   29  C   UNL     1      -9.352   5.824  66.842  1.00  0.00    -0.132 C  
HETATM   30  C   UNL     1     -10.338   5.003  66.452  1.00  0.00    -0.335 C  
ENDBRANCH  28  29
ENDBRANCH  26  28
ENDBRANCH  20  26
ENDBRANCH  14  15
ENDBRANCH   8   9
BRANCH   8  31
HETATM   31  C   UNL     1      -7.996  15.712  68.049  1.00  0.00    -0.137 A  
HETATM   32  C   UNL     1     -10.724  15.154  67.660  1.00  0.00    -0.285 A  
HETATM   33  C   UNL     1     -10.302  15.746  68.840  1.00  0.00    -0.224 A  
HETATM   34  F   UNL     1     -12.019  14.847  67.495  1.00  0.00    -0.370 F  
HETATM   35  C   UNL     1      -8.458  15.152  66.843  1.00  0.00    -0.278 A  
HETATM   36  C   UNL     1      -8.947  16.037  69.030  1.00  0.00    -0.244 A  
HETATM   37  C   UNL     1      -9.816  14.868  66.652  1.00  0.00    -0.272 A  
ENDBRANCH   8  31
ENDBRANCH   5   8
TORSDOF 10
ENDMDL
MODEL      159
REMARK 921   NORMALIZED FREE ENERGY PREDICTED BY IDOCK:   -3.36 KCAL/MOL
REMARK 922        TOTAL FREE ENERGY PREDICTED BY IDOCK:   -6.66 KCAL/MOL
REMARK 923 INTER-LIGAND FREE ENERGY PREDICTED BY IDOCK:   -8.43 KCAL/MOL
REMARK 924 INTRA-LIGAND FREE ENERGY PREDICTED BY IDOCK:    1.76 KCAL/MOL
REMARK 927      BINDING AFFINITY PREDICTED BY RF-SCORE:    0.00 PKD
ROOT
HETATM    1  F   UNL     1     -11.744  12.121  63.203  1.00  0.00    -0.461 F  
HETATM    2  C   UNL     1     -11.629  12.956  64.243  1.00  0.00    -0.378 A  
HETATM    3  C   UNL     1     -10.419  13.599  64.475  1.00  0.00    -0.411 A  
HETATM    4  C   UNL     1     -10.286  14.448  65.577  1.00  0.00    -0.382 A  
HETATM    5  C   UNL     1     -11.367  14.663  66.454  1.00  0.00    -0.348 A  
HETATM    6  C   UNL     1     -12.593  14.029  66.171  1.00  0.00    -0.407 A  
HETATM    7  C   UNL     1     -12.720  13.171  65.074  1.00  0.00    -0.456 A  
ENDROOT
BRANCH   5   8
HETATM    8  C   UNL     1     -11.194  15.573  67.684  1.00  0.00    -0.291 C  
BRANCH   8   9
HETATM    9  N   UNL     1     -10.650  14.833  68.858  1.00  0.00    -0.243 NA 
HETATM   10  C   UNL     1      -9.164  14.651  68.805  1.00  0.00    -0.184 C  
HETATM   11  C   UNL     1      -8.615  13.500  67.910  1.00  0.00    -0.182 C  
HETATM   12  C   UNL     1     -11.256  13.487  69.053  1.00  0.00    -0.269 C  
HETATM   13  C   UNL     1     -10.775  12.392  68.075  1.00  0.00    -0.223 C  
HETATM   14  N   UNL     1      -9.322  12.251  68.225  1.00  0.00    -0.207 NA 
BRANCH  14  15
HETATM   15  C   UNL     1      -8.771  11.151  67.566  1.00  0.00    -0.129 A  
HETATM   16  N   UNL     1      -8.257  11.330  66.359  1.00  0.00    -0.166 NA 
HETATM   17  C   UNL     1      -7.774  10.255  65.757  1.00  0.00    -0.143 A  
HETATM   18  N   UNL     1      -8.796   9.971  68.182  1.00  0.00    -0.121 NA 
HETATM   19  N   UNL     1      -7.820   9.035  66.267  1.00  0.00    -0.098 NA 
HETATM   20  C   UNL     1      -8.303   8.942  67.498  1.00  0.00    -0.109 A  
BRANCH  17  21
HETATM   21  N   UNL     1      -7.111  10.389  64.552  1.00  0.00    -0.324 NA 
HETATM   22  H   UNL     1      -7.466  10.998  63.814  1.00  0.00     0.000 HD 
BRANCH  21  23
HETATM   23  C   UNL     1      -5.898   9.632  64.381  1.00  0.00    -0.084 C  
BRANCH  23  24
HETATM   24  C   UNL     1      -6.054   8.879  63.098  1.00  0.00    -0.089 C  
HETATM   25  C   UNL     1      -7.154   8.208  62.727  1.00  0.00    -0.088 C  
ENDBRANCH  23  24
ENDBRANCH  21  23
ENDBRANCH  17  21
BRANCH  20  26
HETATM   26  N   UNL     1      -8.163   7.701  68.089  1.00  0.00    -0.123 NA 
HETATM   27  H   UNL     1      -8.959   7.254  68.545  1.00  0.00     0.000 HD 
BRANCH  26  28
HETATM   28  C   UNL     1      -6.880   7.043  68.056  1.00  0.00    -0.074 C  
BRANCH  28  29
HETATM   29  C   UNL     1      -7.074   5.663  67.484  1.00  0.00    -0.074 C  
HETATM   30  C   UNL     1      -8.262   5.101  67.219  1.00  0.00    -0.107 C  
ENDBRANCH  28  29
ENDBRANCH  26  28
ENDBRANCH  20  26
ENDBRANCH  14  15
ENDBRANCH   8   9
BRANCH   8  31
HETATM   31  C   UNL     1     -10.381  16.831  67.291  1.00  0.00    -0.304 A  
HETATM   32  C   UNL     1      -8.916  19.077  66.443  1.00  0.00    -0.324 A  
HETATM   33  C   UNL     1     -10.061  19.247  67.206  1.00  0.00    -0.481 A  
HETATM   34  F   UNL     1      -8.245  20.151  66.002  1.00  0.00    -0.324 F  
HETATM   35  C   UNL     1      -9.191  16.686  66.552  1.00  0.00    -0.297 A  
HETATM   36  C   UNL     1     -10.783  18.131  67.640  1.00  0.00    -0.364 A  
HETATM   37  C   UNL     1      -8.465  17.805  66.125  1.00  0.00    -0.158 A  
ENDBRANCH   8  31
ENDBRANCH   5   8
TORSDOF 10
ENDMDL
MODEL      160
REMARK 921   NORMALIZED FREE ENERGY PREDICTED BY IDOCK:   -3.33 KCAL/MOL
REMARK 922        TOTAL FREE ENERGY PREDICTED BY IDOCK:   -6.63 KCAL/MOL
REMARK 923 INTER-LIGAND FREE ENERGY PREDICTED BY IDOCK:   -7.92 KCAL/MOL
REMARK 924 INTRA-LIGAND FREE ENERGY PREDICTED BY IDOCK:    1.30 KCAL/MOL
REMARK 927      BINDING AFFINITY PREDICTED BY RF-SCORE:    0.00 PKD
ROOT
HETATM    1  F   UNL     1      -8.113  10.313  64.269  1.00  0.00    -0.151 F  
HETATM    2  C   UNL     1      -8.702  10.547  65.449  1.00  0.00    -0.183 A  
HETATM    3  C   UNL     1     -10.039  10.211  65.626  1.00  0.00    -0.324 A  
HETATM    4  C   UNL     1     -10.665  10.482  66.846  1.00  0.00    -0.281 A  
HETATM    5  C   UNL     1      -9.955  11.089  67.900  1.00  0.00    -0.192 A  
HETATM    6  C   UNL     1      -8.592  11.382  67.705  1.00  0.00    -0.130 A  
HETATM    7  C   UNL     1      -7.970  11.120  66.479  1.00  0.00    -0.158 A  
ENDROOT
BRANCH   5   8
HETATM    8  C   UNL     1     -10.669  11.413  69.225  1.00  0.00    -0.151 C  
BRANCH   8   9
HETATM    9  N   UNL     1     -11.754  12.420  69.047  1.00  0.00    -0.309 NA 
HETATM   10  C   UNL     1     -11.957  12.822  67.618  1.00  0.00    -0.273 C  
HETATM   11  C   UNL     1     -10.975  13.874  67.023  1.00  0.00    -0.295 C  
HETATM   12  C   UNL     1     -11.550  13.668  69.834  1.00  0.00    -0.211 C  
HETATM   13  C   UNL     1     -10.486  14.640  69.279  1.00  0.00    -0.209 C  
HETATM   14  N   UNL     1     -10.886  15.031  67.923  1.00  0.00    -0.272 NA 
BRANCH  14  15
HETATM   15  C   UNL     1     -10.140  16.074  67.372  1.00  0.00    -0.258 A  
HETATM   16  N   UNL     1      -8.900  15.826  66.979  1.00  0.00    -0.201 NA 
HETATM   17  C   UNL     1      -8.218  16.849  66.492  1.00  0.00    -0.285 A  
HETATM   18  N   UNL     1     -10.710  17.274  67.276  1.00  0.00    -0.271 NA 
HETATM   19  N   UNL     1      -8.683  18.087  66.424  1.00  0.00    -0.382 NA 
HETATM   20  C   UNL     1      -9.947  18.248  66.789  1.00  0.00    -0.352 A  
BRANCH  17  21
HETATM   21  N   UNL     1      -6.965  16.637  65.948  1.00  0.00     0.347 NA 
HETATM   22  H   UNL     1      -6.796  15.885  65.280  1.00  0.00     0.000 HD 
BRANCH  21  23
HETATM   23  C   UNL     1      -5.910  17.523  66.364  1.00  0.00    -0.210 C  
BRANCH  23  24
HETATM   24  C   UNL     1      -5.146  17.871  65.125  1.00  0.00    -0.034 C  
HETATM   25  C   UNL     1      -5.368  18.950  64.361  1.00  0.00    -0.264 C  
ENDBRANCH  23  24
ENDBRANCH  21  23
ENDBRANCH  17  21
BRANCH  20  26
HETATM   26  N   UNL     1     -10.476  19.498  66.527  1.00  0.00    -0.460 NA 
HETATM   27  H   UNL     1     -10.783  19.741  65.584  1.00  0.00     0.000 HD 
BRANCH  26  28
HETATM   28  C   UNL     1     -10.591  20.455  67.600  1.00  0.00     0.054 C  
BRANCH  28  29
HETATM   29  C   UNL     1      -9.202  20.878  68.002  1.00  0.00     0.162 C  
HETATM   30  C   UNL     1      -8.071  20.459  67.417  1.00  0.00    -0.367 C  
ENDBRANCH  28  29
ENDBRANCH  26  28
ENDBRANCH  20  26
ENDBRANCH  14  15
ENDBRANCH   8   9
BRANCH   8  31
HETATM   31  C   UNL     1     -11.125  10.099  69.907  1.00  0.00    -0.346 A  
HETATM   32  C   UNL     1     -12.076   7.732  71.087  1.00  0.00    -0.286 A  
HETATM   33  C   UNL     1     -10.950   7.696  70.280  1.00  0.00    -0.261 A  
HETATM   34  F   UNL     1     -12.555   6.594  71.612  1.00  0.00    -0.370 F  
HETATM   35  C   UNL     1     -12.240  10.114  70.766  1.00  0.00    -0.434 A  
HETATM   36  C   UNL     1     -10.467   8.875  69.703  1.00  0.00    -0.218 A  
HETATM   37  C   UNL     1     -12.717   8.933  71.349  1.00  0.00    -0.350 A  
ENDBRANCH   8  31
ENDBRANCH   5   8
TORSDOF 10
ENDMDL
MODEL      161
REMARK 921   NORMALIZED FREE ENERGY PREDICTED BY IDOCK:   -3.32 KCAL/MOL
REMARK 922        TOTAL FREE ENERGY PREDICTED BY IDOCK:   -6.60 KCAL/MOL
REMARK 923 INTER-LIGAND FREE ENERGY PREDICTED BY IDOCK:   -6.01 KCAL/MOL
REMARK 924 INTRA-LIGAND FREE ENERGY PREDICTED BY IDOCK:   -0.59 KCAL/MOL
REMARK 927      BINDING AFFINITY PREDICTED BY RF-SCORE:    0.00 PKD
ROOT
HETATM    1  F   UNL     1      -9.160  18.819  66.938  1.00  0.00    -0.271 F  
HETATM    2  C   UNL     1      -8.987  17.491  66.937  1.00  0.00    -0.251 A  
HETATM    3  C   UNL     1      -9.662  16.713  66.004  1.00  0.00    -0.306 A  
HETATM    4  C   UNL     1      -9.507  15.324  66.019  1.00  0.00    -0.372 A  
HETATM    5  C   UNL     1      -8.671  14.703  66.967  1.00  0.00    -0.258 A  
HETATM    6  C   UNL     1      -7.969  15.521  67.875  1.00  0.00    -0.146 A  
HETATM    7  C   UNL     1      -8.134  16.910  67.865  1.00  0.00    -0.191 A  
ENDROOT
BRANCH   5   8
HETATM    8  C   UNL     1      -8.539  13.170  66.994  1.00  0.00    -0.162 C  
BRANCH   8   9
HETATM    9  N   UNL     1      -7.251  12.727  67.600  1.00  0.00    -0.127 NA 
HETATM   10  C   UNL     1      -6.457  11.823  66.707  1.00  0.00    -0.069 C  
HETATM   11  C   UNL     1      -6.872  10.323  66.656  1.00  0.00    -0.091 C  
HETATM   12  C   UNL     1      -7.411  12.031  68.907  1.00  0.00    -0.067 C  
HETATM   13  C   UNL     1      -7.933  10.580  68.830  1.00  0.00    -0.128 C  
HETATM   14  N   UNL     1      -6.991   9.797  68.023  1.00  0.00    -0.077 NA 
BRANCH  14  15
HETATM   15  C   UNL     1      -7.210   8.419  68.042  1.00  0.00    -0.091 A  
HETATM   16  N   UNL     1      -7.102   7.778  69.197  1.00  0.00    -0.071 NA 
HETATM   17  C   UNL     1      -7.285   6.468  69.165  1.00  0.00    -0.091 A  
HETATM   18  N   UNL     1      -7.509   7.812  66.896  1.00  0.00    -0.093 NA 
HETATM   19  N   UNL     1      -7.518   5.778  68.060  1.00  0.00    -0.077 NA 
HETATM   20  C   UNL     1      -7.661   6.492  66.953  1.00  0.00    -0.100 A  
BRANCH  17  21
HETATM   21  N   UNL     1      -7.312   5.755  70.349  1.00  0.00    -0.077 NA 
HETATM   22  H   UNL     1      -6.810   4.872  70.449  1.00  0.00     0.000 HD 
BRANCH  21  23
HETATM   23  C   UNL     1      -8.077   6.311  71.434  1.00  0.00    -0.117 C  
BRANCH  23  24
HETATM   24  C   UNL     1      -9.509   5.995  71.139  1.00  0.00    -0.182 C  
HETATM   25  C   UNL     1     -10.033   4.762  71.099  1.00  0.00    -0.273 C  
ENDBRANCH  23  24
ENDBRANCH  21  23
ENDBRANCH  17  21
BRANCH  20  26
HETATM   26  N   UNL     1      -8.098   5.781  65.851  1.00  0.00    -0.108 NA 
HETATM   27  H   UNL     1      -8.430   6.271  65.020  1.00  0.00     0.000 HD 
BRANCH  26  28
HETATM   28  C   UNL     1      -8.078   4.339  65.888  1.00  0.00    -0.098 C  
BRANCH  28  29
HETATM   29  C   UNL     1      -9.476   3.845  65.619  1.00  0.00    -0.176 C  
HETATM   30  C   UNL     1     -10.106   3.924  64.439  1.00  0.00    -0.221 C  
ENDBRANCH  28  29
ENDBRANCH  26  28
ENDBRANCH  20  26
ENDBRANCH  14  15
ENDBRANCH   8   9
BRANCH   8  31
HETATM   31  C   UNL     1      -9.799  12.549  67.647  1.00  0.00    -0.202 A  
HETATM   32  C   UNL     1     -12.012  11.306  68.855  1.00  0.00    -0.310 A  
HETATM   33  C   UNL     1     -11.544  12.514  69.349  1.00  0.00    -0.368 A  
HETATM   34  F   UNL     1     -13.039  10.693  69.461  1.00  0.00    -0.127 F  
HETATM   35  C   UNL     1     -10.322  11.344  67.139  1.00  0.00    -0.247 A  
HETATM   36  C   UNL     1     -10.452  13.140  68.740  1.00  0.00    -0.187 A  
HETATM   37  C   UNL     1     -11.421  10.723  67.745  1.00  0.00    -0.283 A  
ENDBRANCH   8  31
ENDBRANCH   5   8
TORSDOF 10
ENDMDL
MODEL      162
REMARK 921   NORMALIZED FREE ENERGY PREDICTED BY IDOCK:   -3.32 KCAL/MOL
REMARK 922        TOTAL FREE ENERGY PREDICTED BY IDOCK:   -6.60 KCAL/MOL
REMARK 923 INTER-LIGAND FREE ENERGY PREDICTED BY IDOCK:   -6.80 KCAL/MOL
REMARK 924 INTRA-LIGAND FREE ENERGY PREDICTED BY IDOCK:    0.20 KCAL/MOL
REMARK 927      BINDING AFFINITY PREDICTED BY RF-SCORE:    0.00 PKD
ROOT
HETATM    1  F   UNL     1      -6.621   1.765  72.417  1.00  0.00    -0.013 F  
HETATM    2  C   UNL     1      -7.195   2.761  71.730  1.00  0.00    -0.039 A  
HETATM    3  C   UNL     1      -7.221   4.040  72.271  1.00  0.00    -0.057 A  
HETATM    4  C   UNL     1      -7.845   5.076  71.571  1.00  0.00    -0.110 A  
HETATM    5  C   UNL     1      -8.445   4.839  70.320  1.00  0.00    -0.095 A  
HETATM    6  C   UNL     1      -8.368   3.541  69.778  1.00  0.00    -0.080 A  
HETATM    7  C   UNL     1      -7.752   2.504  70.485  1.00  0.00    -0.043 A  
ENDROOT
BRANCH   5   8
HETATM    8  C   UNL     1      -9.160   5.983  69.577  1.00  0.00    -0.137 C  
BRANCH   8   9
HETATM    9  N   UNL     1      -8.512   7.303  69.821  1.00  0.00    -0.135 NA 
HETATM   10  C   UNL     1      -9.488   8.387  70.162  1.00  0.00    -0.164 C  
HETATM   11  C   UNL     1     -10.255   9.056  68.983  1.00  0.00    -0.205 C  
HETATM   12  C   UNL     1      -7.691   7.788  68.678  1.00  0.00    -0.118 C  
HETATM   13  C   UNL     1      -8.485   8.342  67.475  1.00  0.00    -0.129 C  
HETATM   14  N   UNL     1      -9.301   9.468  67.944  1.00  0.00    -0.132 NA 
BRANCH  14  15
HETATM   15  C   UNL     1      -9.909  10.211  66.932  1.00  0.00    -0.195 A  
HETATM   16  N   UNL     1      -9.647   9.897  65.672  1.00  0.00    -0.236 NA 
HETATM   17  C   UNL     1     -10.219  10.647  64.744  1.00  0.00    -0.331 A  
HETATM   18  N   UNL     1     -10.719  11.208  67.282  1.00  0.00    -0.243 NA 
HETATM   19  N   UNL     1     -10.981  11.697  65.005  1.00  0.00    -0.293 NA 
HETATM   20  C   UNL     1     -11.238  11.920  66.286  1.00  0.00    -0.337 A  
BRANCH  17  21
HETATM   21  N   UNL     1     -10.091  10.300  63.413  1.00  0.00    -0.479 NA 
HETATM   22  H   UNL     1     -10.630   9.534  63.008  1.00  0.00     0.000 HD 
BRANCH  21  23
HETATM   23  C   UNL     1      -9.164  11.065  62.620  1.00  0.00    -0.333 C  
BRANCH  23  24
HETATM   24  C   UNL     1      -7.991  10.170  62.372  1.00  0.00    -0.153 C  
HETATM   25  C   UNL     1      -6.844  10.193  63.066  1.00  0.00    -0.135 C  
ENDBRANCH  23  24
ENDBRANCH  21  23
ENDBRANCH  17  21
BRANCH  20  26
HETATM   26  N   UNL     1     -12.189  12.893  66.531  1.00  0.00    -0.461 NA 
HETATM   27  H   UNL     1     -13.176  12.643  66.603  1.00  0.00     0.000 HD 
BRANCH  26  28
HETATM   28  C   UNL     1     -11.772  14.265  66.682  1.00  0.00    -0.400 C  
BRANCH  28  29
HETATM   29  C   UNL     1     -11.541  14.526  68.148  1.00  0.00    -0.359 C  
HETATM   30  C   UNL     1     -10.367  14.878  68.691  1.00  0.00    -0.237 C  
ENDBRANCH  28  29
ENDBRANCH  26  28
ENDBRANCH  20  26
ENDBRANCH  14  15
ENDBRANCH   8   9
BRANCH   8  31
HETATM   31  C   UNL     1      -9.317   5.615  68.081  1.00  0.00    -0.119 A  
HETATM   32  C   UNL     1      -9.537   4.827  65.391  1.00  0.00    -0.140 A  
HETATM   33  C   UNL     1     -10.675   5.168  66.106  1.00  0.00    -0.247 A  
HETATM   34  F   UNL     1      -9.649   4.409  64.122  1.00  0.00    -0.158 F  
HETATM   35  C   UNL     1      -8.174   5.307  67.319  1.00  0.00    -0.104 A  
HETATM   36  C   UNL     1     -10.566   5.574  67.439  1.00  0.00    -0.274 A  
HETATM   37  C   UNL     1      -8.284   4.908  65.981  1.00  0.00    -0.112 A  
ENDBRANCH   8  31
ENDBRANCH   5   8
TORSDOF 10
ENDMDL
MODEL      163
REMARK 921   NORMALIZED FREE ENERGY PREDICTED BY IDOCK:   -3.30 KCAL/MOL
REMARK 922        TOTAL FREE ENERGY PREDICTED BY IDOCK:   -6.57 KCAL/MOL
REMARK 923 INTER-LIGAND FREE ENERGY PREDICTED BY IDOCK:   -8.03 KCAL/MOL
REMARK 924 INTRA-LIGAND FREE ENERGY PREDICTED BY IDOCK:    1.46 KCAL/MOL
REMARK 927      BINDING AFFINITY PREDICTED BY RF-SCORE:    0.00 PKD
ROOT
HETATM    1  F   UNL     1     -13.895  10.145  71.708  1.00  0.00    -0.307 F  
HETATM    2  C   UNL     1     -12.959   9.187  71.695  1.00  0.00    -0.365 A  
HETATM    3  C   UNL     1     -13.343   7.854  71.776  1.00  0.00    -0.364 A  
HETATM    4  C   UNL     1     -12.367   6.853  71.793  1.00  0.00    -0.401 A  
HETATM    5  C   UNL     1     -10.999   7.180  71.724  1.00  0.00    -0.258 A  
HETATM    6  C   UNL     1     -10.643   8.537  71.602  1.00  0.00    -0.353 A  
HETATM    7  C   UNL     1     -11.620   9.538  71.596  1.00  0.00    -0.451 A  
ENDROOT
BRANCH   5   8
HETATM    8  C   UNL     1      -9.936   6.068  71.779  1.00  0.00    -0.170 C  
BRANCH   8   9
HETATM    9  N   UNL     1      -9.603   5.542  70.424  1.00  0.00    -0.165 NA 
HETATM   10  C   UNL     1      -8.438   6.239  69.791  1.00  0.00    -0.126 C  
HETATM   11  C   UNL     1      -8.709   7.616  69.116  1.00  0.00    -0.139 C  
HETATM   12  C   UNL     1     -10.736   5.604  69.461  1.00  0.00    -0.310 C  
HETATM   13  C   UNL     1     -11.054   7.005  68.895  1.00  0.00    -0.050 C  
HETATM   14  N   UNL     1      -9.857   7.503  68.206  1.00  0.00    -0.159 NA 
BRANCH  14  15
HETATM   15  C   UNL     1     -10.055   8.663  67.456  1.00  0.00    -0.216 A  
HETATM   16  N   UNL     1     -10.968   9.532  67.863  1.00  0.00    -0.186 NA 
HETATM   17  C   UNL     1     -11.145  10.602  67.106  1.00  0.00    -0.196 A  
HETATM   18  N   UNL     1      -9.320   8.837  66.360  1.00  0.00    -0.187 NA 
HETATM   19  N   UNL     1     -10.508  10.819  65.967  1.00  0.00    -0.236 NA 
HETATM   20  C   UNL     1      -9.575   9.932  65.650  1.00  0.00    -0.256 A  
BRANCH  17  21
HETATM   21  N   UNL     1     -11.990  11.608  67.536  1.00  0.00    -0.621 NA 
HETATM   22  H   UNL     1     -13.000  11.473  67.576  1.00  0.00     0.000 HD 
BRANCH  21  23
HETATM   23  C   UNL     1     -11.383  12.855  67.924  1.00  0.00    -0.294 C  
BRANCH  23  24
HETATM   24  C   UNL     1     -12.240  13.934  67.343  1.00  0.00    -0.291 C  
HETATM   25  C   UNL     1     -12.426  14.149  66.032  1.00  0.00    -0.454 C  
ENDBRANCH  23  24
ENDBRANCH  21  23
ENDBRANCH  17  21
BRANCH  20  26
HETATM   26  N   UNL     1      -8.786  10.275  64.568  1.00  0.00    -0.188 NA 
HETATM   27  H   UNL     1      -9.118  10.954  63.882  1.00  0.00     0.000 HD 
BRANCH  26  28
HETATM   28  C   UNL     1      -7.488   9.664  64.418  1.00  0.00    -0.125 C  
BRANCH  28  29
HETATM   29  C   UNL     1      -7.487   8.874  63.135  1.00  0.00    -0.101 C  
HETATM   30  C   UNL     1      -7.397   7.539  63.054  1.00  0.00    -0.096 C  
ENDBRANCH  28  29
ENDBRANCH  26  28
ENDBRANCH  20  26
ENDBRANCH  14  15
ENDBRANCH   8   9
BRANCH   8  31
HETATM   31  C   UNL     1      -8.712   6.557  72.592  1.00  0.00    -0.125 A  
HETATM   32  C   UNL     1      -6.428   7.478  73.948  1.00  0.00    -0.077 A  
HETATM   33  C   UNL     1      -7.672   8.011  74.249  1.00  0.00    -0.262 A  
HETATM   34  F   UNL     1      -5.335   7.951  74.564  1.00  0.00    -0.063 F  
HETATM   35  C   UNL     1      -7.443   6.002  72.338  1.00  0.00    -0.099 A  
HETATM   36  C   UNL     1      -8.811   7.544  73.586  1.00  0.00    -0.271 A  
HETATM   37  C   UNL     1      -6.305   6.466  73.009  1.00  0.00    -0.063 A  
ENDBRANCH   8  31
ENDBRANCH   5   8
TORSDOF 10
ENDMDL
MODEL      164
REMARK 921   NORMALIZED FREE ENERGY PREDICTED BY IDOCK:   -3.28 KCAL/MOL
REMARK 922        TOTAL FREE ENERGY PREDICTED BY IDOCK:   -6.54 KCAL/MOL
REMARK 923 INTER-LIGAND FREE ENERGY PREDICTED BY IDOCK:   -5.93 KCAL/MOL
REMARK 924 INTRA-LIGAND FREE ENERGY PREDICTED BY IDOCK:   -0.61 KCAL/MOL
REMARK 927      BINDING AFFINITY PREDICTED BY RF-SCORE:    0.00 PKD
ROOT
HETATM    1  F   UNL     1      -6.717  18.062  69.292  1.00  0.00    -0.239 F  
HETATM    2  C   UNL     1      -7.151  16.868  68.868  1.00  0.00    -0.220 A  
HETATM    3  C   UNL     1      -6.676  15.711  69.475  1.00  0.00    -0.185 A  
HETATM    4  C   UNL     1      -7.103  14.462  69.015  1.00  0.00    -0.120 A  
HETATM    5  C   UNL     1      -8.013  14.362  67.945  1.00  0.00    -0.150 A  
HETATM    6  C   UNL     1      -8.508  15.552  67.376  1.00  0.00    -0.199 A  
HETATM    7  C   UNL     1      -8.071  16.800  67.831  1.00  0.00    -0.189 A  
ENDROOT
BRANCH   5   8
HETATM    8  C   UNL     1      -8.447  12.978  67.428  1.00  0.00    -0.200 C  
BRANCH   8   9
HETATM    9  N   UNL     1      -8.361  11.931  68.485  1.00  0.00    -0.146 NA 
HETATM   10  C   UNL     1      -7.176  11.027  68.325  1.00  0.00    -0.085 C  
HETATM   11  C   UNL     1      -7.290   9.874  67.285  1.00  0.00    -0.087 C  
HETATM   12  C   UNL     1      -9.570  11.066  68.573  1.00  0.00    -0.187 C  
HETATM   13  C   UNL     1      -9.713  10.005  67.461  1.00  0.00    -0.159 C  
HETATM   14  N   UNL     1      -8.537   9.129  67.509  1.00  0.00    -0.116 NA 
BRANCH  14  15
HETATM   15  C   UNL     1      -8.624   7.989  66.708  1.00  0.00    -0.130 A  
HETATM   16  N   UNL     1      -9.224   6.916  67.200  1.00  0.00    -0.135 NA 
HETATM   17  C   UNL     1      -9.256   5.847  66.421  1.00  0.00    -0.150 A  
HETATM   18  N   UNL     1      -8.091   8.034  65.489  1.00  0.00    -0.120 NA 
HETATM   19  N   UNL     1      -8.692   5.784  65.225  1.00  0.00    -0.133 NA 
HETATM   20  C   UNL     1      -8.155   6.911  64.780  1.00  0.00    -0.095 A  
BRANCH  17  21
HETATM   21  N   UNL     1      -9.973   4.735  66.819  1.00  0.00    -0.209 NA 
HETATM   22  H   UNL     1     -10.757   4.811  67.466  1.00  0.00     0.000 HD 
BRANCH  21  23
HETATM   23  C   UNL     1      -9.565   3.463  66.280  1.00  0.00    -0.049 C  
BRANCH  23  24
HETATM   24  C   UNL     1      -9.019   2.679  67.431  1.00  0.00    -0.187 C  
HETATM   25  C   UNL     1      -9.756   2.123  68.403  1.00  0.00     0.035 C  
ENDBRANCH  23  24
ENDBRANCH  21  23
ENDBRANCH  17  21
BRANCH  20  26
HETATM   26  N   UNL     1      -7.749   6.883  63.459  1.00  0.00    -0.104 NA 
HETATM   27  H   UNL     1      -7.509   5.998  63.012  1.00  0.00     0.000 HD 
BRANCH  26  28
HETATM   28  C   UNL     1      -7.668   8.119  62.719  1.00  0.00    -0.133 C  
BRANCH  28  29
HETATM   29  C   UNL     1      -6.220   8.372  62.386  1.00  0.00    -0.088 C  
HETATM   30  C   UNL     1      -5.304   8.839  63.246  1.00  0.00    -0.068 C  
ENDBRANCH  28  29
ENDBRANCH  26  28
ENDBRANCH  20  26
ENDBRANCH  14  15
ENDBRANCH   8   9
BRANCH   8  31
HETATM   31  C   UNL     1      -9.835  13.087  66.749  1.00  0.00    -0.243 A  
HETATM   32  C   UNL     1     -12.336  13.156  65.466  1.00  0.00    -0.474 A  
HETATM   33  C   UNL     1     -12.255  13.371  66.833  1.00  0.00    -0.343 A  
HETATM   34  F   UNL     1     -13.534  13.145  64.865  1.00  0.00    -0.190 F  
HETATM   35  C   UNL     1      -9.941  12.916  65.355  1.00  0.00    -0.208 A  
HETATM   36  C   UNL     1     -11.010  13.351  67.470  1.00  0.00    -0.284 A  
HETATM   37  C   UNL     1     -11.188  12.944  64.718  1.00  0.00    -0.336 A  
ENDBRANCH   8  31
ENDBRANCH   5   8
TORSDOF 10
ENDMDL
MODEL      165
REMARK 921   NORMALIZED FREE ENERGY PREDICTED BY IDOCK:   -3.27 KCAL/MOL
REMARK 922        TOTAL FREE ENERGY PREDICTED BY IDOCK:   -6.53 KCAL/MOL
REMARK 923 INTER-LIGAND FREE ENERGY PREDICTED BY IDOCK:   -5.58 KCAL/MOL
REMARK 924 INTRA-LIGAND FREE ENERGY PREDICTED BY IDOCK:   -0.96 KCAL/MOL
REMARK 927      BINDING AFFINITY PREDICTED BY RF-SCORE:    0.00 PKD
ROOT
HETATM    1  F   UNL     1     -11.494   5.896  66.513  1.00  0.00    -0.213 F  
HETATM    2  C   UNL     1     -10.504   6.313  67.313  1.00  0.00    -0.254 A  
HETATM    3  C   UNL     1      -9.420   6.988  66.767  1.00  0.00    -0.205 A  
HETATM    4  C   UNL     1      -8.371   7.398  67.594  1.00  0.00    -0.118 A  
HETATM    5  C   UNL     1      -8.402   7.138  68.978  1.00  0.00    -0.126 A  
HETATM    6  C   UNL     1      -9.532   6.487  69.509  1.00  0.00    -0.150 A  
HETATM    7  C   UNL     1     -10.576   6.068  68.678  1.00  0.00    -0.327 A  
ENDROOT
BRANCH   5   8
HETATM    8  C   UNL     1      -7.222   7.564  69.870  1.00  0.00    -0.080 C  
BRANCH   8   9
HETATM    9  N   UNL     1      -7.596   8.659  70.811  1.00  0.00    -0.073 NA 
HETATM   10  C   UNL     1      -8.950   9.238  70.533  1.00  0.00    -0.250 C  
HETATM   11  C   UNL     1      -9.059  10.281  69.382  1.00  0.00    -0.187 C  
HETATM   12  C   UNL     1      -6.626   9.788  70.835  1.00  0.00    -0.045 C  
HETATM   13  C   UNL     1      -6.682  10.741  69.622  1.00  0.00    -0.122 C  
HETATM   14  N   UNL     1      -8.030  11.316  69.554  1.00  0.00     0.188 NA 
BRANCH  14  15
HETATM   15  C   UNL     1      -8.174  12.362  68.641  1.00  0.00    -0.002 A  
HETATM   16  N   UNL     1      -8.972  12.186  67.598  1.00  0.00    -0.171 NA 
HETATM   17  C   UNL     1      -9.055  13.190  66.741  1.00  0.00    -0.209 A  
HETATM   18  N   UNL     1      -7.495  13.486  68.859  1.00  0.00    -0.064 NA 
HETATM   19  N   UNL     1      -8.363  14.314  66.845  1.00  0.00    -0.128 NA 
HETATM   20  C   UNL     1      -7.625  14.438  67.939  1.00  0.00    -0.151 A  
BRANCH  17  21
HETATM   21  N   UNL     1      -9.961  13.125  65.700  1.00  0.00    -0.391 NA 
HETATM   22  H   UNL     1      -9.678  12.829  64.766  1.00  0.00     0.000 HD 
BRANCH  21  23
HETATM   23  C   UNL     1     -11.323  13.490  65.990  1.00  0.00    -0.312 C  
BRANCH  23  24
HETATM   24  C   UNL     1     -12.111  13.175  64.758  1.00  0.00    -0.459 C  
HETATM   25  C   UNL     1     -11.667  12.444  63.726  1.00  0.00    -0.566 C  
ENDBRANCH  23  24
ENDBRANCH  21  23
ENDBRANCH  17  21
BRANCH  20  26
HETATM   26  N   UNL     1      -7.069  15.688  68.130  1.00  0.00    -0.112 NA 
HETATM   27  H   UNL     1      -6.229  15.963  67.618  1.00  0.00     0.000 HD 
BRANCH  26  28
HETATM   28  C   UNL     1      -7.685  16.602  69.061  1.00  0.00    -0.221 C  
BRANCH  28  29
HETATM   29  C   UNL     1      -8.353  17.697  68.270  1.00  0.00    -0.274 C  
HETATM   30  C   UNL     1      -8.152  19.010  68.455  1.00  0.00    -0.381 C  
ENDBRANCH  28  29
ENDBRANCH  26  28
ENDBRANCH  20  26
ENDBRANCH  14  15
ENDBRANCH   8   9
BRANCH   8  31
HETATM   31  C   UNL     1      -6.608   6.317  70.554  1.00  0.00    -0.048 A  
HETATM   32  C   UNL     1      -5.618   4.030  71.855  1.00  0.00    -0.008 A  
HETATM   33  C   UNL     1      -5.531   4.132  70.475  1.00  0.00    -0.012 A  
HETATM   34  F   UNL     1      -5.187   2.918  72.468  1.00  0.00     0.000 F  
HETATM   35  C   UNL     1      -6.644   6.207  71.958  1.00  0.00    -0.059 A  
HETATM   36  C   UNL     1      -6.010   5.275  69.828  1.00  0.00    -0.017 A  
HETATM   37  C   UNL     1      -6.157   5.064  72.604  1.00  0.00    -0.030 A  
ENDBRANCH   8  31
ENDBRANCH   5   8
TORSDOF 10
ENDMDL
MODEL      166
REMARK 921   NORMALIZED FREE ENERGY PREDICTED BY IDOCK:   -3.25 KCAL/MOL
REMARK 922        TOTAL FREE ENERGY PREDICTED BY IDOCK:   -6.49 KCAL/MOL
REMARK 923 INTER-LIGAND FREE ENERGY PREDICTED BY IDOCK:   -7.39 KCAL/MOL
REMARK 924 INTRA-LIGAND FREE ENERGY PREDICTED BY IDOCK:    0.91 KCAL/MOL
REMARK 927      BINDING AFFINITY PREDICTED BY RF-SCORE:    0.00 PKD
ROOT
HETATM    1  F   UNL     1     -11.268   9.155  72.058  1.00  0.00    -0.407 F  
HETATM    2  C   UNL     1     -11.502  10.107  71.145  1.00  0.00    -0.307 A  
HETATM    3  C   UNL     1     -12.501  11.045  71.375  1.00  0.00    -0.436 A  
HETATM    4  C   UNL     1     -12.768  12.022  70.412  1.00  0.00     0.000 A  
HETATM    5  C   UNL     1     -12.034  12.068  69.211  1.00  0.00    -0.329 A  
HETATM    6  C   UNL     1     -11.001  11.129  69.024  1.00  0.00    -0.286 A  
HETATM    7  C   UNL     1     -10.742  10.146  69.985  1.00  0.00    -0.356 A  
ENDROOT
BRANCH   5   8
HETATM    8  C   UNL     1     -12.364  13.128  68.144  1.00  0.00     0.169 C  
BRANCH   8   9
HETATM    9  N   UNL     1     -12.117  14.514  68.634  1.00  0.00    -0.265 NA 
HETATM   10  C   UNL     1     -11.560  15.422  67.580  1.00  0.00    -0.194 C  
HETATM   11  C   UNL     1     -10.033  15.325  67.286  1.00  0.00    -0.226 C  
HETATM   12  C   UNL     1     -11.203  14.582  69.807  1.00  0.00    -0.234 C  
HETATM   13  C   UNL     1      -9.705  14.369  69.499  1.00  0.00     0.310 C  
HETATM   14  N   UNL     1      -9.282  15.402  68.547  1.00  0.00    -0.191 NA 
BRANCH  14  15
HETATM   15  C   UNL     1      -7.904  15.475  68.337  1.00  0.00    -0.126 A  
HETATM   16  N   UNL     1      -7.256  14.370  68.002  1.00  0.00    -0.123 NA 
HETATM   17  C   UNL     1      -5.947  14.477  67.844  1.00  0.00    -0.138 A  
HETATM   18  N   UNL     1      -7.305  16.653  68.493  1.00  0.00    -0.190 NA 
HETATM   19  N   UNL     1      -5.264  15.592  68.047  1.00  0.00    -0.118 NA 
HETATM   20  C   UNL     1      -5.985  16.667  68.331  1.00  0.00    -0.124 A  
BRANCH  17  21
HETATM   21  N   UNL     1      -5.226  13.395  67.373  1.00  0.00    -0.337 NA 
HETATM   22  H   UNL     1      -4.216  13.446  67.243  1.00  0.00     0.000 HD 
BRANCH  21  23
HETATM   23  C   UNL     1      -5.962  12.195  67.075  1.00  0.00    -0.095 C  
BRANCH  23  24
HETATM   24  C   UNL     1      -5.374  11.121  67.935  1.00  0.00    -0.043 C  
HETATM   25  C   UNL     1      -5.435  11.087  69.274  1.00  0.00    -0.040 C  
ENDBRANCH  23  24
ENDBRANCH  21  23
ENDBRANCH  17  21
BRANCH  20  26
HETATM   26  N   UNL     1      -5.282  17.857  68.344  1.00  0.00    -0.150 NA 
HETATM   27  H   UNL     1      -4.859  18.197  69.208  1.00  0.00     0.000 HD 
BRANCH  26  28
HETATM   28  C   UNL     1      -5.152  18.613  67.123  1.00  0.00    -0.133 C  
BRANCH  28  29
HETATM   29  C   UNL     1      -6.404  19.433  66.943  1.00  0.00    -0.188 C  
HETATM   30  C   UNL     1      -7.043  19.615  65.779  1.00  0.00    -0.322 C  
ENDBRANCH  28  29
ENDBRANCH  26  28
ENDBRANCH  20  26
ENDBRANCH  14  15
ENDBRANCH   8   9
BRANCH   8  31
HETATM   31  C   UNL     1     -11.638  12.780  66.821  1.00  0.00    -0.431 A  
HETATM   32  C   UNL     1     -10.338  12.281  64.379  1.00  0.00    -0.331 A  
HETATM   33  C   UNL     1      -9.691  12.007  65.575  1.00  0.00    -0.221 A  
HETATM   34  F   UNL     1      -9.698  12.084  63.217  1.00  0.00    -0.374 F  
HETATM   35  C   UNL     1     -12.288  13.007  65.593  1.00  0.00    -0.504 A  
HETATM   36  C   UNL     1     -10.342  12.242  66.790  1.00  0.00    -0.238 A  
HETATM   37  C   UNL     1     -11.637  12.764  64.377  1.00  0.00    -0.415 A  
ENDBRANCH   8  31
ENDBRANCH   5   8
TORSDOF 10
ENDMDL
MODEL      167
REMARK 921   NORMALIZED FREE ENERGY PREDICTED BY IDOCK:   -3.25 KCAL/MOL
REMARK 922        TOTAL FREE ENERGY PREDICTED BY IDOCK:   -6.49 KCAL/MOL
REMARK 923 INTER-LIGAND FREE ENERGY PREDICTED BY IDOCK:   -6.51 KCAL/MOL
REMARK 924 INTRA-LIGAND FREE ENERGY PREDICTED BY IDOCK:    0.02 KCAL/MOL
REMARK 927      BINDING AFFINITY PREDICTED BY RF-SCORE:    0.00 PKD
ROOT
HETATM    1  F   UNL     1      -5.904   7.887  62.972  1.00  0.00    -0.058 F  
HETATM    2  C   UNL     1      -6.499   7.637  64.145  1.00  0.00    -0.052 A  
HETATM    3  C   UNL     1      -7.470   6.646  64.224  1.00  0.00    -0.096 A  
HETATM    4  C   UNL     1      -8.115   6.403  65.439  1.00  0.00    -0.128 A  
HETATM    5  C   UNL     1      -7.788   7.148  66.589  1.00  0.00    -0.109 A  
HETATM    6  C   UNL     1      -6.772   8.119  66.488  1.00  0.00    -0.063 A  
HETATM    7  C   UNL     1      -6.136   8.368  65.268  1.00  0.00    -0.045 A  
ENDROOT
BRANCH   5   8
HETATM    8  C   UNL     1      -8.533   6.892  67.912  1.00  0.00    -0.120 C  
BRANCH   8   9
HETATM    9  N   UNL     1     -10.008   7.043  67.765  1.00  0.00    -0.145 NA 
HETATM   10  C   UNL     1     -10.402   7.877  66.584  1.00  0.00    -0.200 C  
HETATM   11  C   UNL     1     -10.327   9.424  66.743  1.00  0.00    -0.233 C  
HETATM   12  C   UNL     1     -10.675   7.626  68.961  1.00  0.00    -0.119 C  
HETATM   13  C   UNL     1     -10.487   9.146  69.155  1.00  0.00    -0.217 C  
HETATM   14  N   UNL     1     -11.025   9.828  67.972  1.00  0.00    -0.223 NA 
BRANCH  14  15
HETATM   15  C   UNL     1     -11.126  11.215  68.092  1.00  0.00    -0.264 A  
HETATM   16  N   UNL     1     -11.975  11.712  68.978  1.00  0.00    -0.326 NA 
HETATM   17  C   UNL     1     -12.063  13.031  69.037  1.00  0.00    -0.177 A  
HETATM   18  N   UNL     1     -10.368  11.972  67.302  1.00  0.00    -0.210 NA 
HETATM   19  N   UNL     1     -11.399  13.855  68.243  1.00  0.00    -0.277 NA 
HETATM   20  C   UNL     1     -10.533  13.287  67.417  1.00  0.00    -0.243 A  
BRANCH  17  21
HETATM   21  N   UNL     1     -12.834  13.619  70.022  1.00  0.00    -0.074 NA 
HETATM   22  H   UNL     1     -13.800  13.897  69.847  1.00  0.00     0.000 HD 
BRANCH  21  23
HETATM   23  C   UNL     1     -12.216  13.823  71.306  1.00  0.00    -0.227 C  
BRANCH  23  24
HETATM   24  C   UNL     1     -12.205  15.302  71.533  1.00  0.00    -0.416 C  
HETATM   25  C   UNL     1     -12.091  15.897  72.729  1.00  0.00    -0.611 C  
ENDBRANCH  23  24
ENDBRANCH  21  23
ENDBRANCH  17  21
BRANCH  20  26
HETATM   26  N   UNL     1      -9.708  14.165  66.739  1.00  0.00    -0.267 NA 
HETATM   27  H   UNL     1      -8.808  14.439  67.135  1.00  0.00     0.000 HD 
BRANCH  26  28
HETATM   28  C   UNL     1     -10.133  14.692  65.465  1.00  0.00    -0.377 C  
BRANCH  28  29
HETATM   29  C   UNL     1     -11.629  14.544  65.371  1.00  0.00    -0.355 C  
HETATM   30  C   UNL     1     -12.269  13.719  64.531  1.00  0.00    -0.441 C  
ENDBRANCH  28  29
ENDBRANCH  26  28
ENDBRANCH  20  26
ENDBRANCH  14  15
ENDBRANCH   8   9
BRANCH   8  31
HETATM   31  C   UNL     1      -8.086   5.534  68.507  1.00  0.00    -0.099 A  
HETATM   32  C   UNL     1      -7.392   3.067  69.663  1.00  0.00    -0.044 A  
HETATM   33  C   UNL     1      -7.476   3.184  68.284  1.00  0.00    -0.053 A  
HETATM   34  F   UNL     1      -7.105   1.878  70.213  1.00  0.00    -0.032 F  
HETATM   35  C   UNL     1      -7.950   5.398  69.902  1.00  0.00    -0.081 A  
HETATM   36  C   UNL     1      -7.807   4.414  67.707  1.00  0.00    -0.084 A  
HETATM   37  C   UNL     1      -7.611   4.167  70.477  1.00  0.00    -0.045 A  
ENDBRANCH   8  31
ENDBRANCH   5   8
TORSDOF 10
ENDMDL
MODEL      168
REMARK 921   NORMALIZED FREE ENERGY PREDICTED BY IDOCK:   -3.22 KCAL/MOL
REMARK 922        TOTAL FREE ENERGY PREDICTED BY IDOCK:   -6.45 KCAL/MOL
REMARK 923 INTER-LIGAND FREE ENERGY PREDICTED BY IDOCK:   -7.45 KCAL/MOL
REMARK 924 INTRA-LIGAND FREE ENERGY PREDICTED BY IDOCK:    1.00 KCAL/MOL
REMARK 927      BINDING AFFINITY PREDICTED BY RF-SCORE:    0.00 PKD
ROOT
HETATM    1  F   UNL     1     -12.541  12.845  65.890  1.00  0.00    -0.483 F  
HETATM    2  C   UNL     1     -11.486  12.042  66.083  1.00  0.00    -0.339 A  
HETATM    3  C   UNL     1     -10.485  11.983  65.121  1.00  0.00    -0.328 A  
HETATM    4  C   UNL     1      -9.398  11.124  65.305  1.00  0.00    -0.243 A  
HETATM    5  C   UNL     1      -9.303  10.321  66.458  1.00  0.00    -0.200 A  
HETATM    6  C   UNL     1     -10.312  10.432  67.434  1.00  0.00    -0.275 A  
HETATM    7  C   UNL     1     -11.405  11.284  67.243  1.00  0.00    -0.329 A  
ENDROOT
BRANCH   5   8
HETATM    8  C   UNL     1      -8.116   9.354  66.629  1.00  0.00    -0.108 C  
BRANCH   8   9
HETATM    9  N   UNL     1      -7.111   9.865  67.603  1.00  0.00    -0.086 NA 
HETATM   10  C   UNL     1      -7.716  10.295  68.905  1.00  0.00    -0.098 C  
HETATM   11  C   UNL     1      -8.382  11.702  68.955  1.00  0.00     0.038 C  
HETATM   12  C   UNL     1      -6.304  11.007  67.091  1.00  0.00    -0.076 C  
HETATM   13  C   UNL     1      -7.030  12.369  67.045  1.00  0.00    -0.001 C  
HETATM   14  N   UNL     1      -7.458  12.705  68.408  1.00  0.00    -0.121 NA 
BRANCH  14  15
HETATM   15  C   UNL     1      -7.935  14.007  68.566  1.00  0.00    -0.141 A  
HETATM   16  N   UNL     1      -9.230  14.230  68.401  1.00  0.00    -0.193 NA 
HETATM   17  C   UNL     1      -9.636  15.482  68.528  1.00  0.00    -0.203 A  
HETATM   18  N   UNL     1      -7.063  14.966  68.869  1.00  0.00    -0.108 NA 
HETATM   19  N   UNL     1      -8.828  16.504  68.760  1.00  0.00    -0.246 NA 
HETATM   20  C   UNL     1      -7.554  16.197  68.963  1.00  0.00    -0.213 A  
BRANCH  17  21
HETATM   21  N   UNL     1     -10.988  15.768  68.492  1.00  0.00    -0.294 NA 
HETATM   22  H   UNL     1     -11.328  16.730  68.474  1.00  0.00     0.000 HD 
BRANCH  21  23
HETATM   23  C   UNL     1     -11.896  14.651  68.483  1.00  0.00    -0.311 C  
BRANCH  23  24
HETATM   24  C   UNL     1     -12.115  14.280  69.916  1.00  0.00    -0.404 C  
HETATM   25  C   UNL     1     -12.056  13.034  70.406  1.00  0.00    -0.391 C  
ENDBRANCH  23  24
ENDBRANCH  21  23
ENDBRANCH  17  21
BRANCH  20  26
HETATM   26  N   UNL     1      -6.763  17.244  69.398  1.00  0.00    -0.229 NA 
HETATM   27  H   UNL     1      -6.601  17.389  70.395  1.00  0.00     0.000 HD 
BRANCH  26  28
HETATM   28  C   UNL     1      -6.169  18.131  68.427  1.00  0.00    -0.191 C  
BRANCH  28  29
HETATM   29  C   UNL     1      -6.569  19.541  68.773  1.00  0.00    -0.330 C  
HETATM   30  C   UNL     1      -6.556  20.575  67.920  1.00  0.00    -0.347 C  
ENDBRANCH  28  29
ENDBRANCH  26  28
ENDBRANCH  20  26
ENDBRANCH  14  15
ENDBRANCH   8   9
BRANCH   8  31
HETATM   31  C   UNL     1      -8.644   7.932  66.944  1.00  0.00    -0.130 A  
HETATM   32  C   UNL     1      -9.626   5.334  67.380  1.00  0.00    -0.134 A  
HETATM   33  C   UNL     1      -8.354   5.673  67.813  1.00  0.00    -0.100 A  
HETATM   34  F   UNL     1     -10.075   4.082  67.548  1.00  0.00    -0.198 F  
HETATM   35  C   UNL     1      -9.949   7.574  66.554  1.00  0.00    -0.209 A  
HETATM   36  C   UNL     1      -7.869   6.968  67.609  1.00  0.00    -0.113 A  
HETATM   37  C   UNL     1     -10.435   6.278  66.766  1.00  0.00    -0.311 A  
ENDBRANCH   8  31
ENDBRANCH   5   8
TORSDOF 10
ENDMDL
MODEL      169
REMARK 921   NORMALIZED FREE ENERGY PREDICTED BY IDOCK:   -3.16 KCAL/MOL
REMARK 922        TOTAL FREE ENERGY PREDICTED BY IDOCK:   -6.35 KCAL/MOL
REMARK 923 INTER-LIGAND FREE ENERGY PREDICTED BY IDOCK:   -5.30 KCAL/MOL
REMARK 924 INTRA-LIGAND FREE ENERGY PREDICTED BY IDOCK:   -1.05 KCAL/MOL
REMARK 927      BINDING AFFINITY PREDICTED BY RF-SCORE:    0.00 PKD
ROOT
HETATM    1  F   UNL     1     -11.423   7.088  71.240  1.00  0.00    -0.271 F  
HETATM    2  C   UNL     1     -10.598   7.578  70.306  1.00  0.00    -0.229 A  
HETATM    3  C   UNL     1     -11.013   8.646  69.518  1.00  0.00    -0.067 A  
HETATM    4  C   UNL     1     -10.168   9.140  68.521  1.00  0.00    -0.223 A  
HETATM    5  C   UNL     1      -8.897   8.572  68.308  1.00  0.00    -0.142 A  
HETATM    6  C   UNL     1      -8.488   7.518  69.148  1.00  0.00    -0.136 A  
HETATM    7  C   UNL     1      -9.340   7.017  70.138  1.00  0.00    -0.162 A  
ENDROOT
BRANCH   5   8
HETATM    8  C   UNL     1      -7.992   9.105  67.183  1.00  0.00    -0.106 C  
BRANCH   8   9
HETATM    9  N   UNL     1      -6.849   9.903  67.712  1.00  0.00    -0.079 NA 
HETATM   10  C   UNL     1      -7.110  10.479  69.070  1.00  0.00    -0.081 C  
HETATM   11  C   UNL     1      -7.964  11.779  69.144  1.00  0.00     0.209 C  
HETATM   12  C   UNL     1      -6.438  11.026  66.824  1.00  0.00    -0.124 C  
HETATM   13  C   UNL     1      -7.370  12.258  66.834  1.00  0.00     0.033 C  
HETATM   14  N   UNL     1      -7.430  12.775  68.205  1.00  0.00    -0.115 NA 
BRANCH  14  15
HETATM   15  C   UNL     1      -8.057  14.015  68.335  1.00  0.00    -0.148 A  
HETATM   16  N   UNL     1      -7.309  15.080  68.577  1.00  0.00    -0.112 NA 
HETATM   17  C   UNL     1      -7.946  16.230  68.725  1.00  0.00    -0.221 A  
HETATM   18  N   UNL     1      -9.382  14.066  68.218  1.00  0.00    -0.205 NA 
HETATM   19  N   UNL     1      -9.263  16.358  68.692  1.00  0.00    -0.222 NA 
HETATM   20  C   UNL     1      -9.942  15.259  68.396  1.00  0.00    -0.220 A  
BRANCH  17  21
HETATM   21  N   UNL     1      -7.221  17.400  68.854  1.00  0.00    -0.252 NA 
HETATM   22  H   UNL     1      -7.401  18.055  69.615  1.00  0.00     0.000 HD 
BRANCH  21  23
HETATM   23  C   UNL     1      -6.202  17.653  67.870  1.00  0.00    -0.160 C  
BRANCH  23  24
HETATM   24  C   UNL     1      -6.896  18.282  66.703  1.00  0.00    -0.230 C  
HETATM   25  C   UNL     1      -6.293  18.696  65.580  1.00  0.00    -0.320 C  
ENDBRANCH  23  24
ENDBRANCH  21  23
ENDBRANCH  17  21
BRANCH  20  26
HETATM   26  N   UNL     1     -11.292  15.449  68.171  1.00  0.00    -0.338 NA 
HETATM   27  H   UNL     1     -11.614  15.890  67.309  1.00  0.00     0.000 HD 
BRANCH  26  28
HETATM   28  C   UNL     1     -12.242  15.018  69.167  1.00  0.00    -0.151 C  
BRANCH  28  29
HETATM   29  C   UNL     1     -11.716  15.416  70.521  1.00  0.00    -0.356 C  
HETATM   30  C   UNL     1     -12.469  15.606  71.614  1.00  0.00    -0.503 C  
ENDBRANCH  28  29
ENDBRANCH  26  28
ENDBRANCH  20  26
ENDBRANCH  14  15
ENDBRANCH   8   9
BRANCH   8  31
HETATM   31  C   UNL     1      -7.579   7.940  66.250  1.00  0.00    -0.083 A  
HETATM   32  C   UNL     1      -6.872   5.901  64.448  1.00  0.00    -0.050 A  
HETATM   33  C   UNL     1      -5.921   6.415  65.316  1.00  0.00    -0.029 A  
HETATM   34  F   UNL     1      -6.520   4.961  63.559  1.00  0.00    -0.024 F  
HETATM   35  C   UNL     1      -8.534   7.369  65.387  1.00  0.00    -0.101 A  
HETATM   36  C   UNL     1      -6.275   7.420  66.223  1.00  0.00    -0.041 A  
HETATM   37  C   UNL     1      -8.180   6.358  64.486  1.00  0.00    -0.038 A  
ENDBRANCH   8  31
ENDBRANCH   5   8
TORSDOF 10
ENDMDL
MODEL      170
REMARK 921   NORMALIZED FREE ENERGY PREDICTED BY IDOCK:   -3.13 KCAL/MOL
REMARK 922        TOTAL FREE ENERGY PREDICTED BY IDOCK:   -6.30 KCAL/MOL
REMARK 923 INTER-LIGAND FREE ENERGY PREDICTED BY IDOCK:   -6.97 KCAL/MOL
REMARK 924 INTRA-LIGAND FREE ENERGY PREDICTED BY IDOCK:    0.66 KCAL/MOL
REMARK 927      BINDING AFFINITY PREDICTED BY RF-SCORE:    0.00 PKD
ROOT
HETATM    1  F   UNL     1     -11.303   2.562  62.333  1.00  0.00    -0.179 F  
HETATM    2  C   UNL     1     -10.543   2.920  63.375  1.00  0.00    -0.228 A  
HETATM    3  C   UNL     1      -9.318   2.293  63.577  1.00  0.00    -0.098 A  
HETATM    4  C   UNL     1      -8.536   2.643  64.681  1.00  0.00    -0.089 A  
HETATM    5  C   UNL     1      -8.971   3.626  65.589  1.00  0.00    -0.136 A  
HETATM    6  C   UNL     1     -10.197   4.272  65.337  1.00  0.00    -0.235 A  
HETATM    7  C   UNL     1     -10.984   3.913  64.238  1.00  0.00    -0.056 A  
ENDROOT
BRANCH   5   8
HETATM    8  C   UNL     1      -8.113   3.975  66.820  1.00  0.00    -0.097 C  
BRANCH   8   9
HETATM    9  N   UNL     1      -7.025   4.939  66.491  1.00  0.00    -0.065 NA 
HETATM   10  C   UNL     1      -6.507   5.675  67.689  1.00  0.00    -0.047 C  
HETATM   11  C   UNL     1      -7.338   6.890  68.197  1.00  0.00    -0.097 C  
HETATM   12  C   UNL     1      -7.412   5.958  65.477  1.00  0.00    -0.082 C  
HETATM   13  C   UNL     1      -8.331   7.090  65.986  1.00  0.00    -0.134 C  
HETATM   14  N   UNL     1      -7.638   7.788  67.074  1.00  0.00    -0.098 NA 
BRANCH  14  15
HETATM   15  C   UNL     1      -8.248   8.972  67.491  1.00  0.00    -0.109 A  
HETATM   16  N   UNL     1      -8.258  10.004  66.662  1.00  0.00    -0.121 NA 
HETATM   17  C   UNL     1      -8.817  11.116  67.108  1.00  0.00    -0.143 A  
HETATM   18  N   UNL     1      -8.786   9.009  68.708  1.00  0.00    -0.136 NA 
HETATM   19  N   UNL     1      -9.313  11.260  68.327  1.00  0.00    -0.173 NA 
HETATM   20  C   UNL     1      -9.314  10.170  69.081  1.00  0.00    -0.197 A  
BRANCH  17  21
HETATM   21  N   UNL     1      -8.974  12.192  66.254  1.00  0.00    -0.368 NA 
HETATM   22  H   UNL     1      -8.413  13.038  66.356  1.00  0.00     0.000 HD 
BRANCH  21  23
HETATM   23  C   UNL     1      -9.962  12.067  65.214  1.00  0.00    -0.247 C  
BRANCH  23  24
HETATM   24  C   UNL     1     -11.093  12.965  65.604  1.00  0.00    -0.307 C  
HETATM   25  C   UNL     1     -12.357  12.843  65.174  1.00  0.00    -0.547 C  
ENDBRANCH  23  24
ENDBRANCH  21  23
ENDBRANCH  17  21
BRANCH  20  26
HETATM   26  N   UNL     1     -10.010  10.283  70.270  1.00  0.00    -0.395 NA 
HETATM   27  H   UNL     1     -10.157  11.198  70.698  1.00  0.00     0.000 HD 
BRANCH  26  28
HETATM   28  C   UNL     1     -10.527   9.093  70.901  1.00  0.00    -0.278 C  
BRANCH  28  29
HETATM   29  C   UNL     1      -9.659   8.779  72.092  1.00  0.00    -0.325 C  
HETATM   30  C   UNL     1      -9.971   7.909  73.063  1.00  0.00    -0.362 C  
ENDBRANCH  28  29
ENDBRANCH  26  28
ENDBRANCH  20  26
ENDBRANCH  14  15
ENDBRANCH   8   9
BRANCH   8  31
HETATM   31  C   UNL     1      -9.030   4.421  67.985  1.00  0.00    -0.142 A  
HETATM   32  C   UNL     1     -10.582   5.274  70.169  1.00  0.00    -0.227 A  
HETATM   33  C   UNL     1     -10.842   5.772  68.901  1.00  0.00    -0.305 A  
HETATM   34  F   UNL     1     -11.294   5.717  71.216  1.00  0.00    -0.330 F  
HETATM   35  C   UNL     1      -8.817   3.900  69.275  1.00  0.00    -0.145 A  
HETATM   36  C   UNL     1     -10.080   5.338  67.812  1.00  0.00    -0.205 A  
HETATM   37  C   UNL     1      -9.586   4.330  70.364  1.00  0.00    -0.265 A  
ENDBRANCH   8  31
ENDBRANCH   5   8
TORSDOF 10
ENDMDL
MODEL      171
REMARK 921   NORMALIZED FREE ENERGY PREDICTED BY IDOCK:   -3.13 KCAL/MOL
REMARK 922        TOTAL FREE ENERGY PREDICTED BY IDOCK:   -6.30 KCAL/MOL
REMARK 923 INTER-LIGAND FREE ENERGY PREDICTED BY IDOCK:   -6.95 KCAL/MOL
REMARK 924 INTRA-LIGAND FREE ENERGY PREDICTED BY IDOCK:    0.65 KCAL/MOL
REMARK 927      BINDING AFFINITY PREDICTED BY RF-SCORE:    0.00 PKD
ROOT
HETATM    1  F   UNL     1     -13.399  14.519  65.158  1.00  0.00    -0.255 F  
HETATM    2  C   UNL     1     -12.309  13.893  65.621  1.00  0.00    -0.482 A  
HETATM    3  C   UNL     1     -11.529  14.504  66.595  1.00  0.00    -0.373 A  
HETATM    4  C   UNL     1     -10.375  13.867  67.059  1.00  0.00    -0.267 A  
HETATM    5  C   UNL     1      -9.995  12.609  66.553  1.00  0.00    -0.256 A  
HETATM    6  C   UNL     1     -10.827  11.996  65.596  1.00  0.00    -0.325 A  
HETATM    7  C   UNL     1     -11.976  12.640  65.125  1.00  0.00    -0.474 A  
ENDROOT
BRANCH   5   8
HETATM    8  C   UNL     1      -8.702  11.936  67.049  1.00  0.00    -0.181 C  
BRANCH   8   9
HETATM    9  N   UNL     1      -8.747  11.639  68.509  1.00  0.00    -0.155 NA 
HETATM   10  C   UNL     1      -7.729  10.626  68.937  1.00  0.00    -0.121 C  
HETATM   11  C   UNL     1      -8.064   9.126  68.689  1.00  0.00    -0.102 C  
HETATM   12  C   UNL     1     -10.075  11.162  68.983  1.00  0.00    -0.155 C  
HETATM   13  C   UNL     1     -10.427   9.702  68.622  1.00  0.00    -0.210 C  
HETATM   14  N   UNL     1      -9.405   8.827  69.209  1.00  0.00    -0.149 NA 
BRANCH  14  15
HETATM   15  C   UNL     1      -9.702   7.464  69.155  1.00  0.00    -0.165 A  
HETATM   16  N   UNL     1      -9.953   6.918  67.975  1.00  0.00    -0.149 NA 
HETATM   17  C   UNL     1     -10.261   5.632  67.972  1.00  0.00    -0.186 A  
HETATM   18  N   UNL     1      -9.726   6.779  70.296  1.00  0.00    -0.172 NA 
HETATM   19  N   UNL     1     -10.375   4.893  69.065  1.00  0.00    -0.097 NA 
HETATM   20  C   UNL     1     -10.061   5.496  70.203  1.00  0.00    -0.239 A  
BRANCH  17  21
HETATM   21  N   UNL     1     -10.412   4.969  66.768  1.00  0.00    -0.247 NA 
HETATM   22  H   UNL     1     -11.165   5.206  66.122  1.00  0.00     0.000 HD 
BRANCH  21  23
HETATM   23  C   UNL     1      -9.462   3.931  66.466  1.00  0.00    -0.195 C  
BRANCH  23  24
HETATM   24  C   UNL     1      -8.803   4.330  65.184  1.00  0.00    -0.134 C  
HETATM   25  C   UNL     1      -9.385   4.301  63.976  1.00  0.00    -0.141 C  
ENDBRANCH  23  24
ENDBRANCH  21  23
ENDBRANCH  17  21
BRANCH  20  26
HETATM   26  N   UNL     1      -9.992   4.664  71.305  1.00  0.00    -0.196 NA 
HETATM   27  H   UNL     1     -10.176   5.030  72.239  1.00  0.00     0.000 HD 
BRANCH  26  28
HETATM   28  C   UNL     1      -9.658   3.273  71.120  1.00  0.00    -0.160 C  
BRANCH  28  29
HETATM   29  C   UNL     1     -10.148   2.509  72.323  1.00  0.00    -0.227 C  
HETATM   30  C   UNL     1     -10.687   3.063  73.418  1.00  0.00    -0.295 C  
ENDBRANCH  28  29
ENDBRANCH  26  28
ENDBRANCH  20  26
ENDBRANCH  14  15
ENDBRANCH   8   9
BRANCH   8  31
HETATM   31  C   UNL     1      -8.377  10.712  66.158  1.00  0.00    -0.158 A  
HETATM   32  C   UNL     1      -7.702   8.443  64.641  1.00  0.00    -0.112 A  
HETATM   33  C   UNL     1      -9.030   8.699  64.947  1.00  0.00    -0.007 A  
HETATM   34  F   UNL     1      -7.379   7.336  63.956  1.00  0.00    -0.065 F  
HETATM   35  C   UNL     1      -7.042  10.451  65.796  1.00  0.00    -0.139 A  
HETATM   36  C   UNL     1      -9.369   9.834  65.689  1.00  0.00    -0.285 A  
HETATM   37  C   UNL     1      -6.705   9.318  65.045  1.00  0.00    -0.078 A  
ENDBRANCH   8  31
ENDBRANCH   5   8
TORSDOF 10
ENDMDL
MODEL      172
REMARK 921   NORMALIZED FREE ENERGY PREDICTED BY IDOCK:   -3.12 KCAL/MOL
REMARK 922        TOTAL FREE ENERGY PREDICTED BY IDOCK:   -6.29 KCAL/MOL
REMARK 923 INTER-LIGAND FREE ENERGY PREDICTED BY IDOCK:   -7.32 KCAL/MOL
REMARK 924 INTRA-LIGAND FREE ENERGY PREDICTED BY IDOCK:    1.03 KCAL/MOL
REMARK 927      BINDING AFFINITY PREDICTED BY RF-SCORE:    0.00 PKD
ROOT
HETATM    1  F   UNL     1      -5.425   8.970  74.426  1.00  0.00    -0.098 F  
HETATM    2  C   UNL     1      -6.462   8.381  73.816  1.00  0.00    -0.116 A  
HETATM    3  C   UNL     1      -7.689   8.309  74.467  1.00  0.00    -0.298 A  
HETATM    4  C   UNL     1      -8.765   7.669  73.847  1.00  0.00    -0.302 A  
HETATM    5  C   UNL     1      -8.623   7.099  72.567  1.00  0.00    -0.131 A  
HETATM    6  C   UNL     1      -7.380   7.222  71.916  1.00  0.00    -0.080 A  
HETATM    7  C   UNL     1      -6.301   7.854  72.543  1.00  0.00    -0.065 A  
ENDROOT
BRANCH   5   8
HETATM    8  C   UNL     1      -9.808   6.366  71.912  1.00  0.00    -0.157 C  
BRANCH   8   9
HETATM    9  N   UNL     1     -10.965   7.274  71.670  1.00  0.00    -0.225 NA 
HETATM   10  C   UNL     1     -11.730   6.937  70.426  1.00  0.00    -0.325 C  
HETATM   11  C   UNL     1     -11.145   7.431  69.070  1.00  0.00     0.096 C  
HETATM   12  C   UNL     1     -10.592   8.713  71.586  1.00  0.00    -0.303 C  
HETATM   13  C   UNL     1      -9.909   9.149  70.271  1.00  0.00    -0.207 C  
HETATM   14  N   UNL     1     -10.826   8.863  69.162  1.00  0.00    -0.134 NA 
BRANCH  14  15
HETATM   15  C   UNL     1     -10.442   9.399  67.933  1.00  0.00    -0.243 A  
HETATM   16  N   UNL     1      -9.841   8.608  67.058  1.00  0.00    -0.197 NA 
HETATM   17  C   UNL     1      -9.465   9.164  65.918  1.00  0.00    -0.259 A  
HETATM   18  N   UNL     1     -10.692  10.686  67.701  1.00  0.00    -0.246 NA 
HETATM   19  N   UNL     1      -9.612  10.448  65.635  1.00  0.00    -0.209 NA 
HETATM   20  C   UNL     1     -10.266  11.166  66.537  1.00  0.00    -0.231 A  
BRANCH  17  21
HETATM   21  N   UNL     1      -8.946   8.372  64.911  1.00  0.00    -0.409 NA 
HETATM   22  H   UNL     1      -9.176   8.538  63.932  1.00  0.00     0.000 HD 
BRANCH  21  23
HETATM   23  C   UNL     1      -8.065   7.303  65.304  1.00  0.00    -0.134 C  
BRANCH  23  24
HETATM   24  C   UNL     1      -7.154   7.065  64.142  1.00  0.00    -0.063 C  
HETATM   25  C   UNL     1      -7.130   7.797  63.019  1.00  0.00    -0.083 C  
ENDBRANCH  23  24
ENDBRANCH  21  23
ENDBRANCH  17  21
BRANCH  20  26
HETATM   26  N   UNL     1     -10.585  12.452  66.141  1.00  0.00    -0.249 NA 
HETATM   27  H   UNL     1      -9.847  13.125  65.931  1.00  0.00     0.000 HD 
BRANCH  26  28
HETATM   28  C   UNL     1     -11.972  12.833  66.029  1.00  0.00    -0.432 C  
BRANCH  28  29
HETATM   29  C   UNL     1     -12.403  12.620  64.602  1.00  0.00    -0.546 C  
HETATM   30  C   UNL     1     -11.605  12.744  63.531  1.00  0.00    -0.565 C  
ENDBRANCH  28  29
ENDBRANCH  26  28
ENDBRANCH  20  26
ENDBRANCH  14  15
ENDBRANCH   8   9
BRANCH   8  31
HETATM   31  C   UNL     1      -9.320   5.606  70.654  1.00  0.00    -0.191 A  
HETATM   32  C   UNL     1      -8.304   4.232  68.421  1.00  0.00    -0.092 A  
HETATM   33  C   UNL     1      -9.304   3.656  69.190  1.00  0.00    -0.244 A  
HETATM   34  F   UNL     1      -7.790   3.556  67.384  1.00  0.00    -0.075 F  
HETATM   35  C   UNL     1      -8.336   6.186  69.831  1.00  0.00    -0.128 A  
HETATM   36  C   UNL     1      -9.820   4.344  70.293  1.00  0.00    -0.284 A  
HETATM   37  C   UNL     1      -7.826   5.498  68.722  1.00  0.00    -0.095 A  
ENDBRANCH   8  31
ENDBRANCH   5   8
TORSDOF 10
ENDMDL
MODEL      173
REMARK 921   NORMALIZED FREE ENERGY PREDICTED BY IDOCK:   -3.12 KCAL/MOL
REMARK 922        TOTAL FREE ENERGY PREDICTED BY IDOCK:   -6.29 KCAL/MOL
REMARK 923 INTER-LIGAND FREE ENERGY PREDICTED BY IDOCK:   -7.19 KCAL/MOL
REMARK 924 INTRA-LIGAND FREE ENERGY PREDICTED BY IDOCK:    0.90 KCAL/MOL
REMARK 927      BINDING AFFINITY PREDICTED BY RF-SCORE:    0.00 PKD
ROOT
HETATM    1  F   UNL     1      -9.111   9.091  71.428  1.00  0.00    -0.254 F  
HETATM    2  C   UNL     1      -9.038   9.714  70.245  1.00  0.00    -0.225 A  
HETATM    3  C   UNL     1     -10.186   9.862  69.476  1.00  0.00    -0.243 A  
HETATM    4  C   UNL     1     -10.108  10.483  68.227  1.00  0.00    -0.180 A  
HETATM    5  C   UNL     1      -8.878  10.967  67.739  1.00  0.00    -0.135 A  
HETATM    6  C   UNL     1      -7.739  10.838  68.558  1.00  0.00    -0.118 A  
HETATM    7  C   UNL     1      -7.817  10.206  69.803  1.00  0.00    -0.175 A  
ENDROOT
BRANCH   5   8
HETATM    8  C   UNL     1      -8.802  11.618  66.346  1.00  0.00    -0.182 C  
BRANCH   8   9
HETATM    9  N   UNL     1      -8.495  10.624  65.278  1.00  0.00    -0.168 NA 
HETATM   10  C   UNL     1      -9.581   9.611  65.084  1.00  0.00    -0.254 C  
HETATM   11  C   UNL     1      -9.635   8.419  66.084  1.00  0.00    -0.176 C  
HETATM   12  C   UNL     1      -7.226   9.878  65.499  1.00  0.00    -0.122 C  
HETATM   13  C   UNL     1      -7.280   8.776  66.580  1.00  0.00    -0.081 C  
HETATM   14  N   UNL     1      -8.305   7.802  66.190  1.00  0.00    -0.121 NA 
BRANCH  14  15
HETATM   15  C   UNL     1      -8.323   6.634  66.953  1.00  0.00    -0.114 A  
HETATM   16  N   UNL     1      -8.013   5.489  66.363  1.00  0.00    -0.104 NA 
HETATM   17  C   UNL     1      -8.073   4.402  67.114  1.00  0.00    -0.101 A  
HETATM   18  N   UNL     1      -8.658   6.725  68.238  1.00  0.00    -0.124 NA 
HETATM   19  N   UNL     1      -8.462   4.394  68.379  1.00  0.00    -0.092 NA 
HETATM   20  C   UNL     1      -8.708   5.582  68.914  1.00  0.00    -0.102 A  
BRANCH  17  21
HETATM   21  N   UNL     1      -7.643   3.193  66.599  1.00  0.00    -0.075 NA 
HETATM   22  H   UNL     1      -6.651   2.989  66.479  1.00  0.00     0.000 HD 
BRANCH  21  23
HETATM   23  C   UNL     1      -8.656   2.235  66.241  1.00  0.00    -0.112 C  
BRANCH  23  24
HETATM   24  C   UNL     1      -8.803   2.321  64.754  1.00  0.00    -0.118 C  
HETATM   25  C   UNL     1      -9.759   3.009  64.113  1.00  0.00    -0.154 C  
ENDBRANCH  23  24
ENDBRANCH  21  23
ENDBRANCH  17  21
BRANCH  20  26
HETATM   26  N   UNL     1      -8.919   5.575  70.280  1.00  0.00    -0.135 NA 
HETATM   27  H   UNL     1      -8.185   5.888  70.917  1.00  0.00     0.000 HD 
BRANCH  26  28
HETATM   28  C   UNL     1     -10.186   5.120  70.797  1.00  0.00    -0.238 C  
BRANCH  28  29
HETATM   29  C   UNL     1     -11.193   6.226  70.611  1.00  0.00    -0.401 C  
HETATM   30  C   UNL     1     -11.635   7.035  71.584  1.00  0.00    -0.320 C  
ENDBRANCH  28  29
ENDBRANCH  26  28
ENDBRANCH  20  26
ENDBRANCH  14  15
ENDBRANCH   8   9
BRANCH   8  31
HETATM   31  C   UNL     1     -10.081  12.453  66.091  1.00  0.00    -0.265 A  
HETATM   32  C   UNL     1     -12.477  13.854  65.642  1.00  0.00    -0.505 A  
HETATM   33  C   UNL     1     -11.630  14.246  66.666  1.00  0.00    -0.397 A  
HETATM   34  F   UNL     1     -13.641  14.495  65.458  1.00  0.00    -0.284 F  
HETATM   35  C   UNL     1     -10.939  12.104  65.030  1.00  0.00    -0.355 A  
HETATM   36  C   UNL     1     -10.431  13.560  66.882  1.00  0.00    -0.271 A  
HETATM   37  C   UNL     1     -12.135  12.798  64.811  1.00  0.00    -0.488 A  
ENDBRANCH   8  31
ENDBRANCH   5   8
TORSDOF 10
ENDMDL
MODEL      174
REMARK 921   NORMALIZED FREE ENERGY PREDICTED BY IDOCK:   -3.11 KCAL/MOL
REMARK 922        TOTAL FREE ENERGY PREDICTED BY IDOCK:   -6.28 KCAL/MOL
REMARK 923 INTER-LIGAND FREE ENERGY PREDICTED BY IDOCK:   -5.44 KCAL/MOL
REMARK 924 INTRA-LIGAND FREE ENERGY PREDICTED BY IDOCK:   -0.84 KCAL/MOL
REMARK 927      BINDING AFFINITY PREDICTED BY RF-SCORE:    0.00 PKD
ROOT
HETATM    1  F   UNL     1     -12.673  14.398  65.572  1.00  0.00    -0.439 F  
HETATM    2  C   UNL     1     -11.469  14.221  66.133  1.00  0.00    -0.355 A  
HETATM    3  C   UNL     1     -11.382  13.683  67.412  1.00  0.00    -0.340 A  
HETATM    4  C   UNL     1     -10.130  13.525  68.012  1.00  0.00    -0.244 A  
HETATM    5  C   UNL     1      -8.954  13.902  67.334  1.00  0.00    -0.211 A  
HETATM    6  C   UNL     1      -9.071  14.407  66.025  1.00  0.00     0.063 A  
HETATM    7  C   UNL     1     -10.326  14.574  65.430  1.00  0.00    -0.405 A  
ENDROOT
BRANCH   5   8
HETATM    8  C   UNL     1      -7.585  13.754  68.023  1.00  0.00    -0.145 C  
BRANCH   8   9
HETATM    9  N   UNL     1      -6.734  12.722  67.366  1.00  0.00    -0.155 NA 
HETATM   10  C   UNL     1      -7.492  11.856  66.406  1.00  0.00     0.270 C  
HETATM   11  C   UNL     1      -8.330  10.688  67.004  1.00  0.00    -0.126 C  
HETATM   12  C   UNL     1      -6.038  11.819  68.324  1.00  0.00    -0.049 C  
HETATM   13  C   UNL     1      -6.923  10.741  68.987  1.00  0.00    -0.085 C  
HETATM   14  N   UNL     1      -7.498   9.905  67.928  1.00  0.00    -0.089 NA 
BRANCH  14  15
HETATM   15  C   UNL     1      -8.147   8.754  68.378  1.00  0.00    -0.117 A  
HETATM   16  N   UNL     1      -9.426   8.839  68.711  1.00  0.00    -0.141 NA 
HETATM   17  C   UNL     1      -9.993   7.733  69.163  1.00  0.00    -0.182 A  
HETATM   18  N   UNL     1      -7.444   7.626  68.460  1.00  0.00    -0.101 NA 
HETATM   19  N   UNL     1      -9.352   6.589  69.340  1.00  0.00    -0.143 NA 
HETATM   20  C   UNL     1      -8.090   6.567  68.939  1.00  0.00    -0.115 A  
BRANCH  17  21
HETATM   21  N   UNL     1     -11.353   7.716  69.410  1.00  0.00    -0.428 NA 
HETATM   22  H   UNL     1     -11.972   7.058  68.937  1.00  0.00     0.000 HD 
BRANCH  21  23
HETATM   23  C   UNL     1     -11.860   8.668  70.364  1.00  0.00     0.073 C  
BRANCH  23  24
HETATM   24  C   UNL     1     -12.831   7.921  71.223  1.00  0.00    -0.244 C  
HETATM   25  C   UNL     1     -14.023   8.388  71.623  1.00  0.00    -0.460 C  
ENDBRANCH  23  24
ENDBRANCH  21  23
ENDBRANCH  17  21
BRANCH  20  26
HETATM   26  N   UNL     1      -7.495   5.319  68.945  1.00  0.00    -0.073 NA 
HETATM   27  H   UNL     1      -7.207   4.881  68.070  1.00  0.00     0.000 HD 
BRANCH  26  28
HETATM   28  C   UNL     1      -7.286   4.643  70.202  1.00  0.00    -0.050 C  
BRANCH  28  29
HETATM   29  C   UNL     1      -7.910   3.274  70.107  1.00  0.00    -0.046 C  
HETATM   30  C   UNL     1      -8.951   2.851  70.838  1.00  0.00    -0.164 C  
ENDBRANCH  28  29
ENDBRANCH  26  28
ENDBRANCH  20  26
ENDBRANCH  14  15
ENDBRANCH   8   9
BRANCH   8  31
HETATM   31  C   UNL     1      -6.915  15.144  68.154  1.00  0.00    -0.132 A  
HETATM   32  C   UNL     1      -5.761  17.705  68.272  1.00  0.00    -0.156 A  
HETATM   33  C   UNL     1      -6.532  17.246  69.329  1.00  0.00    -0.243 A  
HETATM   34  F   UNL     1      -5.249  18.944  68.311  1.00  0.00    -0.173 F  
HETATM   35  C   UNL     1      -6.091  15.619  67.115  1.00  0.00     0.177 A  
HETATM   36  C   UNL     1      -7.095  15.967  69.278  1.00  0.00    -0.220 A  
HETATM   37  C   UNL     1      -5.522  16.897  67.172  1.00  0.00    -0.189 A  
ENDBRANCH   8  31
ENDBRANCH   5   8
TORSDOF 10
ENDMDL
MODEL      175
REMARK 921   NORMALIZED FREE ENERGY PREDICTED BY IDOCK:   -3.05 KCAL/MOL
REMARK 922        TOTAL FREE ENERGY PREDICTED BY IDOCK:   -6.18 KCAL/MOL
REMARK 923 INTER-LIGAND FREE ENERGY PREDICTED BY IDOCK:   -7.96 KCAL/MOL
REMARK 924 INTRA-LIGAND FREE ENERGY PREDICTED BY IDOCK:    1.78 KCAL/MOL
REMARK 927      BINDING AFFINITY PREDICTED BY RF-SCORE:    0.00 PKD
ROOT
HETATM    1  F   UNL     1     -10.794  10.745  62.885  1.00  0.00    -0.136 F  
HETATM    2  C   UNL     1     -10.796  11.843  63.651  1.00  0.00    -0.444 A  
HETATM    3  C   UNL     1      -9.790  12.023  64.593  1.00  0.00    -0.182 A  
HETATM    4  C   UNL     1      -9.806  13.153  65.416  1.00  0.00    -0.123 A  
HETATM    5  C   UNL     1     -10.827  14.115  65.298  1.00  0.00    -0.356 A  
HETATM    6  C   UNL     1     -11.811  13.926  64.307  1.00  0.00    -0.441 A  
HETATM    7  C   UNL     1     -11.799  12.789  63.492  1.00  0.00    -0.618 A  
ENDROOT
BRANCH   5   8
HETATM    8  C   UNL     1     -10.849  15.337  66.235  1.00  0.00    -0.312 C  
BRANCH   8   9
HETATM    9  N   UNL     1     -11.609  15.068  67.489  1.00  0.00    -0.333 NA 
HETATM   10  C   UNL     1     -10.726  14.858  68.681  1.00  0.00    -0.250 C  
HETATM   11  C   UNL     1     -10.078  13.452  68.852  1.00  0.00     0.003 C  
HETATM   12  C   UNL     1     -12.521  13.895  67.399  1.00  0.00     0.071 C  
HETATM   13  C   UNL     1     -11.836  12.512  67.457  1.00  0.00    -0.323 C  
HETATM   14  N   UNL     1     -11.111  12.414  68.729  1.00  0.00    -0.249 NA 
BRANCH  14  15
HETATM   15  C   UNL     1     -10.620  11.141  69.026  1.00  0.00    -0.218 A  
HETATM   16  N   UNL     1      -9.820  10.553  68.150  1.00  0.00    -0.150 NA 
HETATM   17  C   UNL     1      -9.404   9.335  68.455  1.00  0.00    -0.138 A  
HETATM   18  N   UNL     1     -10.987  10.576  70.174  1.00  0.00    -0.290 NA 
HETATM   19  N   UNL     1      -9.774   8.674  69.540  1.00  0.00    -0.177 NA 
HETATM   20  C   UNL     1     -10.535   9.346  70.392  1.00  0.00    -0.256 A  
BRANCH  17  21
HETATM   21  N   UNL     1      -8.469   8.712  67.649  1.00  0.00    -0.124 NA 
HETATM   22  H   UNL     1      -8.388   8.936  66.657  1.00  0.00     0.000 HD 
BRANCH  21  23
HETATM   23  C   UNL     1      -7.615   7.733  68.269  1.00  0.00    -0.109 C  
BRANCH  23  24
HETATM   24  C   UNL     1      -6.963   6.981  67.152  1.00  0.00    -0.078 C  
HETATM   25  C   UNL     1      -6.732   7.471  65.925  1.00  0.00    -0.046 C  
ENDBRANCH  23  24
ENDBRANCH  21  23
ENDBRANCH  17  21
BRANCH  20  26
HETATM   26  N   UNL     1     -10.749   8.717  71.605  1.00  0.00    -0.299 NA 
HETATM   27  H   UNL     1     -11.345   9.150  72.312  1.00  0.00     0.000 HD 
BRANCH  26  28
HETATM   28  C   UNL     1     -10.121   7.445  71.862  1.00  0.00    -0.178 C  
BRANCH  28  29
HETATM   29  C   UNL     1     -10.883   6.760  72.966  1.00  0.00    -0.314 C  
HETATM   30  C   UNL     1     -10.534   5.597  73.535  1.00  0.00    -0.280 C  
ENDBRANCH  28  29
ENDBRANCH  26  28
ENDBRANCH  20  26
ENDBRANCH  14  15
ENDBRANCH   8   9
BRANCH   8  31
HETATM   31  C   UNL     1      -9.404  15.846  66.461  1.00  0.00    -0.306 A  
HETATM   32  C   UNL     1      -6.832  16.864  66.963  1.00  0.00    -0.204 A  
HETATM   33  C   UNL     1      -7.090  15.515  67.152  1.00  0.00    -0.171 A  
HETATM   34  F   UNL     1      -5.617  17.355  67.246  1.00  0.00    -0.116 F  
HETATM   35  C   UNL     1      -9.103  17.203  66.236  1.00  0.00    -0.260 A  
HETATM   36  C   UNL     1      -8.365  15.004  66.889  1.00  0.00    -0.247 A  
HETATM   37  C   UNL     1      -7.824  17.711  66.492  1.00  0.00    -0.307 A  
ENDBRANCH   8  31
ENDBRANCH   5   8
TORSDOF 10
ENDMDL
MODEL      176
REMARK 921   NORMALIZED FREE ENERGY PREDICTED BY IDOCK:   -3.03 KCAL/MOL
REMARK 922        TOTAL FREE ENERGY PREDICTED BY IDOCK:   -6.15 KCAL/MOL
REMARK 923 INTER-LIGAND FREE ENERGY PREDICTED BY IDOCK:   -7.28 KCAL/MOL
REMARK 924 INTRA-LIGAND FREE ENERGY PREDICTED BY IDOCK:    1.13 KCAL/MOL
REMARK 927      BINDING AFFINITY PREDICTED BY RF-SCORE:    0.00 PKD
ROOT
HETATM    1  F   UNL     1     -12.744  13.332  66.606  1.00  0.00    -0.291 F  
HETATM    2  C   UNL     1     -11.817  12.373  66.721  1.00  0.00    -0.315 A  
HETATM    3  C   UNL     1     -11.162  11.914  65.584  1.00  0.00    -0.360 A  
HETATM    4  C   UNL     1     -10.215  10.892  65.695  1.00  0.00    -0.323 A  
HETATM    5  C   UNL     1      -9.914  10.323  66.948  1.00  0.00    -0.259 A  
HETATM    6  C   UNL     1     -10.564  10.836  68.087  1.00  0.00    -0.238 A  
HETATM    7  C   UNL     1     -11.519  11.852  67.972  1.00  0.00    -0.389 A  
ENDROOT
BRANCH   5   8
HETATM    8  C   UNL     1      -8.894   9.174  67.049  1.00  0.00    -0.123 C  
BRANCH   8   9
HETATM    9  N   UNL     1      -7.529   9.662  67.394  1.00  0.00    -0.091 NA 
HETATM   10  C   UNL     1      -7.441  10.243  68.772  1.00  0.00    -0.089 C  
HETATM   11  C   UNL     1      -7.941  11.705  68.966  1.00  0.00     0.063 C  
HETATM   12  C   UNL     1      -6.999  10.682  66.448  1.00  0.00    -0.129 C  
HETATM   13  C   UNL     1      -7.599  12.099  66.590  1.00  0.00     0.158 C  
HETATM   14  N   UNL     1      -7.330  12.575  67.951  1.00  0.00    -0.103 NA 
BRANCH  14  15
HETATM   15  C   UNL     1      -7.618  13.923  68.167  1.00  0.00    -0.134 A  
HETATM   16  N   UNL     1      -6.619  14.793  68.150  1.00  0.00    -0.118 NA 
HETATM   17  C   UNL     1      -6.931  16.056  68.390  1.00  0.00    -0.121 A  
HETATM   18  N   UNL     1      -8.884  14.270  68.387  1.00  0.00    -0.184 NA 
HETATM   19  N   UNL     1      -8.151  16.476  68.686  1.00  0.00    -0.221 NA 
HETATM   20  C   UNL     1      -9.105  15.557  68.634  1.00  0.00    -0.202 A  
BRANCH  17  21
HETATM   21  N   UNL     1      -5.962  17.033  68.266  1.00  0.00    -0.132 NA 
HETATM   22  H   UNL     1      -4.982  16.840  68.473  1.00  0.00     0.000 HD 
BRANCH  21  23
HETATM   23  C   UNL     1      -6.394  18.336  67.830  1.00  0.00    -0.190 C  
BRANCH  23  24
HETATM   24  C   UNL     1      -6.600  18.234  66.352  1.00  0.00    -0.246 C  
HETATM   25  C   UNL     1      -6.002  19.008  65.436  1.00  0.00    -0.259 C  
ENDBRANCH  23  24
ENDBRANCH  21  23
ENDBRANCH  17  21
BRANCH  20  26
HETATM   26  N   UNL     1     -10.393  16.045  68.749  1.00  0.00    -0.226 NA 
HETATM   27  H   UNL     1     -10.921  16.310  67.916  1.00  0.00     0.000 HD 
BRANCH  26  28
HETATM   28  C   UNL     1     -10.985  16.178  70.058  1.00  0.00    -0.364 C  
BRANCH  28  29
HETATM   29  C   UNL     1     -11.438  14.814  70.508  1.00  0.00    -0.300 C  
HETATM   30  C   UNL     1     -12.712  14.399  70.541  1.00  0.00    -0.401 C  
ENDBRANCH  28  29
ENDBRANCH  26  28
ENDBRANCH  20  26
ENDBRANCH  14  15
ENDBRANCH   8   9
BRANCH   8  31
HETATM   31  C   UNL     1      -9.438   8.077  67.998  1.00  0.00    -0.157 A  
HETATM   32  C   UNL     1     -10.420   5.996  69.614  1.00  0.00    -0.261 A  
HETATM   33  C   UNL     1      -9.276   6.682  69.991  1.00  0.00    -0.158 A  
HETATM   34  F   UNL     1     -10.860   4.975  70.363  1.00  0.00    -0.284 F  
HETATM   35  C   UNL     1     -10.622   7.393  67.662  1.00  0.00    -0.309 A  
HETATM   36  C   UNL     1      -8.794   7.727  69.195  1.00  0.00    -0.138 A  
HETATM   37  C   UNL     1     -11.107   6.352  68.464  1.00  0.00    -0.385 A  
ENDBRANCH   8  31
ENDBRANCH   5   8
TORSDOF 10
ENDMDL
MODEL      177
REMARK 921   NORMALIZED FREE ENERGY PREDICTED BY IDOCK:   -3.02 KCAL/MOL
REMARK 922        TOTAL FREE ENERGY PREDICTED BY IDOCK:   -6.14 KCAL/MOL
REMARK 923 INTER-LIGAND FREE ENERGY PREDICTED BY IDOCK:   -7.70 KCAL/MOL
REMARK 924 INTRA-LIGAND FREE ENERGY PREDICTED BY IDOCK:    1.56 KCAL/MOL
REMARK 927      BINDING AFFINITY PREDICTED BY RF-SCORE:    0.00 PKD
ROOT
HETATM    1  F   UNL     1     -10.443  11.584  63.078  1.00  0.00    -0.349 F  
HETATM    2  C   UNL     1      -9.685  10.787  63.841  1.00  0.00    -0.313 A  
HETATM    3  C   UNL     1     -10.254  10.137  64.930  1.00  0.00    -0.160 A  
HETATM    4  C   UNL     1      -9.459   9.328  65.747  1.00  0.00    -0.329 A  
HETATM    5  C   UNL     1      -8.087   9.161  65.477  1.00  0.00    -0.115 A  
HETATM    6  C   UNL     1      -7.547   9.801  64.345  1.00  0.00    -0.135 A  
HETATM    7  C   UNL     1      -8.342  10.618  63.535  1.00  0.00    -0.053 A  
ENDROOT
BRANCH   5   8
HETATM    8  C   UNL     1      -7.217   8.295  66.407  1.00  0.00    -0.075 C  
BRANCH   8   9
HETATM    9  N   UNL     1      -6.791   9.036  67.629  1.00  0.00    -0.069 NA 
HETATM   10  C   UNL     1      -7.550   8.636  68.857  1.00  0.00    -0.092 C  
HETATM   11  C   UNL     1      -8.966   9.253  69.057  1.00  0.00    -0.140 C  
HETATM   12  C   UNL     1      -6.901  10.516  67.502  1.00  0.00    -0.075 C  
HETATM   13  C   UNL     1      -8.332  11.088  67.591  1.00  0.00    -0.117 C  
HETATM   14  N   UNL     1      -8.896  10.712  68.892  1.00  0.00    -0.155 NA 
BRANCH  14  15
HETATM   15  C   UNL     1     -10.101  11.339  69.211  1.00  0.00     0.009 A  
HETATM   16  N   UNL     1     -10.436  12.437  68.551  1.00  0.00    -0.230 NA 
HETATM   17  C   UNL     1     -11.570  13.018  68.906  1.00  0.00    -0.311 A  
HETATM   18  N   UNL     1     -10.854  10.805  70.170  1.00  0.00    -0.175 NA 
HETATM   19  N   UNL     1     -12.344  12.594  69.893  1.00  0.00    -0.128 NA 
HETATM   20  C   UNL     1     -11.970  11.462  70.473  1.00  0.00    -0.356 A  
BRANCH  17  21
HETATM   21  N   UNL     1     -12.043  14.094  68.179  1.00  0.00    -0.539 NA 
HETATM   22  H   UNL     1     -12.278  14.978  68.629  1.00  0.00     0.000 HD 
BRANCH  21  23
HETATM   23  C   UNL     1     -12.188  13.913  66.758  1.00  0.00    -0.399 C  
BRANCH  23  24
HETATM   24  C   UNL     1     -11.368  14.988  66.115  1.00  0.00    -0.270 C  
HETATM   25  C   UNL     1     -10.209  15.462  66.593  1.00  0.00    -0.281 C  
ENDBRANCH  23  24
ENDBRANCH  21  23
ENDBRANCH  17  21
BRANCH  20  26
HETATM   26  N   UNL     1     -12.886  10.930  71.361  1.00  0.00    -0.425 NA 
HETATM   27  H   UNL     1     -13.647  11.506  71.724  1.00  0.00     0.000 HD 
BRANCH  26  28
HETATM   28  C   UNL     1     -12.756   9.553  71.770  1.00  0.00    -0.404 C  
BRANCH  28  29
HETATM   29  C   UNL     1     -14.103   8.893  71.628  1.00  0.00    -0.395 C  
HETATM   30  C   UNL     1     -14.301   7.578  71.456  1.00  0.00    -0.603 C  
ENDBRANCH  28  29
ENDBRANCH  26  28
ENDBRANCH  20  26
ENDBRANCH  14  15
ENDBRANCH   8   9
BRANCH   8  31
HETATM   31  C   UNL     1      -7.936   6.954  66.694  1.00  0.00    -0.108 A  
HETATM   32  C   UNL     1      -9.264   4.506  67.077  1.00  0.00    -0.134 A  
HETATM   33  C   UNL     1      -7.969   4.668  67.542  1.00  0.00    -0.097 A  
HETATM   34  F   UNL     1      -9.879   3.322  67.220  1.00  0.00    -0.224 F  
HETATM   35  C   UNL     1      -9.268   6.776  66.271  1.00  0.00    -0.161 A  
HETATM   36  C   UNL     1      -7.312   5.890  67.365  1.00  0.00    -0.077 A  
HETATM   37  C   UNL     1      -9.926   5.554  66.456  1.00  0.00    -0.214 A  
ENDBRANCH   8  31
ENDBRANCH   5   8
TORSDOF 10
ENDMDL
MODEL      178
REMARK 921   NORMALIZED FREE ENERGY PREDICTED BY IDOCK:   -3.01 KCAL/MOL
REMARK 922        TOTAL FREE ENERGY PREDICTED BY IDOCK:   -6.11 KCAL/MOL
REMARK 923 INTER-LIGAND FREE ENERGY PREDICTED BY IDOCK:   -6.56 KCAL/MOL
REMARK 924 INTRA-LIGAND FREE ENERGY PREDICTED BY IDOCK:    0.44 KCAL/MOL
REMARK 927      BINDING AFFINITY PREDICTED BY RF-SCORE:    0.00 PKD
ROOT
HETATM    1  F   UNL     1      -5.847  12.135  69.050  1.00  0.00    -0.057 F  
HETATM    2  C   UNL     1      -6.844  12.730  68.382  1.00  0.00    -0.091 A  
HETATM    3  C   UNL     1      -7.567  13.747  68.993  1.00  0.00     0.022 A  
HETATM    4  C   UNL     1      -8.627  14.349  68.310  1.00  0.00    -0.170 A  
HETATM    5  C   UNL     1      -8.969  13.940  67.007  1.00  0.00    -0.251 A  
HETATM    6  C   UNL     1      -8.193  12.934  66.398  1.00  0.00     0.540 A  
HETATM    7  C   UNL     1      -7.139  12.325  67.088  1.00  0.00    -0.102 A  
ENDROOT
BRANCH   5   8
HETATM    8  C   UNL     1     -10.162  14.589  66.282  1.00  0.00    -0.297 C  
BRANCH   8   9
HETATM    9  N   UNL     1     -11.436  13.857  66.530  1.00  0.00    -0.334 NA 
HETATM   10  C   UNL     1     -11.422  13.060  67.799  1.00  0.00    -0.316 C  
HETATM   11  C   UNL     1     -10.710  11.676  67.768  1.00  0.00    -0.204 C  
HETATM   12  C   UNL     1     -11.821  12.930  65.430  1.00  0.00    -0.403 C  
HETATM   13  C   UNL     1     -11.018  11.613  65.355  1.00  0.00    -0.270 C  
HETATM   14  N   UNL     1     -11.198  10.896  66.622  1.00  0.00    -0.211 NA 
BRANCH  14  15
HETATM   15  C   UNL     1     -10.712   9.587  66.627  1.00  0.00    -0.016 A  
HETATM   16  N   UNL     1     -11.304   8.696  67.408  1.00  0.00     0.788 NA 
HETATM   17  C   UNL     1     -10.792   7.476  67.406  1.00  0.00    -0.202 A  
HETATM   18  N   UNL     1      -9.669   9.300  65.851  1.00  0.00    -0.283 NA 
HETATM   19  N   UNL     1      -9.718   7.123  66.719  1.00  0.00    -0.187 NA 
HETATM   20  C   UNL     1      -9.210   8.054  65.924  1.00  0.00    -0.067 A  
BRANCH  17  21
HETATM   21  N   UNL     1     -11.434   6.467  68.099  1.00  0.00    -0.551 NA 
HETATM   22  H   UNL     1     -12.404   6.222  67.904  1.00  0.00     0.000 HD 
BRANCH  21  23
HETATM   23  C   UNL     1     -10.673   5.776  69.107  1.00  0.00    -0.300 C  
BRANCH  23  24
HETATM   24  C   UNL     1     -10.934   6.496  70.393  1.00  0.00    -0.353 C  
HETATM   25  C   UNL     1     -12.149   6.798  70.874  1.00  0.00    -0.421 C  
ENDBRANCH  23  24
ENDBRANCH  21  23
ENDBRANCH  17  21
BRANCH  20  26
HETATM   26  N   UNL     1      -8.217   7.614  65.069  1.00  0.00    -0.207 NA 
HETATM   27  H   UNL     1      -7.803   8.252  64.388  1.00  0.00     0.000 HD 
BRANCH  26  28
HETATM   28  C   UNL     1      -7.770   6.245  65.150  1.00  0.00    -0.099 C  
BRANCH  28  29
HETATM   29  C   UNL     1      -8.000   5.597  63.810  1.00  0.00    -0.120 C  
HETATM   30  C   UNL     1      -8.089   4.276  63.599  1.00  0.00    -0.092 C  
ENDBRANCH  28  29
ENDBRANCH  26  28
ENDBRANCH  20  26
ENDBRANCH  14  15
ENDBRANCH   8   9
BRANCH   8  31
HETATM   31  C   UNL     1     -10.218  16.099  66.619  1.00  0.00    -0.291 A  
HETATM   32  C   UNL     1     -10.426  18.854  67.144  1.00  0.00    -0.438 A  
HETATM   33  C   UNL     1     -10.513  17.944  68.186  1.00  0.00    -0.380 A  
HETATM   34  F   UNL     1     -10.571  20.164  67.390  1.00  0.00    -0.511 F  
HETATM   35  C   UNL     1     -10.090  17.047  65.586  1.00  0.00    -0.136 A  
HETATM   36  C   UNL     1     -10.396  16.575  67.929  1.00  0.00    -0.294 A  
HETATM   37  C   UNL     1     -10.200  18.419  65.847  1.00  0.00    -0.250 A  
ENDBRANCH   8  31
ENDBRANCH   5   8
TORSDOF 10
ENDMDL
MODEL      179
REMARK 921   NORMALIZED FREE ENERGY PREDICTED BY IDOCK:   -3.00 KCAL/MOL
REMARK 922        TOTAL FREE ENERGY PREDICTED BY IDOCK:   -6.10 KCAL/MOL
REMARK 923 INTER-LIGAND FREE ENERGY PREDICTED BY IDOCK:   -6.94 KCAL/MOL
REMARK 924 INTRA-LIGAND FREE ENERGY PREDICTED BY IDOCK:    0.84 KCAL/MOL
REMARK 927      BINDING AFFINITY PREDICTED BY RF-SCORE:    0.00 PKD
ROOT
HETATM    1  F   UNL     1      -5.905   8.816  74.510  1.00  0.00    -0.103 F  
HETATM    2  C   UNL     1      -6.826   8.209  73.749  1.00  0.00    -0.127 A  
HETATM    3  C   UNL     1      -8.107   8.013  74.250  1.00  0.00    -0.312 A  
HETATM    4  C   UNL     1      -9.062   7.353  73.471  1.00  0.00    -0.259 A  
HETATM    5  C   UNL     1      -8.741   6.888  72.181  1.00  0.00    -0.131 A  
HETATM    6  C   UNL     1      -7.446   7.137  71.685  1.00  0.00    -0.086 A  
HETATM    7  C   UNL     1      -6.489   7.788  72.470  1.00  0.00    -0.063 A  
ENDROOT
BRANCH   5   8
HETATM    8  C   UNL     1      -9.793   6.132  71.349  1.00  0.00    -0.175 C  
BRANCH   8   9
HETATM    9  N   UNL     1     -10.973   6.984  71.028  1.00  0.00    -0.244 NA 
HETATM   10  C   UNL     1     -11.645   6.602  69.744  1.00  0.00    -0.293 C  
HETATM   11  C   UNL     1     -11.002   7.113  68.421  1.00  0.00    -0.021 C  
HETATM   12  C   UNL     1     -10.662   8.438  70.951  1.00  0.00    -0.222 C  
HETATM   13  C   UNL     1      -9.921   8.894  69.676  1.00  0.00    -0.191 C  
HETATM   14  N   UNL     1     -10.755   8.558  68.517  1.00  0.00    -0.099 NA 
BRANCH  14  15
HETATM   15  C   UNL     1     -10.322   9.102  67.307  1.00  0.00    -0.270 A  
HETATM   16  N   UNL     1     -10.602  10.371  67.049  1.00  0.00    -0.251 NA 
HETATM   17  C   UNL     1     -10.201  10.838  65.878  1.00  0.00    -0.259 A  
HETATM   18  N   UNL     1      -9.654   8.317  66.466  1.00  0.00    -0.228 NA 
HETATM   19  N   UNL     1      -9.593  10.109  64.956  1.00  0.00    -0.277 NA 
HETATM   20  C   UNL     1      -9.303   8.864  65.306  1.00  0.00    -0.025 A  
BRANCH  17  21
HETATM   21  N   UNL     1     -10.348  12.183  65.594  1.00  0.00    -0.249 NA 
HETATM   22  H   UNL     1     -10.243  12.894  66.318  1.00  0.00     0.000 HD 
BRANCH  21  23
HETATM   23  C   UNL     1     -10.656  12.538  64.233  1.00  0.00    -0.369 C  
BRANCH  23  24
HETATM   24  C   UNL     1     -11.710  13.597  64.307  1.00  0.00    -0.438 C  
HETATM   25  C   UNL     1     -12.514  13.812  65.358  1.00  0.00    -0.532 C  
ENDBRANCH  23  24
ENDBRANCH  21  23
ENDBRANCH  17  21
BRANCH  20  26
HETATM   26  N   UNL     1      -8.497   8.179  64.415  1.00  0.00    -0.379 NA 
HETATM   27  H   UNL     1      -7.985   7.349  64.715  1.00  0.00     0.000 HD 
BRANCH  26  28
HETATM   28  C   UNL     1      -8.387   8.650  63.056  1.00  0.00    -0.153 C  
BRANCH  28  29
HETATM   29  C   UNL     1      -6.934   8.926  62.771  1.00  0.00    -0.093 C  
HETATM   30  C   UNL     1      -6.351  10.131  62.841  1.00  0.00    -0.135 C  
ENDBRANCH  28  29
ENDBRANCH  26  28
ENDBRANCH  20  26
ENDBRANCH  14  15
ENDBRANCH   8   9
BRANCH   8  31
HETATM   31  C   UNL     1      -9.116   5.489  70.113  1.00  0.00    -0.162 A  
HETATM   32  C   UNL     1      -8.014   4.303  67.814  1.00  0.00    -0.087 A  
HETATM   33  C   UNL     1      -7.610   5.573  68.197  1.00  0.00    -0.081 A  
HETATM   34  F   UNL     1      -7.520   3.758  66.693  1.00  0.00    -0.074 F  
HETATM   35  C   UNL     1      -9.475   4.183  69.726  1.00  0.00    -0.265 A  
HETATM   36  C   UNL     1      -8.147   6.158  69.348  1.00  0.00    -0.112 A  
HETATM   37  C   UNL     1      -8.930   3.596  68.577  1.00  0.00    -0.178 A  
ENDBRANCH   8  31
ENDBRANCH   5   8
TORSDOF 10
ENDMDL
MODEL      180
REMARK 921   NORMALIZED FREE ENERGY PREDICTED BY IDOCK:   -2.95 KCAL/MOL
REMARK 922        TOTAL FREE ENERGY PREDICTED BY IDOCK:   -6.03 KCAL/MOL
REMARK 923 INTER-LIGAND FREE ENERGY PREDICTED BY IDOCK:   -6.35 KCAL/MOL
REMARK 924 INTRA-LIGAND FREE ENERGY PREDICTED BY IDOCK:    0.32 KCAL/MOL
REMARK 927      BINDING AFFINITY PREDICTED BY RF-SCORE:    0.00 PKD
ROOT
HETATM    1  F   UNL     1     -10.842  16.972  64.963  1.00  0.00    -0.384 F  
HETATM    2  C   UNL     1     -10.593  15.913  65.744  1.00  0.00    -0.355 A  
HETATM    3  C   UNL     1     -11.646  15.106  66.159  1.00  0.00    -0.080 A  
HETATM    4  C   UNL     1     -11.395  14.018  66.999  1.00  0.00    -0.346 A  
HETATM    5  C   UNL     1     -10.085  13.726  67.426  1.00  0.00    -0.244 A  
HETATM    6  C   UNL     1      -9.033  14.538  66.957  1.00  0.00    -0.258 A  
HETATM    7  C   UNL     1      -9.289  15.633  66.126  1.00  0.00    -0.382 A  
ENDROOT
BRANCH   5   8
HETATM    8  C   UNL     1      -9.829  12.544  68.380  1.00  0.00    -0.202 C  
BRANCH   8   9
HETATM    9  N   UNL     1     -11.082  11.809  68.712  1.00  0.00    -0.224 NA 
HETATM   10  C   UNL     1     -10.935  10.892  69.888  1.00  0.00    -0.199 C  
HETATM   11  C   UNL     1     -10.268   9.508  69.637  1.00  0.00    -0.218 C  
HETATM   12  C   UNL     1     -11.621  11.000  67.583  1.00  0.00    -0.143 C  
HETATM   13  C   UNL     1     -10.867   9.686  67.286  1.00  0.00    -0.142 C  
HETATM   14  N   UNL     1     -10.911   8.850  68.491  1.00  0.00    -0.064 NA 
BRANCH  14  15
HETATM   15  C   UNL     1     -10.462   7.541  68.312  1.00  0.00    -0.180 A  
HETATM   16  N   UNL     1     -10.822   6.894  67.213  1.00  0.00    -0.343 NA 
HETATM   17  C   UNL     1     -10.401   5.646  67.098  1.00  0.00    -0.248 A  
HETATM   18  N   UNL     1      -9.698   7.002  69.259  1.00  0.00    -0.157 NA 
HETATM   19  N   UNL     1      -9.697   5.011  68.022  1.00  0.00    -0.144 NA 
HETATM   20  C   UNL     1      -9.333   5.737  69.069  1.00  0.00    -0.123 A  
BRANCH  17  21
HETATM   21  N   UNL     1     -10.633   4.954  65.924  1.00  0.00    -0.492 NA 
HETATM   22  H   UNL     1     -11.432   5.170  65.328  1.00  0.00     0.000 HD 
BRANCH  21  23
HETATM   23  C   UNL     1      -9.699   3.914  65.578  1.00  0.00    -0.176 C  
BRANCH  23  24
HETATM   24  C   UNL     1      -9.097   4.315  64.268  1.00  0.00    -0.150 C  
HETATM   25  C   UNL     1      -8.346   5.407  64.067  1.00  0.00    -0.116 C  
ENDBRANCH  23  24
ENDBRANCH  21  23
ENDBRANCH  17  21
BRANCH  20  26
HETATM   26  N   UNL     1      -8.437   5.122  69.923  1.00  0.00    -0.095 NA 
HETATM   27  H   UNL     1      -8.662   5.009  70.912  1.00  0.00     0.000 HD 
BRANCH  26  28
HETATM   28  C   UNL     1      -7.180   4.643  69.403  1.00  0.00    -0.052 C  
BRANCH  28  29
HETATM   29  C   UNL     1      -6.317   5.837  69.086  1.00  0.00    -0.040 C  
HETATM   30  C   UNL     1      -5.708   6.056  67.912  1.00  0.00    -0.012 C  
ENDBRANCH  28  29
ENDBRANCH  26  28
ENDBRANCH  20  26
ENDBRANCH  14  15
ENDBRANCH   8   9
BRANCH   8  31
HETATM   31  C   UNL     1      -8.697  11.652  67.812  1.00  0.00    -0.152 A  
HETATM   32  C   UNL     1      -6.684   9.932  66.868  1.00  0.00    -0.078 A  
HETATM   33  C   UNL     1      -7.592  10.485  65.979  1.00  0.00    -0.140 A  
HETATM   34  F   UNL     1      -5.753   9.076  66.421  1.00  0.00    -0.045 F  
HETATM   35  C   UNL     1      -7.735  11.112  68.686  1.00  0.00    -0.135 A  
HETATM   36  C   UNL     1      -8.586  11.352  66.445  1.00  0.00    -0.174 A  
HETATM   37  C   UNL     1      -6.736  10.250  68.216  1.00  0.00    -0.057 A  
ENDBRANCH   8  31
ENDBRANCH   5   8
TORSDOF 10
ENDMDL
MODEL      181
REMARK 921   NORMALIZED FREE ENERGY PREDICTED BY IDOCK:   -2.95 KCAL/MOL
REMARK 922        TOTAL FREE ENERGY PREDICTED BY IDOCK:   -6.01 KCAL/MOL
REMARK 923 INTER-LIGAND FREE ENERGY PREDICTED BY IDOCK:   -6.49 KCAL/MOL
REMARK 924 INTRA-LIGAND FREE ENERGY PREDICTED BY IDOCK:    0.48 KCAL/MOL
REMARK 927      BINDING AFFINITY PREDICTED BY RF-SCORE:    0.00 PKD
ROOT
HETATM    1  F   UNL     1     -11.219  15.373  67.280  1.00  0.00    -0.320 F  
HETATM    2  C   UNL     1     -10.246  14.455  67.219  1.00  0.00    -0.252 A  
HETATM    3  C   UNL     1      -9.033  14.698  67.853  1.00  0.00    -0.174 A  
HETATM    4  C   UNL     1      -8.005  13.756  67.766  1.00  0.00    -0.170 A  
HETATM    5  C   UNL     1      -8.185  12.559  67.046  1.00  0.00    -0.125 A  
HETATM    6  C   UNL     1      -9.438  12.322  66.447  1.00  0.00    -0.240 A  
HETATM    7  C   UNL     1     -10.462  13.272  66.527  1.00  0.00    -0.282 A  
ENDROOT
BRANCH   5   8
HETATM    8  C   UNL     1      -7.030  11.547  66.930  1.00  0.00    -0.134 C  
BRANCH   8   9
HETATM    9  N   UNL     1      -6.618  11.010  68.258  1.00  0.00    -0.057 NA 
HETATM   10  C   UNL     1      -6.155   9.586  68.201  1.00  0.00    -0.055 C  
HETATM   11  C   UNL     1      -7.250   8.478  68.168  1.00  0.00    -0.087 C  
HETATM   12  C   UNL     1      -7.684  11.089  69.295  1.00  0.00    -0.068 C  
HETATM   13  C   UNL     1      -8.817  10.048  69.168  1.00  0.00    -0.168 C  
HETATM   14  N   UNL     1      -8.220   8.710  69.247  1.00  0.00    -0.112 NA 
BRANCH  14  15
HETATM   15  C   UNL     1      -9.138   7.666  69.366  1.00  0.00    -0.142 A  
HETATM   16  N   UNL     1      -9.973   7.673  70.394  1.00  0.00    -0.188 NA 
HETATM   17  C   UNL     1     -10.805   6.649  70.487  1.00  0.00    -0.261 A  
HETATM   18  N   UNL     1      -9.125   6.707  68.444  1.00  0.00    -0.126 NA 
HETATM   19  N   UNL     1     -10.813   5.621  69.654  1.00  0.00    -0.337 NA 
HETATM   20  C   UNL     1      -9.984   5.708  68.623  1.00  0.00    -0.162 A  
BRANCH  17  21
HETATM   21  N   UNL     1     -11.786   6.654  71.461  1.00  0.00    -0.322 NA 
HETATM   22  H   UNL     1     -11.619   6.259  72.386  1.00  0.00     0.000 HD 
BRANCH  21  23
HETATM   23  C   UNL     1     -13.054   7.241  71.114  1.00  0.00    -0.230 C  
BRANCH  23  24
HETATM   24  C   UNL     1     -13.212   8.441  71.994  1.00  0.00    -0.372 C  
HETATM   25  C   UNL     1     -12.751   9.668  71.713  1.00  0.00    -0.510 C  
ENDBRANCH  23  24
ENDBRANCH  21  23
ENDBRANCH  17  21
BRANCH  20  26
HETATM   26  N   UNL     1     -10.144   4.729  67.661  1.00  0.00    -0.122 NA 
HETATM   27  H   UNL     1      -9.993   3.747  67.894  1.00  0.00     0.000 HD 
BRANCH  26  28
HETATM   28  C   UNL     1     -10.524   5.109  66.322  1.00  0.00    -0.289 C  
BRANCH  28  29
HETATM   29  C   UNL     1      -9.459   4.622  65.375  1.00  0.00    -0.176 C  
HETATM   30  C   UNL     1      -8.140   4.671  65.610  1.00  0.00    -0.107 C  
ENDBRANCH  28  29
ENDBRANCH  26  28
ENDBRANCH  20  26
ENDBRANCH  14  15
ENDBRANCH   8   9
BRANCH   8  31
HETATM   31  C   UNL     1      -7.393  10.460  65.887  1.00  0.00    -0.135 A  
HETATM   32  C   UNL     1      -7.948   8.409  64.046  1.00  0.00    -0.151 A  
HETATM   33  C   UNL     1      -8.947   8.868  64.890  1.00  0.00    -0.128 A  
HETATM   34  F   UNL     1      -8.203   7.400  63.201  1.00  0.00    -0.130 F  
HETATM   35  C   UNL     1      -6.409  10.005  64.988  1.00  0.00    -0.116 A  
HETATM   36  C   UNL     1      -8.677   9.898  65.797  1.00  0.00    -0.157 A  
HETATM   37  C   UNL     1      -6.684   8.979  64.076  1.00  0.00    -0.088 A  
ENDBRANCH   8  31
ENDBRANCH   5   8
TORSDOF 10
ENDMDL
MODEL      182
REMARK 921   NORMALIZED FREE ENERGY PREDICTED BY IDOCK:   -2.94 KCAL/MOL
REMARK 922        TOTAL FREE ENERGY PREDICTED BY IDOCK:   -6.00 KCAL/MOL
REMARK 923 INTER-LIGAND FREE ENERGY PREDICTED BY IDOCK:   -7.28 KCAL/MOL
REMARK 924 INTRA-LIGAND FREE ENERGY PREDICTED BY IDOCK:    1.28 KCAL/MOL
REMARK 927      BINDING AFFINITY PREDICTED BY RF-SCORE:    0.00 PKD
ROOT
HETATM    1  F   UNL     1      -9.802  11.266  62.584  1.00  0.00    -0.291 F  
HETATM    2  C   UNL     1      -9.121  10.483  63.430  1.00  0.00    -0.249 A  
HETATM    3  C   UNL     1      -9.784   9.886  64.496  1.00  0.00    -0.223 A  
HETATM    4  C   UNL     1      -9.071   9.092  65.398  1.00  0.00    -0.271 A  
HETATM    5  C   UNL     1      -7.687   8.887  65.237  1.00  0.00    -0.100 A  
HETATM    6  C   UNL     1      -7.050   9.472  64.126  1.00  0.00    -0.112 A  
HETATM    7  C   UNL     1      -7.764  10.274  63.230  1.00  0.00    -0.133 A  
ENDROOT
BRANCH   5   8
HETATM    8  C   UNL     1      -6.909   8.038  66.260  1.00  0.00    -0.058 C  
BRANCH   8   9
HETATM    9  N   UNL     1      -6.472   8.840  67.439  1.00  0.00    -0.057 NA 
HETATM   10  C   UNL     1      -7.259   8.543  68.679  1.00  0.00    -0.080 C  
HETATM   11  C   UNL     1      -8.655   9.219  68.820  1.00  0.00    -0.131 C  
HETATM   12  C   UNL     1      -6.530  10.312  67.218  1.00  0.00    -0.067 C  
HETATM   13  C   UNL     1      -7.942  10.936  67.251  1.00  0.00    -0.123 C  
HETATM   14  N   UNL     1      -8.533  10.661  68.565  1.00  0.00    -0.128 NA 
BRANCH  14  15
HETATM   15  C   UNL     1      -9.720  11.347  68.827  1.00  0.00    -0.145 A  
HETATM   16  N   UNL     1     -10.614  10.782  69.625  1.00  0.00    -0.212 NA 
HETATM   17  C   UNL     1     -11.738  11.451  69.821  1.00  0.00    -0.344 A  
HETATM   18  N   UNL     1      -9.901  12.535  68.255  1.00  0.00    -0.227 NA 
HETATM   19  N   UNL     1     -12.027  12.603  69.238  1.00  0.00    -0.278 NA 
HETATM   20  C   UNL     1     -11.066  13.130  68.494  1.00  0.00    -0.266 A  
BRANCH  17  21
HETATM   21  N   UNL     1     -12.660  10.981  70.738  1.00  0.00    -0.366 NA 
HETATM   22  H   UNL     1     -13.594  11.384  70.806  1.00  0.00     0.000 HD 
BRANCH  21  23
HETATM   23  C   UNL     1     -12.244   9.900  71.593  1.00  0.00    -0.395 C  
BRANCH  23  24
HETATM   24  C   UNL     1     -13.316   8.860  71.501  1.00  0.00    -0.374 C  
HETATM   25  C   UNL     1     -14.098   8.468  72.517  1.00  0.00    -0.322 C  
ENDBRANCH  23  24
ENDBRANCH  21  23
ENDBRANCH  17  21
BRANCH  20  26
HETATM   26  N   UNL     1     -11.306  14.419  68.055  1.00  0.00    -0.280 NA 
HETATM   27  H   UNL     1     -11.754  15.098  68.671  1.00  0.00     0.000 HD 
BRANCH  26  28
HETATM   28  C   UNL     1     -10.916  14.794  66.718  1.00  0.00    -0.327 C  
BRANCH  28  29
HETATM   29  C   UNL     1     -11.825  14.086  65.748  1.00  0.00    -0.393 C  
HETATM   30  C   UNL     1     -11.432  13.524  64.596  1.00  0.00    -0.381 C  
ENDBRANCH  28  29
ENDBRANCH  26  28
ENDBRANCH  20  26
ENDBRANCH  14  15
ENDBRANCH   8   9
BRANCH   8  31
HETATM   31  C   UNL     1      -7.726   6.773  66.617  1.00  0.00    -0.105 A  
HETATM   32  C   UNL     1      -9.243   4.461  67.131  1.00  0.00    -0.142 A  
HETATM   33  C   UNL     1      -7.913   4.514  67.518  1.00  0.00    -0.100 A  
HETATM   34  F   UNL     1      -9.951   3.341  67.336  1.00  0.00    -0.168 F  
HETATM   35  C   UNL     1      -9.091   6.708  66.275  1.00  0.00    -0.168 A  
HETATM   36  C   UNL     1      -7.161   5.668  67.276  1.00  0.00    -0.074 A  
HETATM   37  C   UNL     1      -9.844   5.555  66.526  1.00  0.00    -0.194 A  
ENDBRANCH   8  31
ENDBRANCH   5   8
TORSDOF 10
ENDMDL
MODEL      183
REMARK 921   NORMALIZED FREE ENERGY PREDICTED BY IDOCK:   -2.93 KCAL/MOL
REMARK 922        TOTAL FREE ENERGY PREDICTED BY IDOCK:   -5.98 KCAL/MOL
REMARK 923 INTER-LIGAND FREE ENERGY PREDICTED BY IDOCK:   -5.82 KCAL/MOL
REMARK 924 INTRA-LIGAND FREE ENERGY PREDICTED BY IDOCK:   -0.16 KCAL/MOL
REMARK 927      BINDING AFFINITY PREDICTED BY RF-SCORE:    0.00 PKD
ROOT
HETATM    1  F   UNL     1      -6.833   3.724  67.173  1.00  0.00    -0.046 F  
HETATM    2  C   UNL     1      -6.990   5.051  67.255  1.00  0.00    -0.065 A  
HETATM    3  C   UNL     1      -6.060   5.809  67.957  1.00  0.00    -0.021 A  
HETATM    4  C   UNL     1      -6.237   7.191  68.071  1.00  0.00    -0.035 A  
HETATM    5  C   UNL     1      -7.346   7.825  67.478  1.00  0.00    -0.092 A  
HETATM    6  C   UNL     1      -8.250   7.037  66.740  1.00  0.00    -0.111 A  
HETATM    7  C   UNL     1      -8.077   5.653  66.636  1.00  0.00    -0.105 A  
ENDROOT
BRANCH   5   8
HETATM    8  C   UNL     1      -7.546   9.343  67.643  1.00  0.00    -0.088 C  
BRANCH   8   9
HETATM    9  N   UNL     1      -6.249  10.076  67.711  1.00  0.00    -0.054 NA 
HETATM   10  C   UNL     1      -6.022  10.752  69.029  1.00  0.00    -0.040 C  
HETATM   11  C   UNL     1      -6.731  12.119  69.265  1.00  0.00    -0.084 C  
HETATM   12  C   UNL     1      -6.086  11.107  66.650  1.00  0.00    -0.133 C  
HETATM   13  C   UNL     1      -6.891  12.409  66.855  1.00  0.00     0.131 C  
HETATM   14  N   UNL     1      -6.473  13.011  68.126  1.00  0.00    -0.087 NA 
BRANCH  14  15
HETATM   15  C   UNL     1      -6.953  14.303  68.346  1.00  0.00    -0.100 A  
HETATM   16  N   UNL     1      -6.095  15.239  68.722  1.00  0.00    -0.086 NA 
HETATM   17  C   UNL     1      -6.596  16.442  68.951  1.00  0.00    -0.165 A  
HETATM   18  N   UNL     1      -8.253  14.530  68.176  1.00  0.00    -0.137 NA 
HETATM   19  N   UNL     1      -7.884  16.737  68.873  1.00  0.00    -0.250 NA 
HETATM   20  C   UNL     1      -8.673  15.762  68.444  1.00  0.00    -0.177 A  
BRANCH  17  21
HETATM   21  N   UNL     1      -5.744  17.495  69.224  1.00  0.00    -0.193 NA 
HETATM   22  H   UNL     1      -5.046  17.436  69.965  1.00  0.00     0.000 HD 
BRANCH  21  23
HETATM   23  C   UNL     1      -5.883  18.679  68.417  1.00  0.00    -0.199 C  
BRANCH  23  24
HETATM   24  C   UNL     1      -6.077  19.814  69.372  1.00  0.00    -0.338 C  
HETATM   25  C   UNL     1      -5.624  21.063  69.187  1.00  0.00    -0.343 C  
ENDBRANCH  23  24
ENDBRANCH  21  23
ENDBRANCH  17  21
BRANCH  20  26
HETATM   26  N   UNL     1      -9.977  16.140  68.179  1.00  0.00    -0.227 NA 
HETATM   27  H   UNL     1     -10.756  15.633  68.599  1.00  0.00     0.000 HD 
BRANCH  26  28
HETATM   28  C   UNL     1     -10.224  17.257  67.301  1.00  0.00    -0.320 C  
BRANCH  28  29
HETATM   29  C   UNL     1     -10.784  18.387  68.126  1.00  0.00    -0.208 C  
HETATM   30  C   UNL     1     -10.051  19.316  68.756  1.00  0.00    -0.477 C  
ENDBRANCH  28  29
ENDBRANCH  26  28
ENDBRANCH  20  26
ENDBRANCH  14  15
ENDBRANCH   8   9
BRANCH   8  31
HETATM   31  C   UNL     1      -8.515   9.863  66.552  1.00  0.00    -0.127 A  
HETATM   32  C   UNL     1     -10.265  10.932  64.629  1.00  0.00    -0.345 A  
HETATM   33  C   UNL     1      -9.116  10.270  64.225  1.00  0.00    -0.278 A  
HETATM   34  F   UNL     1     -11.075  11.481  63.712  1.00  0.00    -0.389 F  
HETATM   35  C   UNL     1      -9.711  10.501  66.934  1.00  0.00    -0.218 A  
HETATM   36  C   UNL     1      -8.252   9.725  65.180  1.00  0.00    -0.140 A  
HETATM   37  C   UNL     1     -10.579  11.039  65.976  1.00  0.00    -0.275 A  
ENDBRANCH   8  31
ENDBRANCH   5   8
TORSDOF 10
ENDMDL
MODEL      184
REMARK 921   NORMALIZED FREE ENERGY PREDICTED BY IDOCK:   -2.92 KCAL/MOL
REMARK 922        TOTAL FREE ENERGY PREDICTED BY IDOCK:   -5.97 KCAL/MOL
REMARK 923 INTER-LIGAND FREE ENERGY PREDICTED BY IDOCK:   -6.52 KCAL/MOL
REMARK 924 INTRA-LIGAND FREE ENERGY PREDICTED BY IDOCK:    0.55 KCAL/MOL
REMARK 927      BINDING AFFINITY PREDICTED BY RF-SCORE:    0.00 PKD
ROOT
HETATM    1  F   UNL     1      -9.576  18.375  66.441  1.00  0.00    -0.293 F  
HETATM    2  C   UNL     1      -9.632  17.118  66.900  1.00  0.00    -0.262 A  
HETATM    3  C   UNL     1      -8.706  16.184  66.451  1.00  0.00    -0.360 A  
HETATM    4  C   UNL     1      -8.779  14.863  66.903  1.00  0.00    -0.276 A  
HETATM    5  C   UNL     1      -9.779  14.469  67.814  1.00  0.00    -0.216 A  
HETATM    6  C   UNL     1     -10.679  15.447  68.281  1.00  0.00    -0.260 A  
HETATM    7  C   UNL     1     -10.610  16.765  67.819  1.00  0.00    -0.341 A  
ENDROOT
BRANCH   5   8
HETATM    8  C   UNL     1      -9.868  13.003  68.275  1.00  0.00    -0.225 C  
BRANCH   8   9
HETATM    9  N   UNL     1     -11.096  12.328  67.768  1.00  0.00    -0.240 NA 
HETATM   10  C   UNL     1     -11.764  11.467  68.796  1.00  0.00    -0.339 C  
HETATM   11  C   UNL     1     -11.167  10.049  69.040  1.00  0.00    -0.133 C  
HETATM   12  C   UNL     1     -10.863  11.482  66.564  1.00  0.00    -0.288 C  
HETATM   13  C   UNL     1     -10.164  10.130  66.825  1.00  0.00    -0.228 C  
HETATM   14  N   UNL     1     -10.995   9.358  67.755  1.00  0.00    -0.155 NA 
BRANCH  14  15
HETATM   15  C   UNL     1     -10.608   8.027  67.918  1.00  0.00    -0.145 A  
HETATM   16  N   UNL     1     -10.664   7.219  66.870  1.00  0.00    -0.335 NA 
HETATM   17  C   UNL     1     -10.319   5.959  67.075  1.00  0.00    -0.243 A  
HETATM   18  N   UNL     1     -10.208   7.630  69.124  1.00  0.00    -0.199 NA 
HETATM   19  N   UNL     1      -9.975   5.466  68.254  1.00  0.00    -0.150 NA 
HETATM   20  C   UNL     1      -9.894   6.344  69.244  1.00  0.00    -0.147 A  
BRANCH  17  21
HETATM   21  N   UNL     1     -10.233   5.092  66.002  1.00  0.00    -0.362 NA 
HETATM   22  H   UNL     1     -11.029   4.525  65.712  1.00  0.00     0.000 HD 
BRANCH  21  23
HETATM   23  C   UNL     1      -8.972   5.024  65.311  1.00  0.00    -0.151 C  
BRANCH  23  24
HETATM   24  C   UNL     1      -8.632   3.570  65.205  1.00  0.00    -0.112 C  
HETATM   25  C   UNL     1      -8.948   2.638  66.116  1.00  0.00    -0.139 C  
ENDBRANCH  23  24
ENDBRANCH  21  23
ENDBRANCH  17  21
BRANCH  20  26
HETATM   26  N   UNL     1      -9.346   5.855  70.416  1.00  0.00    -0.157 NA 
HETATM   27  H   UNL     1      -9.115   4.864  70.503  1.00  0.00     0.000 HD 
BRANCH  26  28
HETATM   28  C   UNL     1      -9.104   6.758  71.513  1.00  0.00    -0.145 C  
BRANCH  28  29
HETATM   29  C   UNL     1     -10.081   6.433  72.613  1.00  0.00    -0.193 C  
HETATM   30  C   UNL     1     -11.273   7.023  72.782  1.00  0.00    -0.294 C  
ENDBRANCH  28  29
ENDBRANCH  26  28
ENDBRANCH  20  26
ENDBRANCH  14  15
ENDBRANCH   8   9
BRANCH   8  31
HETATM   31  C   UNL     1      -8.548  12.268  67.934  1.00  0.00    -0.169 A  
HETATM   32  C   UNL     1      -6.215  10.814  67.346  1.00  0.00    -0.055 A  
HETATM   33  C   UNL     1      -6.777  11.636  66.382  1.00  0.00     0.131 A  
HETATM   34  F   UNL     1      -5.129  10.086  67.048  1.00  0.00    -0.038 F  
HETATM   35  C   UNL     1      -7.932  11.459  68.907  1.00  0.00    -0.085 A  
HETATM   36  C   UNL     1      -7.929  12.371  66.677  1.00  0.00     0.144 A  
HETATM   37  C   UNL     1      -6.773  10.730  68.612  1.00  0.00    -0.058 A  
ENDBRANCH   8  31
ENDBRANCH   5   8
TORSDOF 10
ENDMDL
MODEL      185
REMARK 921   NORMALIZED FREE ENERGY PREDICTED BY IDOCK:   -2.91 KCAL/MOL
REMARK 922        TOTAL FREE ENERGY PREDICTED BY IDOCK:   -5.95 KCAL/MOL
REMARK 923 INTER-LIGAND FREE ENERGY PREDICTED BY IDOCK:   -6.12 KCAL/MOL
REMARK 924 INTRA-LIGAND FREE ENERGY PREDICTED BY IDOCK:    0.17 KCAL/MOL
REMARK 927      BINDING AFFINITY PREDICTED BY RF-SCORE:    0.00 PKD
ROOT
HETATM    1  F   UNL     1     -13.089  11.509  62.678  1.00  0.00    -0.261 F  
HETATM    2  C   UNL     1     -12.393  12.175  63.609  1.00  0.00    -0.568 A  
HETATM    3  C   UNL     1     -11.089  12.572  63.336  1.00  0.00    -0.419 A  
HETATM    4  C   UNL     1     -10.350  13.240  64.315  1.00  0.00    -0.315 A  
HETATM    5  C   UNL     1     -10.912  13.521  65.575  1.00  0.00    -0.295 A  
HETATM    6  C   UNL     1     -12.249  13.142  65.809  1.00  0.00    -0.514 A  
HETATM    7  C   UNL     1     -12.984  12.464  64.831  1.00  0.00     0.111 A  
ENDROOT
BRANCH   5   8
HETATM    8  C   UNL     1     -10.072  14.227  66.656  1.00  0.00    -0.273 C  
BRANCH   8   9
HETATM    9  N   UNL     1      -8.638  13.825  66.604  1.00  0.00    -0.026 NA 
HETATM   10  C   UNL     1      -8.430  12.451  66.043  1.00  0.00     0.533 C  
HETATM   11  C   UNL     1      -8.665  11.244  67.000  1.00  0.00    -0.152 C  
HETATM   12  C   UNL     1      -7.952  13.874  67.925  1.00  0.00    -0.160 C  
HETATM   13  C   UNL     1      -8.294  12.723  68.896  1.00  0.00     0.281 C  
HETATM   14  N   UNL     1      -7.926  11.457  68.252  1.00  0.00    -0.128 NA 
BRANCH  14  15
HETATM   15  C   UNL     1      -7.972  10.341  69.089  1.00  0.00    -0.135 A  
HETATM   16  N   UNL     1      -6.875   9.611  69.229  1.00  0.00    -0.049 NA 
HETATM   17  C   UNL     1      -6.971   8.544  70.006  1.00  0.00    -0.043 A  
HETATM   18  N   UNL     1      -9.119  10.059  69.702  1.00  0.00    -0.216 NA 
HETATM   19  N   UNL     1      -8.089   8.153  70.596  1.00  0.00    -0.101 NA 
HETATM   20  C   UNL     1      -9.130   8.960  70.451  1.00  0.00    -0.190 A  
BRANCH  17  21
HETATM   21  N   UNL     1      -5.837   7.809  70.296  1.00  0.00    -0.023 NA 
HETATM   22  H   UNL     1      -5.328   7.939  71.171  1.00  0.00     0.000 HD 
BRANCH  21  23
HETATM   23  C   UNL     1      -5.405   6.851  69.312  1.00  0.00    -0.014 C  
BRANCH  23  24
HETATM   24  C   UNL     1      -6.425   5.756  69.321  1.00  0.00    -0.046 C  
HETATM   25  C   UNL     1      -7.333   5.543  68.358  1.00  0.00    -0.076 C  
ENDBRANCH  23  24
ENDBRANCH  21  23
ENDBRANCH  17  21
BRANCH  20  26
HETATM   26  N   UNL     1     -10.227   8.645  71.230  1.00  0.00    -0.218 NA 
HETATM   27  H   UNL     1     -11.143   8.509  70.801  1.00  0.00     0.000 HD 
BRANCH  26  28
HETATM   28  C   UNL     1     -10.065   8.510  72.657  1.00  0.00    -0.183 C  
BRANCH  28  29
HETATM   29  C   UNL     1      -9.760   7.066  72.960  1.00  0.00    -0.198 C  
HETATM   30  C   UNL     1      -9.822   6.506  74.176  1.00  0.00    -0.318 C  
ENDBRANCH  28  29
ENDBRANCH  26  28
ENDBRANCH  20  26
ENDBRANCH  14  15
ENDBRANCH   8   9
BRANCH   8  31
HETATM   31  C   UNL     1     -10.309  15.756  66.584  1.00  0.00    -0.292 A  
HETATM   32  C   UNL     1     -10.621  18.549  66.524  1.00  0.00    -0.334 A  
HETATM   33  C   UNL     1     -10.603  17.831  65.338  1.00  0.00     0.074 A  
HETATM   34  F   UNL     1     -10.724  19.886  66.490  1.00  0.00    -0.536 F  
HETATM   35  C   UNL     1     -10.375  16.505  67.774  1.00  0.00    -0.291 A  
HETATM   36  C   UNL     1     -10.463  16.440  65.367  1.00  0.00    -0.333 A  
HETATM   37  C   UNL     1     -10.524  17.897  67.744  1.00  0.00    -0.409 A  
ENDBRANCH   8  31
ENDBRANCH   5   8
TORSDOF 10
ENDMDL
MODEL      186
REMARK 921   NORMALIZED FREE ENERGY PREDICTED BY IDOCK:   -2.89 KCAL/MOL
REMARK 922        TOTAL FREE ENERGY PREDICTED BY IDOCK:   -5.93 KCAL/MOL
REMARK 923 INTER-LIGAND FREE ENERGY PREDICTED BY IDOCK:   -7.10 KCAL/MOL
REMARK 924 INTRA-LIGAND FREE ENERGY PREDICTED BY IDOCK:    1.17 KCAL/MOL
REMARK 927      BINDING AFFINITY PREDICTED BY RF-SCORE:    0.00 PKD
ROOT
HETATM    1  F   UNL     1      -5.913  17.649  69.364  1.00  0.00    -0.188 F  
HETATM    2  C   UNL     1      -6.173  16.399  68.960  1.00  0.00    -0.158 A  
HETATM    3  C   UNL     1      -5.143  15.614  68.456  1.00  0.00    -0.094 A  
HETATM    4  C   UNL     1      -5.416  14.319  68.006  1.00  0.00    -0.120 A  
HETATM    5  C   UNL     1      -6.723  13.799  68.061  1.00  0.00    -0.140 A  
HETATM    6  C   UNL     1      -7.739  14.603  68.613  1.00  0.00    -0.135 A  
HETATM    7  C   UNL     1      -7.466  15.903  69.054  1.00  0.00    -0.194 A  
ENDROOT
BRANCH   5   8
HETATM    8  C   UNL     1      -7.014  12.384  67.528  1.00  0.00    -0.142 C  
BRANCH   8   9
HETATM    9  N   UNL     1      -6.549  11.324  68.467  1.00  0.00    -0.058 NA 
HETATM   10  C   UNL     1      -6.175  10.047  67.777  1.00  0.00    -0.054 C  
HETATM   11  C   UNL     1      -7.332   9.087  67.371  1.00  0.00    -0.084 C  
HETATM   12  C   UNL     1      -7.539  10.982  69.525  1.00  0.00     0.007 C  
HETATM   13  C   UNL     1      -8.737  10.123  69.065  1.00  0.00    -0.161 C  
HETATM   14  N   UNL     1      -8.215   8.863  68.524  1.00  0.00    -0.115 NA 
BRANCH  14  15
HETATM   15  C   UNL     1      -9.184   7.891  68.268  1.00  0.00    -0.137 A  
HETATM   16  N   UNL     1     -10.094   7.646  69.198  1.00  0.00    -0.189 NA 
HETATM   17  C   UNL     1     -10.973   6.695  68.928  1.00  0.00    -0.267 A  
HETATM   18  N   UNL     1      -9.141   7.251  67.102  1.00  0.00    -0.127 NA 
HETATM   19  N   UNL     1     -10.961   5.964  67.825  1.00  0.00    -0.241 NA 
HETATM   20  C   UNL     1     -10.053   6.301  66.920  1.00  0.00    -0.183 A  
BRANCH  17  21
HETATM   21  N   UNL     1     -12.025   6.472  69.798  1.00  0.00    -0.556 NA 
HETATM   22  H   UNL     1     -12.913   6.091  69.472  1.00  0.00     0.000 HD 
BRANCH  21  23
HETATM   23  C   UNL     1     -11.813   6.801  71.183  1.00  0.00    -0.360 C  
BRANCH  23  24
HETATM   24  C   UNL     1     -12.933   7.714  71.571  1.00  0.00    -0.378 C  
HETATM   25  C   UNL     1     -12.849   8.689  72.487  1.00  0.00    -0.352 C  
ENDBRANCH  23  24
ENDBRANCH  21  23
ENDBRANCH  17  21
BRANCH  20  26
HETATM   26  N   UNL     1     -10.180   5.664  65.700  1.00  0.00    -0.307 NA 
HETATM   27  H   UNL     1     -10.219   6.207  64.837  1.00  0.00     0.000 HD 
BRANCH  26  28
HETATM   28  C   UNL     1     -10.257   4.224  65.659  1.00  0.00    -0.197 C  
BRANCH  28  29
HETATM   29  C   UNL     1      -9.058   3.670  66.384  1.00  0.00    -0.162 C  
HETATM   30  C   UNL     1      -9.109   2.791  67.395  1.00  0.00    -0.208 C  
ENDBRANCH  28  29
ENDBRANCH  26  28
ENDBRANCH  20  26
ENDBRANCH  14  15
ENDBRANCH   8   9
BRANCH   8  31
HETATM   31  C   UNL     1      -8.507  12.274  67.129  1.00  0.00    -0.184 A  
HETATM   32  C   UNL     1     -11.223  12.213  66.406  1.00  0.00    -0.331 A  
HETATM   33  C   UNL     1     -10.282  11.577  65.611  1.00  0.00    -0.292 A  
HETATM   34  F   UNL     1     -12.511  12.221  66.035  1.00  0.00    -0.374 F  
HETATM   35  C   UNL     1      -9.488  12.873  67.942  1.00  0.00    -0.208 A  
HETATM   36  C   UNL     1      -8.933  11.594  65.977  1.00  0.00    -0.149 A  
HETATM   37  C   UNL     1     -10.840  12.848  67.578  1.00  0.00    -0.256 A  
ENDBRANCH   8  31
ENDBRANCH   5   8
TORSDOF 10
ENDMDL
MODEL      187
REMARK 921   NORMALIZED FREE ENERGY PREDICTED BY IDOCK:   -2.85 KCAL/MOL
REMARK 922        TOTAL FREE ENERGY PREDICTED BY IDOCK:   -5.86 KCAL/MOL
REMARK 923 INTER-LIGAND FREE ENERGY PREDICTED BY IDOCK:   -5.62 KCAL/MOL
REMARK 924 INTRA-LIGAND FREE ENERGY PREDICTED BY IDOCK:   -0.24 KCAL/MOL
REMARK 927      BINDING AFFINITY PREDICTED BY RF-SCORE:    0.00 PKD
ROOT
HETATM    1  F   UNL     1      -6.430  18.706  69.487  1.00  0.00    -0.263 F  
HETATM    2  C   UNL     1      -6.541  17.471  68.982  1.00  0.00    -0.243 A  
HETATM    3  C   UNL     1      -7.076  17.295  67.712  1.00  0.00    -0.173 A  
HETATM    4  C   UNL     1      -7.222  16.005  67.194  1.00  0.00    -0.257 A  
HETATM    5  C   UNL     1      -6.828  14.880  67.944  1.00  0.00    -0.171 A  
HETATM    6  C   UNL     1      -6.252  15.092  69.212  1.00  0.00    -0.111 A  
HETATM    7  C   UNL     1      -6.117  16.383  69.733  1.00  0.00    -0.212 A  
ENDROOT
BRANCH   5   8
HETATM    8  C   UNL     1      -7.027  13.464  67.374  1.00  0.00    -0.083 C  
BRANCH   8   9
HETATM    9  N   UNL     1      -6.213  12.447  68.098  1.00  0.00    -0.059 NA 
HETATM   10  C   UNL     1      -5.313  11.659  67.194  1.00  0.00    -0.104 C  
HETATM   11  C   UNL     1      -5.951  10.483  66.397  1.00  0.00    -0.084 C  
HETATM   12  C   UNL     1      -7.024  11.472  68.877  1.00  0.00    -0.100 C  
HETATM   13  C   UNL     1      -7.738  10.384  68.045  1.00  0.00    -0.092 C  
HETATM   14  N   UNL     1      -6.718   9.626  67.312  1.00  0.00    -0.071 NA 
BRANCH  14  15
HETATM   15  C   UNL     1      -7.186   8.470  66.685  1.00  0.00    -0.074 A  
HETATM   16  N   UNL     1      -8.476   8.181  66.774  1.00  0.00    -0.121 NA 
HETATM   17  C   UNL     1      -8.872   7.061  66.193  1.00  0.00    -0.147 A  
HETATM   18  N   UNL     1      -6.311   7.708  66.034  1.00  0.00    -0.042 NA 
HETATM   19  N   UNL     1      -8.059   6.212  65.585  1.00  0.00    -0.121 NA 
HETATM   20  C   UNL     1      -6.793   6.592  65.493  1.00  0.00    -0.052 A  
BRANCH  17  21
HETATM   21  N   UNL     1     -10.221   6.761  66.139  1.00  0.00    -0.364 NA 
HETATM   22  H   UNL     1     -10.624   6.266  65.343  1.00  0.00     0.000 HD 
BRANCH  21  23
HETATM   23  C   UNL     1     -11.032   7.178  67.253  1.00  0.00    -0.263 C  
BRANCH  23  24
HETATM   24  C   UNL     1     -10.905   6.103  68.286  1.00  0.00    -0.387 C  
HETATM   25  C   UNL     1     -11.264   6.224  69.572  1.00  0.00    -0.500 C  
ENDBRANCH  23  24
ENDBRANCH  21  23
ENDBRANCH  17  21
BRANCH  20  26
HETATM   26  N   UNL     1      -6.000   5.796  64.688  1.00  0.00    -0.024 NA 
HETATM   27  H   UNL     1      -5.080   6.120  64.388  1.00  0.00     0.000 HD 
BRANCH  26  28
HETATM   28  C   UNL     1      -6.487   4.502  64.277  1.00  0.00    -0.038 C  
BRANCH  28  29
HETATM   29  C   UNL     1      -5.360   3.773  63.593  1.00  0.00    -0.009 C  
HETATM   30  C   UNL     1      -5.439   2.531  63.093  1.00  0.00    -0.008 C  
ENDBRANCH  28  29
ENDBRANCH  26  28
ENDBRANCH  20  26
ENDBRANCH  14  15
ENDBRANCH   8   9
BRANCH   8  31
HETATM   31  C   UNL     1      -8.540  13.138  67.305  1.00  0.00    -0.210 A  
HETATM   32  C   UNL     1     -11.311  12.684  67.171  1.00  0.00    -0.319 A  
HETATM   33  C   UNL     1     -10.468  12.082  66.250  1.00  0.00    -0.273 A  
HETATM   34  F   UNL     1     -12.636  12.502  67.077  1.00  0.00    -0.036 F  
HETATM   35  C   UNL     1      -9.415  13.701  68.254  1.00  0.00    -0.213 A  
HETATM   36  C   UNL     1      -9.088  12.296  66.324  1.00  0.00    -0.125 A  
HETATM   37  C   UNL     1     -10.796  13.480  68.182  1.00  0.00    -0.271 A  
ENDBRANCH   8  31
ENDBRANCH   5   8
TORSDOF 10
ENDMDL
MODEL      188
REMARK 921   NORMALIZED FREE ENERGY PREDICTED BY IDOCK:   -2.83 KCAL/MOL
REMARK 922        TOTAL FREE ENERGY PREDICTED BY IDOCK:   -5.83 KCAL/MOL
REMARK 923 INTER-LIGAND FREE ENERGY PREDICTED BY IDOCK:   -6.25 KCAL/MOL
REMARK 924 INTRA-LIGAND FREE ENERGY PREDICTED BY IDOCK:    0.42 KCAL/MOL
REMARK 927      BINDING AFFINITY PREDICTED BY RF-SCORE:    0.00 PKD
ROOT
HETATM    1  F   UNL     1      -8.308   3.483  65.000  1.00  0.00    -0.095 F  
HETATM    2  C   UNL     1      -8.767   4.691  65.349  1.00  0.00    -0.134 A  
HETATM    3  C   UNL     1      -8.019   5.822  65.043  1.00  0.00    -0.121 A  
HETATM    4  C   UNL     1      -8.479   7.083  65.433  1.00  0.00    -0.093 A  
HETATM    5  C   UNL     1      -9.696   7.222  66.129  1.00  0.00     0.029 A  
HETATM    6  C   UNL     1     -10.451   6.062  66.390  1.00  0.00    -0.141 A  
HETATM    7  C   UNL     1      -9.983   4.800  66.009  1.00  0.00    -0.255 A  
ENDROOT
BRANCH   5   8
HETATM    8  C   UNL     1     -10.172   8.614  66.582  1.00  0.00    -0.273 C  
BRANCH   8   9
HETATM    9  N   UNL     1      -9.651   8.974  67.932  1.00  0.00    -0.145 NA 
HETATM   10  C   UNL     1     -10.735   9.180  68.946  1.00  0.00    -0.141 C  
HETATM   11  C   UNL     1     -11.471  10.552  68.938  1.00  0.00    -0.226 C  
HETATM   12  C   UNL     1      -8.797  10.193  67.941  1.00  0.00    -0.125 C  
HETATM   13  C   UNL     1      -9.550  11.536  67.816  1.00  0.00    -0.175 C  
HETATM   14  N   UNL     1     -10.485  11.642  68.941  1.00  0.00    -0.203 NA 
BRANCH  14  15
HETATM   15  C   UNL     1     -11.082  12.895  69.089  1.00  0.00    -0.190 A  
HETATM   16  N   UNL     1     -12.204  12.982  69.787  1.00  0.00    -0.228 NA 
HETATM   17  C   UNL     1     -12.753  14.182  69.876  1.00  0.00    -0.029 A  
HETATM   18  N   UNL     1     -10.497  13.943  68.514  1.00  0.00    -0.246 NA 
HETATM   19  N   UNL     1     -12.277  15.262  69.279  1.00  0.00    -0.234 NA 
HETATM   20  C   UNL     1     -11.126  15.108  68.640  1.00  0.00    -0.271 A  
BRANCH  17  21
HETATM   21  N   UNL     1     -13.854  14.369  70.691  1.00  0.00    -0.254 NA 
HETATM   22  H   UNL     1     -14.547  13.633  70.827  1.00  0.00     0.000 HD 
BRANCH  21  23
HETATM   23  C   UNL     1     -13.981  15.648  71.340  1.00  0.00    -0.184 C  
BRANCH  23  24
HETATM   24  C   UNL     1     -13.483  15.457  72.739  1.00  0.00    -0.637 C  
HETATM   25  C   UNL     1     -12.666  14.472  73.137  1.00  0.00    -0.497 C  
ENDBRANCH  23  24
ENDBRANCH  21  23
ENDBRANCH  17  21
BRANCH  20  26
HETATM   26  N   UNL     1     -10.543  16.279  68.193  1.00  0.00    -0.294 NA 
HETATM   27  H   UNL     1     -10.265  17.003  68.857  1.00  0.00     0.000 HD 
BRANCH  26  28
HETATM   28  C   UNL     1     -10.333  16.468  66.779  1.00  0.00    -0.296 C  
BRANCH  28  29
HETATM   29  C   UNL     1      -9.284  17.535  66.599  1.00  0.00    -0.277 C  
HETATM   30  C   UNL     1      -8.183  17.666  67.353  1.00  0.00    -0.221 C  
ENDBRANCH  28  29
ENDBRANCH  26  28
ENDBRANCH  20  26
ENDBRANCH  14  15
ENDBRANCH   8   9
BRANCH   8  31
HETATM   31  C   UNL     1      -9.859   9.656  65.479  1.00  0.00    -0.352 A  
HETATM   32  C   UNL     1      -9.241  11.444  63.399  1.00  0.00    -0.137 A  
HETATM   33  C   UNL     1     -10.539  11.366  63.880  1.00  0.00    -0.452 A  
HETATM   34  F   UNL     1      -8.959  12.264  62.377  1.00  0.00     0.570 F  
HETATM   35  C   UNL     1      -8.541   9.787  65.002  1.00  0.00    -0.178 A  
HETATM   36  C   UNL     1     -10.845  10.488  64.924  1.00  0.00     0.235 A  
HETATM   37  C   UNL     1      -8.235  10.673  63.961  1.00  0.00     0.020 A  
ENDBRANCH   8  31
ENDBRANCH   5   8
TORSDOF 10
ENDMDL
MODEL      189
REMARK 921   NORMALIZED FREE ENERGY PREDICTED BY IDOCK:   -2.83 KCAL/MOL
REMARK 922        TOTAL FREE ENERGY PREDICTED BY IDOCK:   -5.82 KCAL/MOL
REMARK 923 INTER-LIGAND FREE ENERGY PREDICTED BY IDOCK:   -7.23 KCAL/MOL
REMARK 924 INTRA-LIGAND FREE ENERGY PREDICTED BY IDOCK:    1.41 KCAL/MOL
REMARK 927      BINDING AFFINITY PREDICTED BY RF-SCORE:    0.00 PKD
ROOT
HETATM    1  F   UNL     1      -5.127  11.514  69.002  1.00  0.00    -0.045 F  
HETATM    2  C   UNL     1      -6.325  10.988  68.719  1.00  0.00    -0.049 A  
HETATM    3  C   UNL     1      -7.285  10.892  69.721  1.00  0.00    -0.061 A  
HETATM    4  C   UNL     1      -8.526  10.316  69.437  1.00  0.00    -0.170 A  
HETATM    5  C   UNL     1      -8.818   9.835  68.146  1.00  0.00    -0.119 A  
HETATM    6  C   UNL     1      -7.841   9.982  67.142  1.00  0.00    -0.099 A  
HETATM    7  C   UNL     1      -6.595  10.549  67.431  1.00  0.00    -0.067 A  
ENDROOT
BRANCH   5   8
HETATM    8  C   UNL     1     -10.177   9.171  67.859  1.00  0.00    -0.216 C  
BRANCH   8   9
HETATM    9  N   UNL     1     -11.110  10.087  67.143  1.00  0.00    -0.115 NA 
HETATM   10  C   UNL     1     -10.526  10.660  65.887  1.00  0.00    -0.174 C  
HETATM   11  C   UNL     1      -9.557  11.870  66.036  1.00  0.00    -0.235 C  
HETATM   12  C   UNL     1     -11.585  11.228  67.972  1.00  0.00    -0.272 C  
HETATM   13  C   UNL     1     -10.561  12.362  68.196  1.00  0.00    -0.216 C  
HETATM   14  N   UNL     1     -10.176  12.897  66.886  1.00  0.00    -0.240 NA 
BRANCH  14  15
HETATM   15  C   UNL     1      -9.422  14.070  66.931  1.00  0.00    -0.265 A  
HETATM   16  N   UNL     1      -8.198  14.016  67.433  1.00  0.00    -0.184 NA 
HETATM   17  C   UNL     1      -7.530  15.157  67.487  1.00  0.00    -0.198 A  
HETATM   18  N   UNL     1      -9.975  15.192  66.474  1.00  0.00    -0.255 NA 
HETATM   19  N   UNL     1      -8.028  16.327  67.119  1.00  0.00    -0.169 NA 
HETATM   20  C   UNL     1      -9.239  16.294  66.581  1.00  0.00    -0.244 A  
BRANCH  17  21
HETATM   21  N   UNL     1      -6.206  15.153  67.882  1.00  0.00    -0.146 NA 
HETATM   22  H   UNL     1      -5.532  14.504  67.476  1.00  0.00     0.000 HD 
BRANCH  21  23
HETATM   23  C   UNL     1      -5.818  16.106  68.890  1.00  0.00    -0.118 C  
BRANCH  23  24
HETATM   24  C   UNL     1      -6.282  15.543  70.196  1.00  0.00    -0.099 C  
HETATM   25  C   UNL     1      -5.889  14.369  70.712  1.00  0.00    -0.195 C  
ENDBRANCH  23  24
ENDBRANCH  21  23
ENDBRANCH  17  21
BRANCH  20  26
HETATM   26  N   UNL     1      -9.663  17.486  66.023  1.00  0.00    -0.516 NA 
HETATM   27  H   UNL     1      -9.524  17.668  65.029  1.00  0.00     0.000 HD 
BRANCH  26  28
HETATM   28  C   UNL     1     -10.303  18.470  66.862  1.00  0.00    -0.397 C  
BRANCH  28  29
HETATM   29  C   UNL     1      -9.302  19.555  67.160  1.00  0.00    -0.409 C  
HETATM   30  C   UNL     1      -9.520  20.868  67.001  1.00  0.00    -0.279 C  
ENDBRANCH  28  29
ENDBRANCH  26  28
ENDBRANCH  20  26
ENDBRANCH  14  15
ENDBRANCH   8   9
BRANCH   8  31
HETATM   31  C   UNL     1      -9.954   7.810  67.154  1.00  0.00    -0.298 A  
HETATM   32  C   UNL     1      -9.428   5.326  65.945  1.00  0.00    -0.142 A  
HETATM   33  C   UNL     1     -10.612   5.519  66.641  1.00  0.00    -0.365 A  
HETATM   34  F   UNL     1      -9.160   4.127  65.409  1.00  0.00    -0.120 F  
HETATM   35  C   UNL     1      -8.780   7.600  66.405  1.00  0.00    -0.166 A  
HETATM   36  C   UNL     1     -10.881   6.758  67.230  1.00  0.00    -0.443 A  
HETATM   37  C   UNL     1      -8.516   6.361  65.809  1.00  0.00    -0.148 A  
ENDBRANCH   8  31
ENDBRANCH   5   8
TORSDOF 10
ENDMDL
MODEL      190
REMARK 921   NORMALIZED FREE ENERGY PREDICTED BY IDOCK:   -2.75 KCAL/MOL
REMARK 922        TOTAL FREE ENERGY PREDICTED BY IDOCK:   -5.70 KCAL/MOL
REMARK 923 INTER-LIGAND FREE ENERGY PREDICTED BY IDOCK:   -6.73 KCAL/MOL
REMARK 924 INTRA-LIGAND FREE ENERGY PREDICTED BY IDOCK:    1.03 KCAL/MOL
REMARK 927      BINDING AFFINITY PREDICTED BY RF-SCORE:    0.00 PKD
ROOT
HETATM    1  F   UNL     1     -13.573  15.363  73.492  1.00  0.00    -0.493 F  
HETATM    2  C   UNL     1     -13.001  15.471  72.286  1.00  0.00    -0.416 A  
HETATM    3  C   UNL     1     -13.618  14.895  71.181  1.00  0.00    -0.467 A  
HETATM    4  C   UNL     1     -13.009  14.980  69.926  1.00  0.00     0.072 A  
HETATM    5  C   UNL     1     -11.779  15.646  69.766  1.00  0.00    -0.368 A  
HETATM    6  C   UNL     1     -11.197  16.254  70.896  1.00  0.00    -0.267 A  
HETATM    7  C   UNL     1     -11.803  16.159  72.154  1.00  0.00    -0.626 A  
ENDROOT
BRANCH   5   8
HETATM    8  C   UNL     1     -11.104  15.701  68.384  1.00  0.00    -0.326 C  
BRANCH   8   9
HETATM    9  N   UNL     1      -9.716  16.240  68.457  1.00  0.00    -0.217 NA 
HETATM   10  C   UNL     1      -8.936  16.036  67.193  1.00  0.00    -0.202 C  
HETATM   11  C   UNL     1      -8.306  14.631  66.960  1.00  0.00    -0.185 C  
HETATM   12  C   UNL     1      -8.909  15.673  69.573  1.00  0.00    -0.213 C  
HETATM   13  C   UNL     1      -8.394  14.233  69.358  1.00  0.00     0.336 C  
HETATM   14  N   UNL     1      -7.555  14.222  68.155  1.00  0.00    -0.121 NA 
BRANCH  14  15
HETATM   15  C   UNL     1      -6.840  13.041  67.951  1.00  0.00    -0.130 A  
HETATM   16  N   UNL     1      -6.627  12.637  66.708  1.00  0.00     0.116 NA 
HETATM   17  C   UNL     1      -5.973  11.497  66.561  1.00  0.00    -0.101 A  
HETATM   18  N   UNL     1      -6.413  12.372  69.019  1.00  0.00    -0.090 NA 
HETATM   19  N   UNL     1      -5.574  10.735  67.567  1.00  0.00    -0.043 NA 
HETATM   20  C   UNL     1      -5.778  11.228  68.780  1.00  0.00    -0.042 A  
BRANCH  17  21
HETATM   21  N   UNL     1      -5.607  11.080  65.295  1.00  0.00    -0.422 NA 
HETATM   22  H   UNL     1      -4.769  11.440  64.838  1.00  0.00     0.000 HD 
BRANCH  21  23
HETATM   23  C   UNL     1      -6.457  10.113  64.650  1.00  0.00    -0.125 C  
BRANCH  23  24
HETATM   24  C   UNL     1      -6.367  10.393  63.183  1.00  0.00    -0.109 C  
HETATM   25  C   UNL     1      -7.388  10.792  62.411  1.00  0.00    -0.119 C  
ENDBRANCH  23  24
ENDBRANCH  21  23
ENDBRANCH  17  21
BRANCH  20  26
HETATM   26  N   UNL     1      -5.182  10.520  69.807  1.00  0.00    -0.038 NA 
HETATM   27  H   UNL     1      -4.253  10.779  70.140  1.00  0.00     0.000 HD 
BRANCH  26  28
HETATM   28  C   UNL     1      -5.886   9.411  70.402  1.00  0.00    -0.044 C  
BRANCH  28  29
HETATM   29  C   UNL     1      -5.341   9.200  71.790  1.00  0.00    -0.057 C  
HETATM   30  C   UNL     1      -6.062   8.794  72.846  1.00  0.00    -0.059 C  
ENDBRANCH  28  29
ENDBRANCH  26  28
ENDBRANCH  20  26
ENDBRANCH  14  15
ENDBRANCH   8   9
BRANCH   8  31
HETATM   31  C   UNL     1     -11.215  14.318  67.695  1.00  0.00    -0.321 A  
HETATM   32  C   UNL     1     -11.324  11.851  66.351  1.00  0.00    -0.339 A  
HETATM   33  C   UNL     1     -11.002  11.889  67.699  1.00  0.00    -0.286 A  
HETATM   34  F   UNL     1     -11.331  10.678  65.701  1.00  0.00     0.034 F  
HETATM   35  C   UNL     1     -11.582  14.246  66.337  1.00  0.00    -0.381 A  
HETATM   36  C   UNL     1     -10.962  13.114  68.372  1.00  0.00    -0.287 A  
HETATM   37  C   UNL     1     -11.630  13.018  65.667  1.00  0.00    -0.391 A  
ENDBRANCH   8  31
ENDBRANCH   5   8
TORSDOF 10
ENDMDL
MODEL      191
REMARK 921   NORMALIZED FREE ENERGY PREDICTED BY IDOCK:   -2.74 KCAL/MOL
REMARK 922        TOTAL FREE ENERGY PREDICTED BY IDOCK:   -5.69 KCAL/MOL
REMARK 923 INTER-LIGAND FREE ENERGY PREDICTED BY IDOCK:   -5.98 KCAL/MOL
REMARK 924 INTRA-LIGAND FREE ENERGY PREDICTED BY IDOCK:    0.29 KCAL/MOL
REMARK 927      BINDING AFFINITY PREDICTED BY RF-SCORE:    0.00 PKD
ROOT
HETATM    1  F   UNL     1      -9.261  10.987  62.452  1.00  0.00    -0.286 F  
HETATM    2  C   UNL     1      -9.294  10.853  63.784  1.00  0.00    -0.248 A  
HETATM    3  C   UNL     1     -10.459  11.168  64.475  1.00  0.00    -0.415 A  
HETATM    4  C   UNL     1     -10.488  11.058  65.868  1.00  0.00    -0.300 A  
HETATM    5  C   UNL     1      -9.352  10.627  66.580  1.00  0.00    -0.192 A  
HETATM    6  C   UNL     1      -8.200  10.276  65.849  1.00  0.00    -0.148 A  
HETATM    7  C   UNL     1      -8.169  10.397  64.456  1.00  0.00    -0.131 A  
ENDROOT
BRANCH   5   8
HETATM    8  C   UNL     1      -9.390  10.545  68.117  1.00  0.00    -0.148 C  
BRANCH   8   9
HETATM    9  N   UNL     1      -8.033  10.352  68.702  1.00  0.00    -0.108 NA 
HETATM   10  C   UNL     1      -7.240   9.282  68.015  1.00  0.00    -0.079 C  
HETATM   11  C   UNL     1      -7.544   7.805  68.404  1.00  0.00    -0.109 C  
HETATM   12  C   UNL     1      -8.046  10.030  70.156  1.00  0.00    -0.073 C  
HETATM   13  C   UNL     1      -8.462   8.588  70.516  1.00  0.00    -0.137 C  
HETATM   14  N   UNL     1      -7.525   7.665  69.866  1.00  0.00    -0.081 NA 
BRANCH  14  15
HETATM   15  C   UNL     1      -7.638   6.335  70.272  1.00  0.00    -0.096 A  
HETATM   16  N   UNL     1      -7.812   6.079  71.560  1.00  0.00    -0.104 NA 
HETATM   17  C   UNL     1      -7.882   4.804  71.906  1.00  0.00    -0.100 A  
HETATM   18  N   UNL     1      -7.557   5.384  69.344  1.00  0.00    -0.076 NA 
HETATM   19  N   UNL     1      -7.743   3.797  71.059  1.00  0.00    -0.047 NA 
HETATM   20  C   UNL     1      -7.622   4.130  69.782  1.00  0.00    -0.053 A  
BRANCH  17  21
HETATM   21  N   UNL     1      -8.188   4.468  73.211  1.00  0.00    -0.099 NA 
HETATM   22  H   UNL     1      -7.948   3.554  73.594  1.00  0.00     0.000 HD 
BRANCH  21  23
HETATM   23  C   UNL     1      -8.858   5.463  74.006  1.00  0.00    -0.120 C  
BRANCH  23  24
HETATM   24  C   UNL     1     -10.135   5.776  73.292  1.00  0.00    -0.202 C  
HETATM   25  C   UNL     1     -11.065   4.875  72.945  1.00  0.00    -0.329 C  
ENDBRANCH  23  24
ENDBRANCH  21  23
ENDBRANCH  17  21
BRANCH  20  26
HETATM   26  N   UNL     1      -7.677   3.072  68.894  1.00  0.00    -0.047 NA 
HETATM   27  H   UNL     1      -7.116   3.084  68.041  1.00  0.00     0.000 HD 
BRANCH  26  28
HETATM   28  C   UNL     1      -8.535   1.950  69.185  1.00  0.00    -0.055 C  
BRANCH  28  29
HETATM   29  C   UNL     1      -9.466   1.756  68.016  1.00  0.00    -0.192 C  
HETATM   30  C   UNL     1      -9.146   1.975  66.733  1.00  0.00    -0.085 C  
ENDBRANCH  28  29
ENDBRANCH  26  28
ENDBRANCH  20  26
ENDBRANCH  14  15
ENDBRANCH   8   9
BRANCH   8  31
HETATM   31  C   UNL     1     -10.163  11.760  68.685  1.00  0.00    -0.211 A  
HETATM   32  C   UNL     1     -11.591  14.009  69.585  1.00  0.00    -0.289 A  
HETATM   33  C   UNL     1     -11.980  12.739  69.984  1.00  0.00    -0.371 A  
HETATM   34  F   UNL     1     -12.301  15.076  69.979  1.00  0.00    -0.323 F  
HETATM   35  C   UNL     1      -9.764  13.064  68.331  1.00  0.00    -0.192 A  
HETATM   36  C   UNL     1     -11.262  11.621  69.548  1.00  0.00    -0.282 A  
HETATM   37  C   UNL     1     -10.480  14.183  68.775  1.00  0.00    -0.249 A  
ENDBRANCH   8  31
ENDBRANCH   5   8
TORSDOF 10
ENDMDL
MODEL      192
REMARK 921   NORMALIZED FREE ENERGY PREDICTED BY IDOCK:   -2.74 KCAL/MOL
REMARK 922        TOTAL FREE ENERGY PREDICTED BY IDOCK:   -5.68 KCAL/MOL
REMARK 923 INTER-LIGAND FREE ENERGY PREDICTED BY IDOCK:   -7.15 KCAL/MOL
REMARK 924 INTRA-LIGAND FREE ENERGY PREDICTED BY IDOCK:    1.47 KCAL/MOL
REMARK 927      BINDING AFFINITY PREDICTED BY RF-SCORE:    0.00 PKD
ROOT
HETATM    1  F   UNL     1      -5.848   9.516  73.991  1.00  0.00    -0.097 F  
HETATM    2  C   UNL     1      -6.806   8.674  73.583  1.00  0.00     0.022 A  
HETATM    3  C   UNL     1      -7.679   8.126  74.515  1.00  0.00    -0.285 A  
HETATM    4  C   UNL     1      -8.661   7.224  74.098  1.00  0.00    -0.253 A  
HETATM    5  C   UNL     1      -8.779   6.866  72.741  1.00  0.00    -0.133 A  
HETATM    6  C   UNL     1      -7.906   7.467  71.813  1.00  0.00    -0.090 A  
HETATM    7  C   UNL     1      -6.917   8.362  72.235  1.00  0.00    -0.106 A  
ENDROOT
BRANCH   5   8
HETATM    8  C   UNL     1      -9.843   5.843  72.302  1.00  0.00    -0.160 C  
BRANCH   8   9
HETATM    9  N   UNL     1     -11.139   6.494  71.957  1.00  0.00    -0.246 NA 
HETATM   10  C   UNL     1     -11.457   6.436  70.494  1.00  0.00    -0.379 C  
HETATM   11  C   UNL     1     -10.764   7.480  69.569  1.00  0.00    -0.217 C  
HETATM   12  C   UNL     1     -11.224   7.921  72.374  1.00  0.00    -0.350 C  
HETATM   13  C   UNL     1     -10.431   8.918  71.502  1.00  0.00    -0.323 C  
HETATM   14  N   UNL     1     -10.937   8.827  70.128  1.00  0.00    -0.238 NA 
BRANCH  14  15
HETATM   15  C   UNL     1     -10.470   9.822  69.266  1.00  0.00    -0.219 A  
HETATM   16  N   UNL     1     -11.237  10.188  68.250  1.00  0.00    -0.229 NA 
HETATM   17  C   UNL     1     -10.744  11.110  67.440  1.00  0.00    -0.250 A  
HETATM   18  N   UNL     1      -9.272  10.349  69.503  1.00  0.00    -0.167 NA 
HETATM   19  N   UNL     1      -9.536  11.636  67.562  1.00  0.00    -0.170 NA 
HETATM   20  C   UNL     1      -8.848  11.258  68.630  1.00  0.00    -0.141 A  
BRANCH  17  21
HETATM   21  N   UNL     1     -11.538  11.628  66.434  1.00  0.00    -0.446 NA 
HETATM   22  H   UNL     1     -12.547  11.483  66.424  1.00  0.00     0.000 HD 
BRANCH  21  23
HETATM   23  C   UNL     1     -10.878  12.383  65.400  1.00  0.00    -0.285 C  
BRANCH  23  24
HETATM   24  C   UNL     1     -11.917  13.293  64.822  1.00  0.00    -0.431 C  
HETATM   25  C   UNL     1     -12.861  13.931  65.528  1.00  0.00    -0.471 C  
ENDBRANCH  23  24
ENDBRANCH  21  23
ENDBRANCH  17  21
BRANCH  20  26
HETATM   26  N   UNL     1      -7.678  11.961  68.851  1.00  0.00    -0.303 NA 
HETATM   27  H   UNL     1      -7.644  12.969  68.692  1.00  0.00     0.000 HD 
BRANCH  26  28
HETATM   28  C   UNL     1      -6.506  11.255  69.307  1.00  0.00    -0.089 C  
BRANCH  28  29
HETATM   29  C   UNL     1      -5.548  12.263  69.887  1.00  0.00    -0.112 C  
HETATM   30  C   UNL     1      -5.900  13.442  70.418  1.00  0.00    -0.162 C  
ENDBRANCH  28  29
ENDBRANCH  26  28
ENDBRANCH  20  26
ENDBRANCH  14  15
ENDBRANCH   8   9
BRANCH   8  31
HETATM   31  C   UNL     1      -9.267   4.938  71.185  1.00  0.00    -0.191 A  
HETATM   32  C   UNL     1      -8.098   3.297  69.224  1.00  0.00    -0.052 A  
HETATM   33  C   UNL     1      -9.227   2.865  69.902  1.00  0.00    -0.216 A  
HETATM   34  F   UNL     1      -7.516   2.494  68.321  1.00  0.00    -0.047 F  
HETATM   35  C   UNL     1      -8.146   5.370  70.451  1.00  0.00    -0.101 A  
HETATM   36  C   UNL     1      -9.818   3.686  70.867  1.00  0.00    -0.159 A  
HETATM   37  C   UNL     1      -7.560   4.550  69.478  1.00  0.00    -0.055 A  
ENDBRANCH   8  31
ENDBRANCH   5   8
TORSDOF 10
ENDMDL
MODEL      193
REMARK 921   NORMALIZED FREE ENERGY PREDICTED BY IDOCK:   -2.62 KCAL/MOL
REMARK 922        TOTAL FREE ENERGY PREDICTED BY IDOCK:   -5.50 KCAL/MOL
REMARK 923 INTER-LIGAND FREE ENERGY PREDICTED BY IDOCK:   -7.17 KCAL/MOL
REMARK 924 INTRA-LIGAND FREE ENERGY PREDICTED BY IDOCK:    1.67 KCAL/MOL
REMARK 927      BINDING AFFINITY PREDICTED BY RF-SCORE:    0.00 PKD
ROOT
HETATM    1  F   UNL     1     -10.717   3.988  64.521  1.00  0.00    -0.255 F  
HETATM    2  C   UNL     1     -10.084   4.438  65.612  1.00  0.00    -0.241 A  
HETATM    3  C   UNL     1      -8.945   3.781  66.063  1.00  0.00    -0.136 A  
HETATM    4  C   UNL     1      -8.299   4.229  67.219  1.00  0.00    -0.100 A  
HETATM    5  C   UNL     1      -8.788   5.342  67.930  1.00  0.00    -0.105 A  
HETATM    6  C   UNL     1      -9.920   6.012  67.427  1.00  0.00    -0.165 A  
HETATM    7  C   UNL     1     -10.571   5.555  66.276  1.00  0.00    -0.222 A  
ENDROOT
BRANCH   5   8
HETATM    8  C   UNL     1      -8.085   5.802  69.221  1.00  0.00    -0.101 C  
BRANCH   8   9
HETATM    9  N   UNL     1      -7.071   6.862  68.962  1.00  0.00    -0.085 NA 
HETATM   10  C   UNL     1      -7.155   8.008  69.924  1.00  0.00    -0.057 C  
HETATM   11  C   UNL     1      -8.249   9.085  69.661  1.00  0.00    -0.116 C  
HETATM   12  C   UNL     1      -7.134   7.431  67.587  1.00  0.00    -0.085 C  
HETATM   13  C   UNL     1      -8.300   8.410  67.325  1.00  0.00    -0.123 C  
HETATM   14  N   UNL     1      -8.177   9.531  68.263  1.00  0.00    -0.113 NA 
BRANCH  14  15
HETATM   15  C   UNL     1      -9.030  10.605  68.006  1.00  0.00    -0.140 A  
HETATM   16  N   UNL     1      -8.642  11.526  67.137  1.00  0.00    -0.150 NA 
HETATM   17  C   UNL     1      -9.465  12.544  66.947  1.00  0.00    -0.219 A  
HETATM   18  N   UNL     1     -10.192  10.656  68.653  1.00  0.00    -0.173 NA 
HETATM   19  N   UNL     1     -10.606  12.707  67.598  1.00  0.00    -0.216 NA 
HETATM   20  C   UNL     1     -10.951  11.721  68.413  1.00  0.00    -0.231 A  
BRANCH  17  21
HETATM   21  N   UNL     1      -9.183  13.475  65.965  1.00  0.00    -0.483 NA 
HETATM   22  H   UNL     1      -8.370  13.377  65.357  1.00  0.00     0.000 HD 
BRANCH  21  23
HETATM   23  C   UNL     1     -10.087  14.588  65.836  1.00  0.00    -0.326 C  
BRANCH  23  24
HETATM   24  C   UNL     1     -11.050  14.220  64.752  1.00  0.00    -0.398 C  
HETATM   25  C   UNL     1     -12.004  15.025  64.264  1.00  0.00    -0.310 C  
ENDBRANCH  23  24
ENDBRANCH  21  23
ENDBRANCH  17  21
BRANCH  20  26
HETATM   26  N   UNL     1     -12.229  11.811  68.932  1.00  0.00    -0.326 NA 
HETATM   27  H   UNL     1     -13.025  11.983  68.316  1.00  0.00     0.000 HD 
BRANCH  26  28
HETATM   28  C   UNL     1     -12.427  11.660  70.353  1.00  0.00    -0.221 C  
BRANCH  28  29
HETATM   29  C   UNL     1     -12.182  12.995  71.005  1.00  0.00    -0.232 C  
HETATM   30  C   UNL     1     -13.109  13.947  71.184  1.00  0.00    -0.351 C  
ENDBRANCH  28  29
ENDBRANCH  26  28
ENDBRANCH  20  26
ENDBRANCH  14  15
ENDBRANCH   8   9
BRANCH   8  31
HETATM   31  C   UNL     1      -9.146   6.180  70.285  1.00  0.00    -0.158 A  
HETATM   32  C   UNL     1     -10.987   6.971  72.257  1.00  0.00    -0.245 A  
HETATM   33  C   UNL     1     -11.384   6.902  70.930  1.00  0.00    -0.348 A  
HETATM   34  F   UNL     1     -11.855   7.392  73.189  1.00  0.00    -0.176 F  
HETATM   35  C   UNL     1      -8.783   6.216  71.645  1.00  0.00    -0.135 A  
HETATM   36  C   UNL     1     -10.473   6.496  69.950  1.00  0.00    -0.258 A  
HETATM   37  C   UNL     1      -9.699   6.616  72.626  1.00  0.00    -0.171 A  
ENDBRANCH   8  31
ENDBRANCH   5   8
TORSDOF 10
ENDMDL
MODEL      194
REMARK 921   NORMALIZED FREE ENERGY PREDICTED BY IDOCK:   -2.60 KCAL/MOL
REMARK 922        TOTAL FREE ENERGY PREDICTED BY IDOCK:   -5.47 KCAL/MOL
REMARK 923 INTER-LIGAND FREE ENERGY PREDICTED BY IDOCK:   -6.22 KCAL/MOL
REMARK 924 INTRA-LIGAND FREE ENERGY PREDICTED BY IDOCK:    0.75 KCAL/MOL
REMARK 927      BINDING AFFINITY PREDICTED BY RF-SCORE:    0.00 PKD
ROOT
HETATM    1  F   UNL     1     -10.058   8.930  72.168  1.00  0.00    -0.368 F  
HETATM    2  C   UNL     1      -9.913   9.328  70.898  1.00  0.00    -0.297 A  
HETATM    3  C   UNL     1     -11.035   9.449  70.086  1.00  0.00    -0.282 A  
HETATM    4  C   UNL     1     -10.885   9.835  68.751  1.00  0.00    -0.219 A  
HETATM    5  C   UNL     1      -9.609  10.108  68.220  1.00  0.00    -0.150 A  
HETATM    6  C   UNL     1      -8.495  10.015  69.077  1.00  0.00    -0.147 A  
HETATM    7  C   UNL     1      -8.647   9.618  70.410  1.00  0.00    -0.200 A  
ENDROOT
BRANCH   5   8
HETATM    8  C   UNL     1      -9.457  10.498  66.738  1.00  0.00    -0.163 C  
BRANCH   8   9
HETATM    9  N   UNL     1      -9.367   9.304  65.850  1.00  0.00    -0.217 NA 
HETATM   10  C   UNL     1     -10.114   8.118  66.378  1.00  0.00    -0.126 C  
HETATM   11  C   UNL     1      -9.419   7.266  67.481  1.00  0.00    -0.129 C  
HETATM   12  C   UNL     1      -7.971   8.864  65.576  1.00  0.00    -0.107 C  
HETATM   13  C   UNL     1      -7.267   8.121  66.732  1.00  0.00    -0.082 C  
HETATM   14  N   UNL     1      -8.054   6.925  67.054  1.00  0.00    -0.115 NA 
BRANCH  14  15
HETATM   15  C   UNL     1      -7.433   6.035  67.931  1.00  0.00    -0.085 A  
HETATM   16  N   UNL     1      -6.791   4.993  67.424  1.00  0.00    -0.055 NA 
HETATM   17  C   UNL     1      -6.244   4.157  68.291  1.00  0.00    -0.032 A  
HETATM   18  N   UNL     1      -7.522   6.272  69.238  1.00  0.00    -0.091 NA 
HETATM   19  N   UNL     1      -6.343   4.280  69.605  1.00  0.00    -0.027 NA 
HETATM   20  C   UNL     1      -6.956   5.373  70.037  1.00  0.00    -0.060 A  
BRANCH  17  21
HETATM   21  N   UNL     1      -5.455   3.119  67.832  1.00  0.00    -0.017 NA 
HETATM   22  H   UNL     1      -4.486   3.271  67.553  1.00  0.00     0.000 HD 
BRANCH  21  23
HETATM   23  C   UNL     1      -6.059   1.814  67.764  1.00  0.00    -0.024 C  
BRANCH  23  24
HETATM   24  C   UNL     1      -7.508   2.009  68.083  1.00  0.00    -0.050 C  
HETATM   25  C   UNL     1      -8.527   1.471  67.398  1.00  0.00    -0.092 C  
ENDBRANCH  23  24
ENDBRANCH  21  23
ENDBRANCH  17  21
BRANCH  20  26
HETATM   26  N   UNL     1      -6.878   5.586  71.401  1.00  0.00    -0.059 NA 
HETATM   27  H   UNL     1      -6.230   6.279  71.778  1.00  0.00     0.000 HD 
BRANCH  26  28
HETATM   28  C   UNL     1      -7.721   4.820  72.285  1.00  0.00    -0.090 C  
BRANCH  28  29
HETATM   29  C   UNL     1      -9.122   4.839  71.731  1.00  0.00    -0.166 C  
HETATM   30  C   UNL     1     -10.129   5.580  72.213  1.00  0.00    -0.225 C  
ENDBRANCH  28  29
ENDBRANCH  26  28
ENDBRANCH  20  26
ENDBRANCH  14  15
ENDBRANCH   8   9
BRANCH   8  31
HETATM   31  C   UNL     1     -10.570  11.501  66.347  1.00  0.00    -0.304 A  
HETATM   32  C   UNL     1     -12.499  13.427  65.657  1.00  0.00    -0.464 A  
HETATM   33  C   UNL     1     -12.187  12.412  64.765  1.00  0.00    -0.493 A  
HETATM   34  F   UNL     1     -13.386  14.370  65.307  1.00  0.00    -0.383 F  
HETATM   35  C   UNL     1     -10.938  12.517  67.250  1.00  0.00    -0.300 A  
HETATM   36  C   UNL     1     -11.238  11.445  65.113  1.00  0.00    -0.146 A  
HETATM   37  C   UNL     1     -11.894  13.480  66.903  1.00  0.00    -0.452 A  
ENDBRANCH   8  31
ENDBRANCH   5   8
TORSDOF 10
ENDMDL
MODEL      195
REMARK 921   NORMALIZED FREE ENERGY PREDICTED BY IDOCK:   -2.46 KCAL/MOL
REMARK 922        TOTAL FREE ENERGY PREDICTED BY IDOCK:   -5.25 KCAL/MOL
REMARK 923 INTER-LIGAND FREE ENERGY PREDICTED BY IDOCK:   -4.77 KCAL/MOL
REMARK 924 INTRA-LIGAND FREE ENERGY PREDICTED BY IDOCK:   -0.47 KCAL/MOL
REMARK 927      BINDING AFFINITY PREDICTED BY RF-SCORE:    0.00 PKD
ROOT
HETATM    1  F   UNL     1     -11.002   6.988  69.158  1.00  0.00    -0.231 F  
HETATM    2  C   UNL     1     -10.145   7.105  68.136  1.00  0.00    -0.169 A  
HETATM    3  C   UNL     1     -10.357   8.084  67.173  1.00  0.00    -0.395 A  
HETATM    4  C   UNL     1      -9.482   8.191  66.088  1.00  0.00    -0.217 A  
HETATM    5  C   UNL     1      -8.384   7.319  65.962  1.00  0.00    -0.140 A  
HETATM    6  C   UNL     1      -8.171   6.362  66.974  1.00  0.00    -0.113 A  
HETATM    7  C   UNL     1      -9.054   6.251  68.053  1.00  0.00    -0.112 A  
ENDROOT
BRANCH   5   8
HETATM    8  C   UNL     1      -7.449   7.426  64.743  1.00  0.00    -0.088 C  
BRANCH   8   9
HETATM    9  N   UNL     1      -6.178   8.132  65.070  1.00  0.00    -0.048 NA 
HETATM   10  C   UNL     1      -5.946   8.277  66.544  1.00  0.00    -0.045 C  
HETATM   11  C   UNL     1      -6.696   9.429  67.276  1.00  0.00    -0.075 C  
HETATM   12  C   UNL     1      -6.072   9.489  64.468  1.00  0.00    -0.082 C  
HETATM   13  C   UNL     1      -6.918  10.588  65.148  1.00  0.00    -0.023 C  
HETATM   14  N   UNL     1      -6.494  10.690  66.549  1.00  0.00    -0.097 NA 
BRANCH  14  15
HETATM   15  C   UNL     1      -7.013  11.787  67.238  1.00  0.00    -0.138 A  
HETATM   16  N   UNL     1      -6.192  12.773  67.567  1.00  0.00    -0.155 NA 
HETATM   17  C   UNL     1      -6.718  13.778  68.247  1.00  0.00    -0.109 A  
HETATM   18  N   UNL     1      -8.310  11.786  67.539  1.00  0.00    -0.147 NA 
HETATM   19  N   UNL     1      -7.979  13.825  68.646  1.00  0.00    -0.126 NA 
HETATM   20  C   UNL     1      -8.751  12.828  68.237  1.00  0.00    -0.168 A  
BRANCH  17  21
HETATM   21  N   UNL     1      -5.950  14.896  68.514  1.00  0.00    -0.089 NA 
HETATM   22  H   UNL     1      -5.850  15.258  69.462  1.00  0.00     0.000 HD 
BRANCH  21  23
HETATM   23  C   UNL     1      -5.298  15.528  67.397  1.00  0.00     0.130 C  
BRANCH  23  24
HETATM   24  C   UNL     1      -5.900  16.893  67.280  1.00  0.00    -0.198 C  
HETATM   25  C   UNL     1      -6.977  17.199  66.543  1.00  0.00    -0.296 C  
ENDBRANCH  23  24
ENDBRANCH  21  23
ENDBRANCH  17  21
BRANCH  20  26
HETATM   26  N   UNL     1     -10.100  12.991  68.492  1.00  0.00    -0.326 NA 
HETATM   27  H   UNL     1     -10.414  13.357  69.391  1.00  0.00     0.000 HD 
BRANCH  26  28
HETATM   28  C   UNL     1     -11.058  12.638  67.474  1.00  0.00    -0.272 C  
BRANCH  28  29
HETATM   29  C   UNL     1     -11.850  13.872  67.126  1.00  0.00    -0.445 C  
HETATM   30  C   UNL     1     -11.634  15.093  67.637  1.00  0.00    -0.290 C  
ENDBRANCH  28  29
ENDBRANCH  26  28
ENDBRANCH  20  26
ENDBRANCH  14  15
ENDBRANCH   8   9
BRANCH   8  31
HETATM   31  C   UNL     1      -7.257   6.026  64.110  1.00  0.00    -0.057 A  
HETATM   32  C   UNL     1      -6.905   3.430  63.088  1.00  0.00    -0.032 A  
HETATM   33  C   UNL     1      -7.992   4.189  62.685  1.00  0.00    -0.067 A  
HETATM   34  F   UNL     1      -6.764   2.176  62.634  1.00  0.00    -0.018 F  
HETATM   35  C   UNL     1      -6.138   5.249  64.468  1.00  0.00    -0.022 A  
HETATM   36  C   UNL     1      -8.161   5.485  63.181  1.00  0.00    -0.097 A  
HETATM   37  C   UNL     1      -5.967   3.954  63.964  1.00  0.00    -0.014 A  
ENDBRANCH   8  31
ENDBRANCH   5   8
TORSDOF 10
ENDMDL
MODEL      196
REMARK 921   NORMALIZED FREE ENERGY PREDICTED BY IDOCK:   -2.46 KCAL/MOL
REMARK 922        TOTAL FREE ENERGY PREDICTED BY IDOCK:   -5.24 KCAL/MOL
REMARK 923 INTER-LIGAND FREE ENERGY PREDICTED BY IDOCK:   -4.73 KCAL/MOL
REMARK 924 INTRA-LIGAND FREE ENERGY PREDICTED BY IDOCK:   -0.51 KCAL/MOL
REMARK 927      BINDING AFFINITY PREDICTED BY RF-SCORE:    0.00 PKD
ROOT
HETATM    1  F   UNL     1      -7.507   8.657  74.309  1.00  0.00    -0.229 F  
HETATM    2  C   UNL     1      -8.060   8.671  73.089  1.00  0.00     0.117 A  
HETATM    3  C   UNL     1      -7.245   8.793  71.969  1.00  0.00    -0.022 A  
HETATM    4  C   UNL     1      -7.820   8.838  70.696  1.00  0.00    -0.112 A  
HETATM    5  C   UNL     1      -9.216   8.758  70.534  1.00  0.00    -0.218 A  
HETATM    6  C   UNL     1     -10.014   8.595  71.684  1.00  0.00    -0.353 A  
HETATM    7  C   UNL     1      -9.437   8.561  72.958  1.00  0.00    -0.127 A  
ENDROOT
BRANCH   5   8
HETATM    8  C   UNL     1      -9.836   8.845  69.127  1.00  0.00    -0.180 C  
BRANCH   8   9
HETATM    9  N   UNL     1     -10.857   7.784  68.897  1.00  0.00    -0.070 NA 
HETATM   10  C   UNL     1     -10.848   6.718  69.950  1.00  0.00    -0.266 C  
HETATM   11  C   UNL     1      -9.763   5.606  69.833  1.00  0.00    -0.168 C  
HETATM   12  C   UNL     1     -10.731   7.106  67.577  1.00  0.00    -0.274 C  
HETATM   13  C   UNL     1      -9.573   6.091  67.457  1.00  0.00    -0.113 C  
HETATM   14  N   UNL     1      -9.769   5.051  68.473  1.00  0.00    -0.146 NA 
BRANCH  14  15
HETATM   15  C   UNL     1      -8.925   3.946  68.349  1.00  0.00    -0.121 A  
HETATM   16  N   UNL     1      -8.810   3.369  67.163  1.00  0.00    -0.123 NA 
HETATM   17  C   UNL     1      -8.026   2.306  67.096  1.00  0.00    -0.070 A  
HETATM   18  N   UNL     1      -8.280   3.521  69.433  1.00  0.00    -0.052 NA 
HETATM   19  N   UNL     1      -7.403   1.776  68.137  1.00  0.00    -0.043 NA 
HETATM   20  C   UNL     1      -7.525   2.438  69.279  1.00  0.00    -0.043 A  
BRANCH  17  21
HETATM   21  N   UNL     1      -7.762   1.729  65.868  1.00  0.00    -0.066 NA 
HETATM   22  H   UNL     1      -6.965   1.108  65.732  1.00  0.00     0.000 HD 
BRANCH  21  23
HETATM   23  C   UNL     1      -8.662   2.042  64.788  1.00  0.00    -0.106 C  
BRANCH  23  24
HETATM   24  C   UNL     1      -7.801   2.446  63.632  1.00  0.00    -0.068 C  
HETATM   25  C   UNL     1      -7.212   3.642  63.492  1.00  0.00    -0.050 C  
ENDBRANCH  23  24
ENDBRANCH  21  23
ENDBRANCH  17  21
BRANCH  20  26
HETATM   26  N   UNL     1      -6.714   1.988  70.304  1.00  0.00    -0.032 NA 
HETATM   27  H   UNL     1      -6.330   1.042  70.281  1.00  0.00     0.000 HD 
BRANCH  26  28
HETATM   28  C   UNL     1      -6.416   2.868  71.407  1.00  0.00    -0.019 C  
BRANCH  28  29
HETATM   29  C   UNL     1      -7.474   2.673  72.462  1.00  0.00    -0.047 C  
HETATM   30  C   UNL     1      -8.031   1.497  72.784  1.00  0.00    -0.044 C  
ENDBRANCH  28  29
ENDBRANCH  26  28
ENDBRANCH  20  26
ENDBRANCH  14  15
ENDBRANCH   8   9
BRANCH   8  31
HETATM   31  C   UNL     1     -10.345  10.286  68.871  1.00  0.00    -0.221 A  
HETATM   32  C   UNL     1     -11.221  12.889  68.273  1.00  0.00    -0.270 A  
HETATM   33  C   UNL     1     -12.120  11.953  68.761  1.00  0.00    -0.182 A  
HETATM   34  F   UNL     1     -11.651  14.117  67.946  1.00  0.00    -0.287 F  
HETATM   35  C   UNL     1      -9.445  11.269  68.416  1.00  0.00    -0.192 A  
HETATM   36  C   UNL     1     -11.683  10.662  69.072  1.00  0.00    -0.305 A  
HETATM   37  C   UNL     1      -9.883  12.564  68.113  1.00  0.00    -0.221 A  
ENDBRANCH   8  31
ENDBRANCH   5   8
TORSDOF 10
ENDMDL
MODEL      197
REMARK 921   NORMALIZED FREE ENERGY PREDICTED BY IDOCK:   -2.44 KCAL/MOL
REMARK 922        TOTAL FREE ENERGY PREDICTED BY IDOCK:   -5.21 KCAL/MOL
REMARK 923 INTER-LIGAND FREE ENERGY PREDICTED BY IDOCK:   -5.63 KCAL/MOL
REMARK 924 INTRA-LIGAND FREE ENERGY PREDICTED BY IDOCK:    0.42 KCAL/MOL
REMARK 927      BINDING AFFINITY PREDICTED BY RF-SCORE:    0.00 PKD
ROOT
HETATM    1  F   UNL     1     -14.329  15.151  72.809  1.00  0.00    -0.478 F  
HETATM    2  C   UNL     1     -13.377  14.885  71.906  1.00  0.00    -0.363 A  
HETATM    3  C   UNL     1     -13.059  13.563  71.614  1.00  0.00    -0.459 A  
HETATM    4  C   UNL     1     -12.046  13.282  70.694  1.00  0.00    -0.361 A  
HETATM    5  C   UNL     1     -11.344  14.323  70.055  1.00  0.00    -0.224 A  
HETATM    6  C   UNL     1     -11.715  15.651  70.341  1.00  0.00    -0.379 A  
HETATM    7  C   UNL     1     -12.723  15.931  71.270  1.00  0.00    -0.376 A  
ENDROOT
BRANCH   5   8
HETATM    8  C   UNL     1     -10.206  13.996  69.071  1.00  0.00    -0.089 C  
BRANCH   8   9
HETATM    9  N   UNL     1      -9.620  12.648  69.318  1.00  0.00     0.622 NA 
HETATM   10  C   UNL     1      -8.233  12.499  68.771  1.00  0.00     0.116 C  
HETATM   11  C   UNL     1      -8.092  12.207  67.247  1.00  0.00    -0.176 C  
HETATM   12  C   UNL     1     -10.435  11.529  68.771  1.00  0.00    -0.204 C  
HETATM   13  C   UNL     1     -10.363  11.337  67.240  1.00  0.00    -0.201 C  
HETATM   14  N   UNL     1      -8.965  11.086  66.876  1.00  0.00    -0.155 NA 
BRANCH  14  15
HETATM   15  C   UNL     1      -8.769  10.677  65.556  1.00  0.00    -0.188 A  
HETATM   16  N   UNL     1      -9.717  10.933  64.668  1.00  0.00    -0.256 NA 
HETATM   17  C   UNL     1      -9.506  10.501  63.436  1.00  0.00    -0.316 A  
HETATM   18  N   UNL     1      -7.639  10.041  65.254  1.00  0.00    -0.131 NA 
HETATM   19  N   UNL     1      -8.444   9.802  63.066  1.00  0.00    -0.163 NA 
HETATM   20  C   UNL     1      -7.516   9.628  63.996  1.00  0.00    -0.128 A  
BRANCH  17  21
HETATM   21  N   UNL     1     -10.393  10.841  62.432  1.00  0.00    -0.549 NA 
HETATM   22  H   UNL     1     -10.528  10.243  61.616  1.00  0.00     0.000 HD 
BRANCH  21  23
HETATM   23  C   UNL     1     -11.119  12.075  62.586  1.00  0.00     1.049 C  
BRANCH  23  24
HETATM   24  C   UNL     1     -12.536  11.691  62.875  1.00  0.00     0.297 C  
HETATM   25  C   UNL     1     -13.136  11.802  64.068  1.00  0.00     0.089 C  
ENDBRANCH  23  24
ENDBRANCH  21  23
ENDBRANCH  17  21
BRANCH  20  26
HETATM   26  N   UNL     1      -6.333   9.072  63.546  1.00  0.00    -0.089 NA 
HETATM   27  H   UNL     1      -6.200   8.879  62.552  1.00  0.00     0.000 HD 
BRANCH  26  28
HETATM   28  C   UNL     1      -5.289   8.768  64.493  1.00  0.00    -0.050 C  
BRANCH  28  29
HETATM   29  C   UNL     1      -5.306   7.284  64.750  1.00  0.00    -0.029 C  
HETATM   30  C   UNL     1      -5.546   6.346  63.822  1.00  0.00    -0.022 C  
ENDBRANCH  28  29
ENDBRANCH  26  28
ENDBRANCH  20  26
ENDBRANCH  14  15
ENDBRANCH   8   9
BRANCH   8  31
HETATM   31  C   UNL     1     -10.692  14.224  67.618  1.00  0.00    -0.259 A  
HETATM   32  C   UNL     1     -11.667  14.730  65.030  1.00  0.00    -0.364 A  
HETATM   33  C   UNL     1     -10.320  14.906  65.307  1.00  0.00    -0.424 A  
HETATM   34  F   UNL     1     -12.137  15.016  63.807  1.00  0.00    -0.298 F  
HETATM   35  C   UNL     1     -12.046  14.012  67.298  1.00  0.00    -0.405 A  
HETATM   36  C   UNL     1      -9.831  14.641  66.590  1.00  0.00    -0.280 A  
HETATM   37  C   UNL     1     -12.533  14.270  66.010  1.00  0.00    -0.392 A  
ENDBRANCH   8  31
ENDBRANCH   5   8
TORSDOF 10
ENDMDL
MODEL      198
REMARK 921   NORMALIZED FREE ENERGY PREDICTED BY IDOCK:   -2.33 KCAL/MOL
REMARK 922        TOTAL FREE ENERGY PREDICTED BY IDOCK:   -5.04 KCAL/MOL
REMARK 923 INTER-LIGAND FREE ENERGY PREDICTED BY IDOCK:   -4.52 KCAL/MOL
REMARK 924 INTRA-LIGAND FREE ENERGY PREDICTED BY IDOCK:   -0.52 KCAL/MOL
REMARK 927      BINDING AFFINITY PREDICTED BY RF-SCORE:    0.00 PKD
ROOT
HETATM    1  F   UNL     1     -10.931  10.610  63.701  1.00  0.00    -0.221 F  
HETATM    2  C   UNL     1     -10.383  11.040  64.844  1.00  0.00    -0.313 A  
HETATM    3  C   UNL     1      -9.558  12.158  64.830  1.00  0.00     0.000 A  
HETATM    4  C   UNL     1      -8.960  12.592  66.016  1.00  0.00     0.201 A  
HETATM    5  C   UNL     1      -9.188  11.912  67.228  1.00  0.00    -0.179 A  
HETATM    6  C   UNL     1     -10.061  10.806  67.219  1.00  0.00    -0.233 A  
HETATM    7  C   UNL     1     -10.650  10.367  66.028  1.00  0.00    -0.136 A  
ENDROOT
BRANCH   5   8
HETATM    8  C   UNL     1      -8.494  12.381  68.520  1.00  0.00    -0.069 C  
BRANCH   8   9
HETATM    9  N   UNL     1      -7.104  11.853  68.635  1.00  0.00    -0.096 NA 
HETATM   10  C   UNL     1      -6.705  10.987  67.479  1.00  0.00    -0.072 C  
HETATM   11  C   UNL     1      -7.196   9.509  67.488  1.00  0.00    -0.090 C  
HETATM   12  C   UNL     1      -6.860  11.073  69.879  1.00  0.00    -0.095 C  
HETATM   13  C   UNL     1      -7.458   9.650  69.903  1.00  0.00    -0.127 C  
HETATM   14  N   UNL     1      -6.884   8.893  68.785  1.00  0.00    -0.061 NA 
BRANCH  14  15
HETATM   15  C   UNL     1      -7.161   7.525  68.802  1.00  0.00    -0.080 A  
HETATM   16  N   UNL     1      -6.817   6.798  67.749  1.00  0.00    -0.077 NA 
HETATM   17  C   UNL     1      -7.126   5.513  67.792  1.00  0.00    -0.071 A  
HETATM   18  N   UNL     1      -7.765   7.018  69.874  1.00  0.00    -0.106 NA 
HETATM   19  N   UNL     1      -7.786   4.941  68.787  1.00  0.00    -0.077 NA 
HETATM   20  C   UNL     1      -8.052   5.720  69.826  1.00  0.00    -0.104 A  
BRANCH  17  21
HETATM   21  N   UNL     1      -6.688   4.672  66.787  1.00  0.00    -0.050 NA 
HETATM   22  H   UNL     1      -5.698   4.461  66.664  1.00  0.00     0.000 HD 
BRANCH  21  23
HETATM   23  C   UNL     1      -7.689   4.107  65.920  1.00  0.00    -0.090 C  
BRANCH  23  24
HETATM   24  C   UNL     1      -6.955   3.559  64.737  1.00  0.00    -0.056 C  
HETATM   25  C   UNL     1      -6.910   2.265  64.390  1.00  0.00    -0.042 C  
ENDBRANCH  23  24
ENDBRANCH  21  23
ENDBRANCH  17  21
BRANCH  20  26
HETATM   26  N   UNL     1      -8.561   5.066  70.932  1.00  0.00    -0.119 NA 
HETATM   27  H   UNL     1      -7.935   4.718  71.659  1.00  0.00     0.000 HD 
BRANCH  26  28
HETATM   28  C   UNL     1      -9.987   4.881  71.049  1.00  0.00    -0.212 C  
BRANCH  28  29
HETATM   29  C   UNL     1     -10.351   4.955  72.509  1.00  0.00    -0.256 C  
HETATM   30  C   UNL     1     -10.797   3.926  73.244  1.00  0.00    -0.297 C  
ENDBRANCH  28  29
ENDBRANCH  26  28
ENDBRANCH  20  26
ENDBRANCH  14  15
ENDBRANCH   8   9
BRANCH   8  31
HETATM   31  C   UNL     1      -8.602  13.922  68.639  1.00  0.00    -0.077 A  
HETATM   32  C   UNL     1      -8.712  16.729  68.748  1.00  0.00    -0.258 A  
HETATM   33  C   UNL     1      -9.882  15.997  68.613  1.00  0.00    -0.218 A  
HETATM   34  F   UNL     1      -8.763  18.069  68.753  1.00  0.00    -0.290 F  
HETATM   35  C   UNL     1      -7.435  14.688  68.820  1.00  0.00    -0.135 A  
HETATM   36  C   UNL     1      -9.830  14.600  68.573  1.00  0.00    -0.228 A  
HETATM   37  C   UNL     1      -7.489  16.086  68.867  1.00  0.00    -0.188 A  
ENDBRANCH   8  31
ENDBRANCH   5   8
TORSDOF 10
ENDMDL
MODEL      199
REMARK 921   NORMALIZED FREE ENERGY PREDICTED BY IDOCK:   -2.32 KCAL/MOL
REMARK 922        TOTAL FREE ENERGY PREDICTED BY IDOCK:   -5.02 KCAL/MOL
REMARK 923 INTER-LIGAND FREE ENERGY PREDICTED BY IDOCK:   -6.04 KCAL/MOL
REMARK 924 INTRA-LIGAND FREE ENERGY PREDICTED BY IDOCK:    1.02 KCAL/MOL
REMARK 927      BINDING AFFINITY PREDICTED BY RF-SCORE:    0.00 PKD
ROOT
HETATM    1  F   UNL     1     -11.066  16.598  71.098  1.00  0.00    -0.267 F  
HETATM    2  C   UNL     1     -11.087  15.517  70.308  1.00  0.00    -0.328 A  
HETATM    3  C   UNL     1     -10.046  14.598  70.378  1.00  0.00     0.705 A  
HETATM    4  C   UNL     1     -10.048  13.484  69.534  1.00  0.00     0.669 A  
HETATM    5  C   UNL     1     -11.097  13.278  68.617  1.00  0.00    -0.301 A  
HETATM    6  C   UNL     1     -12.157  14.205  68.596  1.00  0.00    -0.320 A  
HETATM    7  C   UNL     1     -12.147  15.325  69.434  1.00  0.00    -0.301 A  
ENDROOT
BRANCH   5   8
HETATM    8  C   UNL     1     -11.067  12.065  67.669  1.00  0.00    -0.264 C  
BRANCH   8   9
HETATM    9  N   UNL     1     -10.032  12.208  66.606  1.00  0.00    -0.204 NA 
HETATM   10  C   UNL     1      -8.755  12.813  67.103  1.00  0.00    -0.202 C  
HETATM   11  C   UNL     1      -8.711  14.362  67.260  1.00  0.00    -0.215 C  
HETATM   12  C   UNL     1     -10.480  13.013  65.437  1.00  0.00    -0.296 C  
HETATM   13  C   UNL     1     -10.535  14.540  65.661  1.00  0.00    -0.336 C  
HETATM   14  N   UNL     1      -9.190  14.998  66.025  1.00  0.00    -0.270 NA 
BRANCH  14  15
HETATM   15  C   UNL     1      -9.030  16.384  66.047  1.00  0.00    -0.272 A  
HETATM   16  N   UNL     1      -7.927  16.901  65.527  1.00  0.00     0.261 NA 
HETATM   17  C   UNL     1      -7.801  18.216  65.597  1.00  0.00     0.285 A  
HETATM   18  N   UNL     1      -9.991  17.121  66.599  1.00  0.00    -0.282 NA 
HETATM   19  N   UNL     1      -8.675  19.015  66.188  1.00  0.00    -0.458 NA 
HETATM   20  C   UNL     1      -9.775  18.432  66.641  1.00  0.00    -0.337 A  
BRANCH  17  21
HETATM   21  N   UNL     1      -6.738  18.834  64.964  1.00  0.00    -0.501 NA 
HETATM   22  H   UNL     1      -6.456  18.571  64.020  1.00  0.00     0.000 HD 
BRANCH  21  23
HETATM   23  C   UNL     1      -6.047  19.864  65.695  1.00  0.00    -0.190 C  
BRANCH  23  24
HETATM   24  C   UNL     1      -5.703  19.271  67.025  1.00  0.00    -0.170 C  
HETATM   25  C   UNL     1      -5.596  19.960  68.171  1.00  0.00    -0.233 C  
ENDBRANCH  23  24
ENDBRANCH  21  23
ENDBRANCH  17  21
BRANCH  20  26
HETATM   26  N   UNL     1     -10.761  19.299  67.074  1.00  0.00    -0.467 NA 
HETATM   27  H   UNL     1     -11.671  19.316  66.613  1.00  0.00     0.000 HD 
BRANCH  26  28
HETATM   28  C   UNL     1     -10.489  20.179  68.184  1.00  0.00    -0.235 C  
BRANCH  28  29
HETATM   29  C   UNL     1      -9.956  19.348  69.322  1.00  0.00    -0.316 C  
HETATM   30  C   UNL     1      -8.791  19.561  69.950  1.00  0.00     0.808 C  
ENDBRANCH  28  29
ENDBRANCH  26  28
ENDBRANCH  20  26
ENDBRANCH  14  15
ENDBRANCH   8   9
BRANCH   8  31
HETATM   31  C   UNL     1     -10.955  10.760  68.497  1.00  0.00    -0.291 A  
HETATM   32  C   UNL     1     -10.887   8.404  70.030  1.00  0.00    -0.225 A  
HETATM   33  C   UNL     1     -10.481   8.378  68.705  1.00  0.00    -0.197 A  
HETATM   34  F   UNL     1     -10.897   7.270  70.745  1.00  0.00    -0.231 F  
HETATM   35  C   UNL     1     -11.320  10.768  69.857  1.00  0.00    -0.385 A  
HETATM   36  C   UNL     1     -10.501   9.552  67.945  1.00  0.00    -0.293 A  
HETATM   37  C   UNL     1     -11.292   9.593  70.618  1.00  0.00    -0.379 A  
ENDBRANCH   8  31
ENDBRANCH   5   8
TORSDOF 10
ENDMDL
MODEL      200
REMARK 921   NORMALIZED FREE ENERGY PREDICTED BY IDOCK:   -2.25 KCAL/MOL
REMARK 922        TOTAL FREE ENERGY PREDICTED BY IDOCK:   -4.92 KCAL/MOL
REMARK 923 INTER-LIGAND FREE ENERGY PREDICTED BY IDOCK:   -6.31 KCAL/MOL
REMARK 924 INTRA-LIGAND FREE ENERGY PREDICTED BY IDOCK:    1.39 KCAL/MOL
REMARK 927      BINDING AFFINITY PREDICTED BY RF-SCORE:    0.00 PKD
ROOT
HETATM    1  F   UNL     1      -5.890  10.589  68.312  1.00  0.00    -0.044 F  
HETATM    2  C   UNL     1      -6.886  11.385  67.902  1.00  0.00    -0.072 A  
HETATM    3  C   UNL     1      -7.133  12.575  68.576  1.00  0.00    -0.107 A  
HETATM    4  C   UNL     1      -8.190  13.394  68.170  1.00  0.00    -0.160 A  
HETATM    5  C   UNL     1      -9.006  13.029  67.081  1.00  0.00    -0.223 A  
HETATM    6  C   UNL     1      -8.707  11.838  66.393  1.00  0.00    -0.147 A  
HETATM    7  C   UNL     1      -7.655  11.014  66.808  1.00  0.00    -0.139 A  
ENDROOT
BRANCH   5   8
HETATM    8  C   UNL     1     -10.189  13.925  66.669  1.00  0.00    -0.276 C  
BRANCH   8   9
HETATM    9  N   UNL     1     -11.445  13.561  67.383  1.00  0.00    -0.318 NA 
HETATM   10  C   UNL     1     -11.257  13.393  68.860  1.00  0.00    -0.276 C  
HETATM   11  C   UNL     1     -10.662  12.043  69.358  1.00  0.00     0.076 C  
HETATM   12  C   UNL     1     -12.086  12.317  66.873  1.00  0.00     0.046 C  
HETATM   13  C   UNL     1     -11.405  10.996  67.291  1.00  0.00    -0.188 C  
HETATM   14  N   UNL     1     -11.402  10.925  68.756  1.00  0.00    -0.269 NA 
BRANCH  14  15
HETATM   15  C   UNL     1     -11.017   9.691  69.282  1.00  0.00    -0.168 A  
HETATM   16  N   UNL     1     -11.208   9.466  70.573  1.00  0.00    -0.261 NA 
HETATM   17  C   UNL     1     -10.799   8.297  71.036  1.00  0.00    -0.233 A  
HETATM   18  N   UNL     1     -10.467   8.801  68.459  1.00  0.00    -0.199 NA 
HETATM   19  N   UNL     1     -10.182   7.383  70.304  1.00  0.00    -0.198 NA 
HETATM   20  C   UNL     1     -10.071   7.658  69.012  1.00  0.00    -0.198 A  
BRANCH  17  21
HETATM   21  N   UNL     1     -11.079   7.945  72.343  1.00  0.00    -0.304 NA 
HETATM   22  H   UNL     1     -10.753   8.510  73.127  1.00  0.00     0.000 HD 
BRANCH  21  23
HETATM   23  C   UNL     1     -11.851   6.748  72.551  1.00  0.00    -0.106 C  
BRANCH  23  24
HETATM   24  C   UNL     1     -10.877   5.691  72.968  1.00  0.00    -0.308 C  
HETATM   25  C   UNL     1     -10.741   5.219  74.216  1.00  0.00    -0.151 C  
ENDBRANCH  23  24
ENDBRANCH  21  23
ENDBRANCH  17  21
BRANCH  20  26
HETATM   26  N   UNL     1      -9.606   6.617  68.231  1.00  0.00    -0.126 NA 
HETATM   27  H   UNL     1      -8.663   6.645  67.842  1.00  0.00     0.000 HD 
BRANCH  26  28
HETATM   28  C   UNL     1     -10.468   5.490  67.971  1.00  0.00    -0.172 C  
BRANCH  28  29
HETATM   29  C   UNL     1      -9.771   4.245  68.455  1.00  0.00    -0.165 C  
HETATM   30  C   UNL     1      -9.656   3.878  69.739  1.00  0.00    -0.271 C  
ENDBRANCH  28  29
ENDBRANCH  26  28
ENDBRANCH  20  26
ENDBRANCH  14  15
ENDBRANCH   8   9
BRANCH   8  31
HETATM   31  C   UNL     1      -9.786  15.415  66.805  1.00  0.00    -0.255 A  
HETATM   32  C   UNL     1      -9.181  18.153  67.000  1.00  0.00    -0.270 A  
HETATM   33  C   UNL     1      -9.118  17.350  68.128  1.00  0.00    -0.267 A  
HETATM   34  F   UNL     1      -8.935  19.467  67.104  1.00  0.00    -0.296 F  
HETATM   35  C   UNL     1      -9.799  16.244  65.667  1.00  0.00    -0.255 A  
HETATM   36  C   UNL     1      -9.406  15.985  68.030  1.00  0.00    -0.202 A  
HETATM   37  C   UNL     1      -9.503  17.609  65.766  1.00  0.00     0.194 A  
ENDBRANCH   8  31
ENDBRANCH   5   8
TORSDOF 10
ENDMDL
MODEL      201
REMARK 921   NORMALIZED FREE ENERGY PREDICTED BY IDOCK:   -2.23 KCAL/MOL
REMARK 922        TOTAL FREE ENERGY PREDICTED BY IDOCK:   -4.87 KCAL/MOL
REMARK 923 INTER-LIGAND FREE ENERGY PREDICTED BY IDOCK:   -5.65 KCAL/MOL
REMARK 924 INTRA-LIGAND FREE ENERGY PREDICTED BY IDOCK:    0.78 KCAL/MOL
REMARK 927      BINDING AFFINITY PREDICTED BY RF-SCORE:    0.00 PKD
ROOT
HETATM    1  F   UNL     1      -6.584  18.640  69.101  1.00  0.00    -0.245 F  
HETATM    2  C   UNL     1      -6.879  17.372  68.783  1.00  0.00    -0.228 A  
HETATM    3  C   UNL     1      -5.907  16.388  68.919  1.00  0.00    -0.132 A  
HETATM    4  C   UNL     1      -6.202  15.070  68.560  1.00  0.00    -0.094 A  
HETATM    5  C   UNL     1      -7.475  14.726  68.065  1.00  0.00    -0.135 A  
HETATM    6  C   UNL     1      -8.451  15.737  67.976  1.00  0.00    -0.161 A  
HETATM    7  C   UNL     1      -8.151  17.058  68.326  1.00  0.00    -0.228 A  
ENDROOT
BRANCH   5   8
HETATM    8  C   UNL     1      -7.772  13.276  67.641  1.00  0.00    -0.171 C  
BRANCH   8   9
HETATM    9  N   UNL     1      -7.439  12.297  68.714  1.00  0.00    -0.097 NA 
HETATM   10  C   UNL     1      -6.512  11.212  68.257  1.00  0.00    -0.057 C  
HETATM   11  C   UNL     1      -7.136  10.027  67.462  1.00  0.00    -0.087 C  
HETATM   12  C   UNL     1      -8.630  11.639  69.318  1.00  0.00     0.496 C  
HETATM   13  C   UNL     1      -9.296  10.545  68.454  1.00  0.00    -0.158 C  
HETATM   14  N   UNL     1      -8.299   9.501  68.190  1.00  0.00    -0.118 NA 
BRANCH  14  15
HETATM   15  C   UNL     1      -8.808   8.340  67.606  1.00  0.00    -0.136 A  
HETATM   16  N   UNL     1      -9.648   7.595  68.309  1.00  0.00    -0.152 NA 
HETATM   17  C   UNL     1     -10.082   6.488  67.731  1.00  0.00    -0.148 A  
HETATM   18  N   UNL     1      -8.419   8.033  66.371  1.00  0.00    -0.129 NA 
HETATM   19  N   UNL     1      -9.693   6.073  66.536  1.00  0.00    -0.157 NA 
HETATM   20  C   UNL     1      -8.892   6.894  65.873  1.00  0.00    -0.105 A  
BRANCH  17  21
HETATM   21  N   UNL     1     -11.054   5.729  68.355  1.00  0.00    -0.093 NA 
HETATM   22  H   UNL     1     -11.863   5.377  67.844  1.00  0.00     0.000 HD 
BRANCH  21  23
HETATM   23  C   UNL     1     -10.876   5.457  69.758  1.00  0.00    -0.110 C  
BRANCH  23  24
HETATM   24  C   UNL     1     -11.650   6.508  70.488  1.00  0.00    -0.455 C  
HETATM   25  C   UNL     1     -12.341   6.309  71.620  1.00  0.00    -0.084 C  
ENDBRANCH  23  24
ENDBRANCH  21  23
ENDBRANCH  17  21
BRANCH  20  26
HETATM   26  N   UNL     1      -8.655   6.544  64.557  1.00  0.00    -0.342 NA 
HETATM   27  H   UNL     1      -9.367   6.707  63.844  1.00  0.00     0.000 HD 
BRANCH  26  28
HETATM   28  C   UNL     1      -7.391   5.947  64.201  1.00  0.00    -0.064 C  
BRANCH  28  29
HETATM   29  C   UNL     1      -6.448   7.050  63.799  1.00  0.00    -0.043 C  
HETATM   30  C   UNL     1      -5.756   7.089  62.651  1.00  0.00    -0.040 C  
ENDBRANCH  28  29
ENDBRANCH  26  28
ENDBRANCH  20  26
ENDBRANCH  14  15
ENDBRANCH   8   9
BRANCH   8  31
HETATM   31  C   UNL     1      -9.225  13.175  67.114  1.00  0.00    -0.227 A  
HETATM   32  C   UNL     1     -11.870  13.131  66.161  1.00  0.00    -0.401 A  
HETATM   33  C   UNL     1     -10.861  12.524  65.428  1.00  0.00    -0.316 A  
HETATM   34  F   UNL     1     -13.122  13.148  65.682  1.00  0.00    -0.418 F  
HETATM   35  C   UNL     1     -10.275  13.745  67.859  1.00  0.00    -0.245 A  
HETATM   36  C   UNL     1      -9.548  12.533  65.907  1.00  0.00    -0.174 A  
HETATM   37  C   UNL     1     -11.591  13.728  67.381  1.00  0.00    -0.393 A  
ENDBRANCH   8  31
ENDBRANCH   5   8
TORSDOF 10
ENDMDL
MODEL      202
REMARK 921   NORMALIZED FREE ENERGY PREDICTED BY IDOCK:   -2.22 KCAL/MOL
REMARK 922        TOTAL FREE ENERGY PREDICTED BY IDOCK:   -4.86 KCAL/MOL
REMARK 923 INTER-LIGAND FREE ENERGY PREDICTED BY IDOCK:   -4.82 KCAL/MOL
REMARK 924 INTRA-LIGAND FREE ENERGY PREDICTED BY IDOCK:   -0.03 KCAL/MOL
REMARK 927      BINDING AFFINITY PREDICTED BY RF-SCORE:    0.00 PKD
ROOT
HETATM    1  F   UNL     1     -13.649  12.006  63.628  1.00  0.00    -0.276 F  
HETATM    2  C   UNL     1     -12.451  12.007  64.226  1.00  0.00    -0.286 A  
HETATM    3  C   UNL     1     -11.299  12.087  63.452  1.00  0.00    -0.484 A  
HETATM    4  C   UNL     1     -10.046  12.057  64.071  1.00  0.00    -0.361 A  
HETATM    5  C   UNL     1      -9.937  11.952  65.471  1.00  0.00    -0.266 A  
HETATM    6  C   UNL     1     -11.122  11.914  66.232  1.00  0.00    -0.364 A  
HETATM    7  C   UNL     1     -12.374  11.932  65.610  1.00  0.00     0.615 A  
ENDROOT
BRANCH   5   8
HETATM    8  C   UNL     1      -8.549  11.885  66.134  1.00  0.00     0.052 C  
BRANCH   8   9
HETATM    9  N   UNL     1      -8.568  12.408  67.530  1.00  0.00    -0.167 NA 
HETATM   10  C   UNL     1      -9.473  13.589  67.705  1.00  0.00    -0.216 C  
HETATM   11  C   UNL     1      -8.929  14.980  67.263  1.00  0.00    -0.199 C  
HETATM   12  C   UNL     1      -7.226  12.797  68.044  1.00  0.00    -0.115 C  
HETATM   13  C   UNL     1      -6.663  14.128  67.498  1.00  0.00    -0.105 C  
HETATM   14  N   UNL     1      -7.600  15.200  67.850  1.00  0.00    -0.127 NA 
BRANCH  14  15
HETATM   15  C   UNL     1      -7.125  16.491  67.616  1.00  0.00    -0.133 A  
HETATM   16  N   UNL     1      -7.006  16.904  66.363  1.00  0.00    -0.231 NA 
HETATM   17  C   UNL     1      -6.523  18.122  66.186  1.00  0.00    -0.235 A  
HETATM   18  N   UNL     1      -6.807  17.245  68.666  1.00  0.00    -0.197 NA 
HETATM   19  N   UNL     1      -6.118  18.911  67.168  1.00  0.00    -0.171 NA 
HETATM   20  C   UNL     1      -6.315  18.450  68.395  1.00  0.00    -0.201 A  
BRANCH  17  21
HETATM   21  N   UNL     1      -6.489  18.663  64.914  1.00  0.00    -0.480 NA 
HETATM   22  H   UNL     1      -7.320  19.071  64.487  1.00  0.00     0.000 HD 
BRANCH  21  23
HETATM   23  C   UNL     1      -5.229  18.628  64.218  1.00  0.00    -0.138 C  
BRANCH  23  24
HETATM   24  C   UNL     1      -5.141  19.908  63.449  1.00  0.00    -0.231 C  
HETATM   25  C   UNL     1      -6.139  20.791  63.307  1.00  0.00    -0.262 C  
ENDBRANCH  23  24
ENDBRANCH  21  23
ENDBRANCH  17  21
BRANCH  20  26
HETATM   26  N   UNL     1      -6.073  19.360  69.407  1.00  0.00    -0.267 NA 
HETATM   27  H   UNL     1      -5.213  19.306  69.955  1.00  0.00     0.000 HD 
BRANCH  26  28
HETATM   28  C   UNL     1      -7.048  20.387  69.682  1.00  0.00     0.294 C  
BRANCH  28  29
HETATM   29  C   UNL     1      -8.405  19.738  69.754  1.00  0.00     0.642 C  
HETATM   30  C   UNL     1      -9.320  19.758  68.774  1.00  0.00    -0.298 C  
ENDBRANCH  28  29
ENDBRANCH  26  28
ENDBRANCH  20  26
ENDBRANCH  14  15
ENDBRANCH   8   9
BRANCH   8  31
HETATM   31  C   UNL     1      -7.974  10.454  65.997  1.00  0.00    -0.144 A  
HETATM   32  C   UNL     1      -6.821   7.909  65.681  1.00  0.00    -0.052 A  
HETATM   33  C   UNL     1      -7.145   8.368  66.948  1.00  0.00    -0.075 A  
HETATM   34  F   UNL     1      -6.229   6.714  65.537  1.00  0.00    -0.034 F  
HETATM   35  C   UNL     1      -7.676   9.945  64.718  1.00  0.00    -0.138 A  
HETATM   36  C   UNL     1      -7.731   9.627  67.106  1.00  0.00    -0.091 A  
HETATM   37  C   UNL     1      -7.095   8.680  64.562  1.00  0.00    -0.081 A  
ENDBRANCH   8  31
ENDBRANCH   5   8
TORSDOF 10
ENDMDL
MODEL      203
REMARK 921   NORMALIZED FREE ENERGY PREDICTED BY IDOCK:   -2.21 KCAL/MOL
REMARK 922        TOTAL FREE ENERGY PREDICTED BY IDOCK:   -4.85 KCAL/MOL
REMARK 923 INTER-LIGAND FREE ENERGY PREDICTED BY IDOCK:   -6.12 KCAL/MOL
REMARK 924 INTRA-LIGAND FREE ENERGY PREDICTED BY IDOCK:    1.27 KCAL/MOL
REMARK 927      BINDING AFFINITY PREDICTED BY RF-SCORE:    0.00 PKD
ROOT
HETATM    1  F   UNL     1     -13.454  14.668  65.330  1.00  0.00    -0.224 F  
HETATM    2  C   UNL     1     -12.373  13.892  65.489  1.00  0.00    -0.480 A  
HETATM    3  C   UNL     1     -11.111  14.472  65.512  1.00  0.00    -0.339 A  
HETATM    4  C   UNL     1      -9.979  13.663  65.647  1.00  0.00    -0.261 A  
HETATM    5  C   UNL     1     -10.104  12.266  65.765  1.00  0.00    -0.274 A  
HETATM    6  C   UNL     1     -11.398  11.710  65.779  1.00  0.00    -0.244 A  
HETATM    7  C   UNL     1     -12.529  12.520  65.632  1.00  0.00    -0.141 A  
ENDROOT
BRANCH   5   8
HETATM    8  C   UNL     1      -8.846  11.385  65.877  1.00  0.00    -0.145 C  
BRANCH   8   9
HETATM    9  N   UNL     1      -7.899  11.888  66.913  1.00  0.00    -0.149 NA 
HETATM   10  C   UNL     1      -6.732  10.976  67.139  1.00  0.00    -0.096 C  
HETATM   11  C   UNL     1      -6.961   9.732  68.048  1.00  0.00    -0.077 C  
HETATM   12  C   UNL     1      -8.533  12.134  68.237  1.00  0.00    -0.176 C  
HETATM   13  C   UNL     1      -8.852  10.872  69.068  1.00  0.00    -0.096 C  
HETATM   14  N   UNL     1      -7.597  10.150  69.305  1.00  0.00    -0.104 NA 
BRANCH  14  15
HETATM   15  C   UNL     1      -7.688   9.104  70.225  1.00  0.00    -0.113 A  
HETATM   16  N   UNL     1      -7.845   7.872  69.767  1.00  0.00    -0.102 NA 
HETATM   17  C   UNL     1      -7.959   6.915  70.673  1.00  0.00    -0.109 A  
HETATM   18  N   UNL     1      -7.621   9.398  71.521  1.00  0.00    -0.285 NA 
HETATM   19  N   UNL     1      -7.972   7.127  71.979  1.00  0.00    -0.092 NA 
HETATM   20  C   UNL     1      -7.761   8.378  72.362  1.00  0.00    -0.094 A  
BRANCH  17  21
HETATM   21  N   UNL     1      -7.999   5.594  70.268  1.00  0.00    -0.101 NA 
HETATM   22  H   UNL     1      -7.184   5.138  69.858  1.00  0.00     0.000 HD 
BRANCH  21  23
HETATM   23  C   UNL     1      -9.241   4.888  70.450  1.00  0.00    -0.134 C  
BRANCH  23  24
HETATM   24  C   UNL     1      -9.022   3.512  69.905  1.00  0.00    -0.173 C  
HETATM   25  C   UNL     1      -9.442   3.082  68.707  1.00  0.00    -0.185 C  
ENDBRANCH  23  24
ENDBRANCH  21  23
ENDBRANCH  17  21
BRANCH  20  26
HETATM   26  N   UNL     1      -7.580   8.551  73.722  1.00  0.00    -0.380 NA 
HETATM   27  H   UNL     1      -7.615   9.484  74.132  1.00  0.00     0.000 HD 
BRANCH  26  28
HETATM   28  C   UNL     1      -7.342   7.397  74.554  1.00  0.00    -0.124 C  
BRANCH  28  29
HETATM   29  C   UNL     1      -5.998   6.824  74.188  1.00  0.00    -0.063 C  
HETATM   30  C   UNL     1      -5.739   5.520  74.016  1.00  0.00    -0.040 C  
ENDBRANCH  28  29
ENDBRANCH  26  28
ENDBRANCH  20  26
ENDBRANCH  14  15
ENDBRANCH   8   9
BRANCH   8  31
HETATM   31  C   UNL     1      -9.261   9.904  66.058  1.00  0.00    -0.215 A  
HETATM   32  C   UNL     1      -9.883   7.186  66.422  1.00  0.00    -0.046 A  
HETATM   33  C   UNL     1     -10.582   8.155  67.126  1.00  0.00    -0.355 A  
HETATM   34  F   UNL     1     -10.151   5.889  66.631  1.00  0.00    -0.166 F  
HETATM   35  C   UNL     1      -8.598   8.902  65.323  1.00  0.00    -0.209 A  
HETATM   36  C   UNL     1     -10.283   9.507  66.936  1.00  0.00    -0.317 A  
HETATM   37  C   UNL     1      -8.904   7.549  65.510  1.00  0.00    -0.012 A  
ENDBRANCH   8  31
ENDBRANCH   5   8
TORSDOF 10
ENDMDL
MODEL      204
REMARK 921   NORMALIZED FREE ENERGY PREDICTED BY IDOCK:   -2.17 KCAL/MOL
REMARK 922        TOTAL FREE ENERGY PREDICTED BY IDOCK:   -4.78 KCAL/MOL
REMARK 923 INTER-LIGAND FREE ENERGY PREDICTED BY IDOCK:   -5.98 KCAL/MOL
REMARK 924 INTRA-LIGAND FREE ENERGY PREDICTED BY IDOCK:    1.20 KCAL/MOL
REMARK 927      BINDING AFFINITY PREDICTED BY RF-SCORE:    0.00 PKD
ROOT
HETATM    1  F   UNL     1      -7.403   5.288  63.376  1.00  0.00    -0.045 F  
HETATM    2  C   UNL     1      -7.815   5.703  64.581  1.00  0.00    -0.113 A  
HETATM    3  C   UNL     1      -9.048   5.283  65.065  1.00  0.00    -0.029 A  
HETATM    4  C   UNL     1      -9.495   5.738  66.309  1.00  0.00    -0.166 A  
HETATM    5  C   UNL     1      -8.707   6.614  67.080  1.00  0.00    -0.113 A  
HETATM    6  C   UNL     1      -7.444   6.991  66.581  1.00  0.00    -0.081 A  
HETATM    7  C   UNL     1      -7.004   6.543  65.331  1.00  0.00    -0.052 A  
ENDROOT
BRANCH   5   8
HETATM    8  C   UNL     1      -9.228   7.134  68.432  1.00  0.00    -0.133 C  
BRANCH   8   9
HETATM    9  N   UNL     1     -10.466   7.951  68.280  1.00  0.00    -0.192 NA 
HETATM   10  C   UNL     1     -10.607   8.561  66.919  1.00  0.00    -0.209 C  
HETATM   11  C   UNL     1      -9.795   9.858  66.628  1.00  0.00    -0.207 C  
HETATM   12  C   UNL     1     -10.584   9.053  69.275  1.00  0.00    -0.213 C  
HETATM   13  C   UNL     1      -9.681  10.280  69.021  1.00  0.00    -0.205 C  
HETATM   14  N   UNL     1     -10.018  10.833  67.705  1.00  0.00    -0.169 NA 
BRANCH  14  15
HETATM   15  C   UNL     1      -9.441  12.072  67.426  1.00  0.00    -0.177 A  
HETATM   16  N   UNL     1      -8.223  12.319  67.884  1.00  0.00    -0.150 NA 
HETATM   17  C   UNL     1      -7.725  13.517  67.624  1.00  0.00    -0.176 A  
HETATM   18  N   UNL     1     -10.146  12.951  66.718  1.00  0.00    -0.234 NA 
HETATM   19  N   UNL     1      -8.384  14.472  66.988  1.00  0.00    -0.197 NA 
HETATM   20  C   UNL     1      -9.576  14.135  66.517  1.00  0.00    -0.296 A  
BRANCH  17  21
HETATM   21  N   UNL     1      -6.415  13.799  67.962  1.00  0.00    -0.123 NA 
HETATM   22  H   UNL     1      -5.876  14.505  67.460  1.00  0.00     0.000 HD 
BRANCH  21  23
HETATM   23  C   UNL     1      -5.842  13.054  69.053  1.00  0.00    -0.079 C  
BRANCH  23  24
HETATM   24  C   UNL     1      -6.124  13.845  70.291  1.00  0.00    -0.141 C  
HETATM   25  C   UNL     1      -5.757  15.119  70.490  1.00  0.00    -0.125 C  
ENDBRANCH  23  24
ENDBRANCH  21  23
ENDBRANCH  17  21
BRANCH  20  26
HETATM   26  N   UNL     1     -10.164  15.073  65.689  1.00  0.00    -0.333 NA 
HETATM   27  H   UNL     1     -10.549  14.795  64.786  1.00  0.00     0.000 HD 
BRANCH  26  28
HETATM   28  C   UNL     1     -10.229  16.450  66.116  1.00  0.00    -0.348 C  
BRANCH  28  29
HETATM   29  C   UNL     1      -9.403  16.592  67.367  1.00  0.00    -0.223 C  
HETATM   30  C   UNL     1      -9.898  16.793  68.597  1.00  0.00    -0.261 C  
ENDBRANCH  28  29
ENDBRANCH  26  28
ENDBRANCH  20  26
ENDBRANCH  14  15
ENDBRANCH   8   9
BRANCH   8  31
HETATM   31  C   UNL     1      -9.360   5.955  69.428  1.00  0.00    -0.150 A  
HETATM   32  C   UNL     1      -9.462   3.800  71.230  1.00  0.00    -0.159 A  
HETATM   33  C   UNL     1     -10.001   5.026  71.589  1.00  0.00    -0.249 A  
HETATM   34  F   UNL     1      -9.471   2.787  72.109  1.00  0.00    -0.133 F  
HETATM   35  C   UNL     1      -8.861   4.688  69.073  1.00  0.00    -0.122 A  
HETATM   36  C   UNL     1      -9.964   6.095  70.688  1.00  0.00    -0.229 A  
HETATM   37  C   UNL     1      -8.906   3.616  69.974  1.00  0.00    -0.147 A  
ENDBRANCH   8  31
ENDBRANCH   5   8
TORSDOF 10
ENDMDL
MODEL      205
REMARK 921   NORMALIZED FREE ENERGY PREDICTED BY IDOCK:   -2.05 KCAL/MOL
REMARK 922        TOTAL FREE ENERGY PREDICTED BY IDOCK:   -4.60 KCAL/MOL
REMARK 923 INTER-LIGAND FREE ENERGY PREDICTED BY IDOCK:   -6.44 KCAL/MOL
REMARK 924 INTRA-LIGAND FREE ENERGY PREDICTED BY IDOCK:    1.84 KCAL/MOL
REMARK 927      BINDING AFFINITY PREDICTED BY RF-SCORE:    0.00 PKD
ROOT
HETATM    1  F   UNL     1      -5.359  10.734  68.717  1.00  0.00    -0.042 F  
HETATM    2  C   UNL     1      -6.312   9.823  68.952  1.00  0.00    -0.041 A  
HETATM    3  C   UNL     1      -7.023   9.868  70.146  1.00  0.00    -0.138 A  
HETATM    4  C   UNL     1      -7.997   8.900  70.408  1.00  0.00    -0.120 A  
HETATM    5  C   UNL     1      -8.270   7.882  69.475  1.00  0.00    -0.130 A  
HETATM    6  C   UNL     1      -7.561   7.886  68.257  1.00  0.00    -0.116 A  
HETATM    7  C   UNL     1      -6.579   8.849  68.001  1.00  0.00    -0.061 A  
ENDROOT
BRANCH   5   8
HETATM    8  C   UNL     1      -9.321   6.803  69.794  1.00  0.00    -0.145 C  
BRANCH   8   9
HETATM    9  N   UNL     1     -10.663   7.147  69.245  1.00  0.00    -0.227 NA 
HETATM   10  C   UNL     1     -10.633   7.495  67.787  1.00  0.00    -0.206 C  
HETATM   11  C   UNL     1     -10.182   8.935  67.405  1.00  0.00    -0.249 C  
HETATM   12  C   UNL     1     -11.333   8.271  69.956  1.00  0.00     0.000 C  
HETATM   13  C   UNL     1     -10.786   9.680  69.641  1.00  0.00    -0.240 C  
HETATM   14  N   UNL     1     -10.933   9.916  68.200  1.00  0.00    -0.238 NA 
BRANCH  14  15
HETATM   15  C   UNL     1     -10.684  11.228  67.795  1.00  0.00    -0.220 A  
HETATM   16  N   UNL     1     -10.232  12.092  68.691  1.00  0.00    -0.205 NA 
HETATM   17  C   UNL     1     -10.040  13.332  68.273  1.00  0.00    -0.250 A  
HETATM   18  N   UNL     1     -10.922  11.551  66.525  1.00  0.00    -0.293 NA 
HETATM   19  N   UNL     1     -10.315  13.754  67.049  1.00  0.00    -0.258 NA 
HETATM   20  C   UNL     1     -10.717  12.823  66.195  1.00  0.00    -0.275 A  
BRANCH  17  21
HETATM   21  N   UNL     1      -9.452  14.254  69.119  1.00  0.00    -0.405 NA 
HETATM   22  H   UNL     1      -9.261  14.032  70.096  1.00  0.00     0.000 HD 
BRANCH  21  23
HETATM   23  C   UNL     1      -9.122  15.540  68.562  1.00  0.00    -0.196 C  
BRANCH  23  24
HETATM   24  C   UNL     1     -10.206  16.474  68.997  1.00  0.00    -0.285 C  
HETATM   25  C   UNL     1     -10.839  16.423  70.179  1.00  0.00    -0.265 C  
ENDBRANCH  23  24
ENDBRANCH  21  23
ENDBRANCH  17  21
BRANCH  20  26
HETATM   26  N   UNL     1     -10.809  13.237  64.880  1.00  0.00    -0.326 NA 
HETATM   27  H   UNL     1     -10.804  14.231  64.650  1.00  0.00     0.000 HD 
BRANCH  26  28
HETATM   28  C   UNL     1     -10.913  12.249  63.834  1.00  0.00    -0.406 C  
BRANCH  28  29
HETATM   29  C   UNL     1      -9.553  11.632  63.634  1.00  0.00    -0.239 C  
HETATM   30  C   UNL     1      -9.189  10.416  64.066  1.00  0.00    -0.300 C  
ENDBRANCH  28  29
ENDBRANCH  26  28
ENDBRANCH  20  26
ENDBRANCH  14  15
ENDBRANCH   8   9
BRANCH   8  31
HETATM   31  C   UNL     1      -8.790   5.414  69.360  1.00  0.00    -0.117 A  
HETATM   32  C   UNL     1      -7.717   2.957  68.515  1.00  0.00    -0.054 A  
HETATM   33  C   UNL     1      -8.015   3.156  69.854  1.00  0.00    -0.054 A  
HETATM   34  F   UNL     1      -7.163   1.801  68.122  1.00  0.00    -0.041 F  
HETATM   35  C   UNL     1      -8.520   5.169  68.000  1.00  0.00    -0.100 A  
HETATM   36  C   UNL     1      -8.562   4.373  70.274  1.00  0.00    -0.106 A  
HETATM   37  C   UNL     1      -7.980   3.947  67.581  1.00  0.00    -0.090 A  
ENDBRANCH   8  31
ENDBRANCH   5   8
TORSDOF 10
ENDMDL
MODEL      206
REMARK 921   NORMALIZED FREE ENERGY PREDICTED BY IDOCK:   -2.02 KCAL/MOL
REMARK 922        TOTAL FREE ENERGY PREDICTED BY IDOCK:   -4.55 KCAL/MOL
REMARK 923 INTER-LIGAND FREE ENERGY PREDICTED BY IDOCK:   -5.18 KCAL/MOL
REMARK 924 INTRA-LIGAND FREE ENERGY PREDICTED BY IDOCK:    0.63 KCAL/MOL
REMARK 927      BINDING AFFINITY PREDICTED BY RF-SCORE:    0.00 PKD
ROOT
HETATM    1  F   UNL     1     -10.827  15.665  67.399  1.00  0.00    -0.296 F  
HETATM    2  C   UNL     1      -9.866  14.735  67.336  1.00  0.00    -0.222 A  
HETATM    3  C   UNL     1      -8.567  15.065  67.705  1.00  0.00    -0.165 A  
HETATM    4  C   UNL     1      -7.555  14.105  67.613  1.00  0.00    -0.193 A  
HETATM    5  C   UNL     1      -7.838  12.804  67.153  1.00  0.00    -0.097 A  
HETATM    6  C   UNL     1      -9.170  12.487  66.824  1.00  0.00    -0.217 A  
HETATM    7  C   UNL     1     -10.179  13.452  66.907  1.00  0.00    -0.252 A  
ENDROOT
BRANCH   5   8
HETATM    8  C   UNL     1      -6.705  11.769  67.023  1.00  0.00    -0.139 C  
BRANCH   8   9
HETATM    9  N   UNL     1      -6.157  11.367  68.350  1.00  0.00    -0.045 NA 
HETATM   10  C   UNL     1      -5.461  10.040  68.324  1.00  0.00    -0.038 C  
HETATM   11  C   UNL     1      -6.352   8.764  68.380  1.00  0.00    -0.055 C  
HETATM   12  C   UNL     1      -7.179  11.311  69.431  1.00  0.00    -0.063 C  
HETATM   13  C   UNL     1      -8.123  10.089  69.393  1.00  0.00    -0.149 C  
HETATM   14  N   UNL     1      -7.305   8.876  69.493  1.00  0.00    -0.069 NA 
BRANCH  14  15
HETATM   15  C   UNL     1      -8.027   7.698  69.692  1.00  0.00    -0.124 A  
HETATM   16  N   UNL     1      -8.587   7.116  68.642  1.00  0.00    -0.125 NA 
HETATM   17  C   UNL     1      -9.289   6.020  68.879  1.00  0.00    -0.123 A  
HETATM   18  N   UNL     1      -8.125   7.220  70.930  1.00  0.00    -0.105 NA 
HETATM   19  N   UNL     1      -9.494   5.516  70.086  1.00  0.00    -0.158 NA 
HETATM   20  C   UNL     1      -8.861   6.123  71.079  1.00  0.00    -0.139 A  
BRANCH  17  21
HETATM   21  N   UNL     1      -9.796   5.292  67.819  1.00  0.00    -0.143 NA 
HETATM   22  H   UNL     1     -10.341   5.737  67.081  1.00  0.00     0.000 HD 
BRANCH  21  23
HETATM   23  C   UNL     1      -9.520   3.879  67.800  1.00  0.00    -0.179 C  
BRANCH  23  24
HETATM   24  C   UNL     1      -8.497   3.668  66.728  1.00  0.00    -0.106 C  
HETATM   25  C   UNL     1      -8.403   4.388  65.601  1.00  0.00    -0.114 C  
ENDBRANCH  23  24
ENDBRANCH  21  23
ENDBRANCH  17  21
BRANCH  20  26
HETATM   26  N   UNL     1      -8.924   5.472  72.297  1.00  0.00    -0.139 NA 
HETATM   27  H   UNL     1      -8.918   4.452  72.338  1.00  0.00     0.000 HD 
BRANCH  26  28
HETATM   28  C   UNL     1      -8.998   6.249  73.510  1.00  0.00    -0.124 C  
BRANCH  28  29
HETATM   29  C   UNL     1     -10.207   5.794  74.286  1.00  0.00    -0.294 C  
HETATM   30  C   UNL     1     -10.871   4.648  74.073  1.00  0.00    -0.328 C  
ENDBRANCH  28  29
ENDBRANCH  26  28
ENDBRANCH  20  26
ENDBRANCH  14  15
ENDBRANCH   8   9
BRANCH   8  31
HETATM   31  C   UNL     1      -7.180  10.585  66.144  1.00  0.00    -0.136 A  
HETATM   32  C   UNL     1      -7.932   8.364  64.594  1.00  0.00    -0.147 A  
HETATM   33  C   UNL     1      -8.825   8.902  65.509  1.00  0.00    -0.238 A  
HETATM   34  F   UNL     1      -8.277   7.276  63.889  1.00  0.00    -0.128 F  
HETATM   35  C   UNL     1      -6.310  10.046  65.177  1.00  0.00    -0.114 A  
HETATM   36  C   UNL     1      -8.457  10.015  66.270  1.00  0.00    -0.134 A  
HETATM   37  C   UNL     1      -6.683   8.936  64.410  1.00  0.00    -0.078 A  
ENDBRANCH   8  31
ENDBRANCH   5   8
TORSDOF 10
ENDMDL
MODEL      207
REMARK 921   NORMALIZED FREE ENERGY PREDICTED BY IDOCK:   -1.98 KCAL/MOL
REMARK 922        TOTAL FREE ENERGY PREDICTED BY IDOCK:   -4.48 KCAL/MOL
REMARK 923 INTER-LIGAND FREE ENERGY PREDICTED BY IDOCK:   -5.62 KCAL/MOL
REMARK 924 INTRA-LIGAND FREE ENERGY PREDICTED BY IDOCK:    1.15 KCAL/MOL
REMARK 927      BINDING AFFINITY PREDICTED BY RF-SCORE:    0.00 PKD
ROOT
HETATM    1  F   UNL     1      -6.530  18.989  69.157  1.00  0.00    -0.258 F  
HETATM    2  C   UNL     1      -6.551  17.713  68.751  1.00  0.00    -0.218 A  
HETATM    3  C   UNL     1      -6.647  17.428  67.394  1.00  0.00    -0.172 A  
HETATM    4  C   UNL     1      -6.700  16.098  66.968  1.00  0.00    -0.183 A  
HETATM    5  C   UNL     1      -6.652  15.042  67.898  1.00  0.00    -0.174 A  
HETATM    6  C   UNL     1      -6.515  15.361  69.263  1.00  0.00    -0.137 A  
HETATM    7  C   UNL     1      -6.473  16.693  69.688  1.00  0.00    -0.195 A  
ENDROOT
BRANCH   5   8
HETATM    8  C   UNL     1      -6.747  13.583  67.416  1.00  0.00    -0.027 C  
BRANCH   8   9
HETATM    9  N   UNL     1      -5.779  12.694  68.120  1.00  0.00    -0.067 NA 
HETATM   10  C   UNL     1      -5.677  11.330  67.508  1.00  0.00    -0.050 C  
HETATM   11  C   UNL     1      -6.786  10.298  67.871  1.00  0.00    -0.066 C  
HETATM   12  C   UNL     1      -6.076  12.510  69.567  1.00  0.00    -0.120 C  
HETATM   13  C   UNL     1      -7.256  11.569  69.892  1.00  0.00     0.455 C  
HETATM   14  N   UNL     1      -6.955  10.247  69.330  1.00  0.00    -0.064 NA 
BRANCH  14  15
HETATM   15  C   UNL     1      -7.825   9.231  69.727  1.00  0.00    -0.100 A  
HETATM   16  N   UNL     1      -8.348   9.285  70.942  1.00  0.00    -0.270 NA 
HETATM   17  C   UNL     1      -9.142   8.286  71.290  1.00  0.00    -0.160 A  
HETATM   18  N   UNL     1      -8.082   8.249  68.865  1.00  0.00    -0.113 NA 
HETATM   19  N   UNL     1      -9.395   7.238  70.522  1.00  0.00    -0.158 NA 
HETATM   20  C   UNL     1      -8.878   7.278  69.303  1.00  0.00    -0.136 A  
BRANCH  17  21
HETATM   21  N   UNL     1      -9.819   8.340  72.493  1.00  0.00    -0.284 NA 
HETATM   22  H   UNL     1     -10.745   8.762  72.564  1.00  0.00     0.000 HD 
BRANCH  21  23
HETATM   23  C   UNL     1      -9.162   7.776  73.643  1.00  0.00    -0.284 C  
BRANCH  23  24
HETATM   24  C   UNL     1     -10.145   6.833  74.263  1.00  0.00    -0.348 C  
HETATM   25  C   UNL     1     -10.423   5.603  73.809  1.00  0.00    -0.295 C  
ENDBRANCH  23  24
ENDBRANCH  21  23
ENDBRANCH  17  21
BRANCH  20  26
HETATM   26  N   UNL     1      -9.312   6.280  68.451  1.00  0.00    -0.114 NA 
HETATM   27  H   UNL     1      -9.520   6.490  67.474  1.00  0.00     0.000 HD 
BRANCH  26  28
HETATM   28  C   UNL     1      -9.467   4.938  68.956  1.00  0.00    -0.144 C  
BRANCH  28  29
HETATM   29  C   UNL     1      -8.788   3.994  67.997  1.00  0.00    -0.132 C  
HETATM   30  C   UNL     1      -9.096   2.699  67.845  1.00  0.00    -0.227 C  
ENDBRANCH  28  29
ENDBRANCH  26  28
ENDBRANCH  20  26
ENDBRANCH  14  15
ENDBRANCH   8   9
BRANCH   8  31
HETATM   31  C   UNL     1      -8.219  13.105  67.486  1.00  0.00    -0.183 A  
HETATM   32  C   UNL     1     -10.930  12.368  67.582  1.00  0.00    -0.236 A  
HETATM   33  C   UNL     1     -10.063  11.699  66.733  1.00  0.00    -0.242 A  
HETATM   34  F   UNL     1     -12.232  12.045  67.593  1.00  0.00    -0.314 F  
HETATM   35  C   UNL     1      -9.113  13.738  68.371  1.00  0.00    -0.175 A  
HETATM   36  C   UNL     1      -8.711  12.054  66.695  1.00  0.00    -0.171 A  
HETATM   37  C   UNL     1     -10.464  13.375  68.414  1.00  0.00    -0.257 A  
ENDBRANCH   8  31
ENDBRANCH   5   8
TORSDOF 10
ENDMDL
MODEL      208
REMARK 921   NORMALIZED FREE ENERGY PREDICTED BY IDOCK:   -1.88 KCAL/MOL
REMARK 922        TOTAL FREE ENERGY PREDICTED BY IDOCK:   -4.32 KCAL/MOL
REMARK 923 INTER-LIGAND FREE ENERGY PREDICTED BY IDOCK:   -4.11 KCAL/MOL
REMARK 924 INTRA-LIGAND FREE ENERGY PREDICTED BY IDOCK:   -0.21 KCAL/MOL
REMARK 927      BINDING AFFINITY PREDICTED BY RF-SCORE:    0.00 PKD
ROOT
HETATM    1  F   UNL     1     -10.805  17.578  70.814  1.00  0.00     0.251 F  
HETATM    2  C   UNL     1     -10.794  16.415  70.150  1.00  0.00    -0.261 A  
HETATM    3  C   UNL     1     -11.719  16.196  69.136  1.00  0.00    -0.239 A  
HETATM    4  C   UNL     1     -11.729  14.972  68.461  1.00  0.00    -0.345 A  
HETATM    5  C   UNL     1     -10.809  13.959  68.793  1.00  0.00    -0.282 A  
HETATM    6  C   UNL     1      -9.858  14.225  69.797  1.00  0.00     0.609 A  
HETATM    7  C   UNL     1      -9.856  15.446  70.479  1.00  0.00     0.497 A  
ENDROOT
BRANCH   5   8
HETATM    8  C   UNL     1     -10.857  12.604  68.064  1.00  0.00    -0.225 C  
BRANCH   8   9
HETATM    9  N   UNL     1     -11.743  11.625  68.756  1.00  0.00    -0.306 NA 
HETATM   10  C   UNL     1     -11.321  11.341  70.166  1.00  0.00    -0.164 C  
HETATM   11  C   UNL     1     -10.154  10.330  70.374  1.00  0.00     0.160 C  
HETATM   12  C   UNL     1     -11.855  10.316  68.055  1.00  0.00     0.787 C  
HETATM   13  C   UNL     1     -10.633   9.382  68.186  1.00  0.00    -0.212 C  
HETATM   14  N   UNL     1     -10.421   9.104  69.611  1.00  0.00    -0.217 NA 
BRANCH  14  15
HETATM   15  C   UNL     1      -9.488   8.101  69.878  1.00  0.00    -0.160 A  
HETATM   16  N   UNL     1      -9.895   7.011  70.511  1.00  0.00    -0.179 NA 
HETATM   17  C   UNL     1      -8.973   6.100  70.773  1.00  0.00    -0.143 A  
HETATM   18  N   UNL     1      -8.229   8.292  69.490  1.00  0.00    -0.117 NA 
HETATM   19  N   UNL     1      -7.689   6.239  70.484  1.00  0.00    -0.099 NA 
HETATM   20  C   UNL     1      -7.365   7.332  69.807  1.00  0.00    -0.084 A  
BRANCH  17  21
HETATM   21  N   UNL     1      -9.348   4.886  71.318  1.00  0.00    -0.144 NA 
HETATM   22  H   UNL     1      -8.724   4.080  71.301  1.00  0.00     0.000 HD 
BRANCH  21  23
HETATM   23  C   UNL     1     -10.658   4.810  71.911  1.00  0.00    -0.080 C  
BRANCH  23  24
HETATM   24  C   UNL     1     -10.490   5.205  73.344  1.00  0.00    -0.275 C  
HETATM   25  C   UNL     1     -10.495   6.465  73.801  1.00  0.00    -0.319 C  
ENDBRANCH  23  24
ENDBRANCH  21  23
ENDBRANCH  17  21
BRANCH  20  26
HETATM   26  N   UNL     1      -6.064   7.368  69.342  1.00  0.00    -0.030 NA 
HETATM   27  H   UNL     1      -5.300   7.015  69.920  1.00  0.00     0.000 HD 
BRANCH  26  28
HETATM   28  C   UNL     1      -5.796   7.909  68.032  1.00  0.00    -0.041 C  
BRANCH  28  29
HETATM   29  C   UNL     1      -6.440   7.006  67.012  1.00  0.00    -0.050 C  
HETATM   30  C   UNL     1      -7.722   7.073  66.626  1.00  0.00    -0.094 C  
ENDBRANCH  28  29
ENDBRANCH  26  28
ENDBRANCH  20  26
ENDBRANCH  14  15
ENDBRANCH   8   9
BRANCH   8  31
HETATM   31  C   UNL     1     -11.197  12.827  66.570  1.00  0.00    -0.349 A  
HETATM   32  C   UNL     1     -11.866  13.358  63.891  1.00  0.00    -0.439 A  
HETATM   33  C   UNL     1     -10.560  13.037  64.226  1.00  0.00    -0.434 A  
HETATM   34  F   UNL     1     -12.173  13.655  62.620  1.00  0.00    -0.263 F  
HETATM   35  C   UNL     1     -12.524  13.113  66.196  1.00  0.00    -0.274 A  
HETATM   36  C   UNL     1     -10.228  12.759  65.556  1.00  0.00    -0.293 A  
HETATM   37  C   UNL     1     -12.856  13.383  64.862  1.00  0.00    -0.292 A  
ENDBRANCH   8  31
ENDBRANCH   5   8
TORSDOF 10
ENDMDL
MODEL      209
REMARK 921   NORMALIZED FREE ENERGY PREDICTED BY IDOCK:   -1.87 KCAL/MOL
REMARK 922        TOTAL FREE ENERGY PREDICTED BY IDOCK:   -4.30 KCAL/MOL
REMARK 923 INTER-LIGAND FREE ENERGY PREDICTED BY IDOCK:   -5.79 KCAL/MOL
REMARK 924 INTRA-LIGAND FREE ENERGY PREDICTED BY IDOCK:    1.49 KCAL/MOL
REMARK 927      BINDING AFFINITY PREDICTED BY RF-SCORE:    0.00 PKD
ROOT
HETATM    1  F   UNL     1     -13.278   7.241  70.632  1.00  0.00    -0.228 F  
HETATM    2  C   UNL     1     -12.175   6.746  71.208  1.00  0.00    -0.364 A  
HETATM    3  C   UNL     1     -12.296   5.787  72.207  1.00  0.00     0.149 A  
HETATM    4  C   UNL     1     -11.148   5.291  72.832  1.00  0.00    -0.365 A  
HETATM    5  C   UNL     1      -9.870   5.748  72.457  1.00  0.00    -0.182 A  
HETATM    6  C   UNL     1      -9.777   6.690  71.415  1.00  0.00    -0.181 A  
HETATM    7  C   UNL     1     -10.927   7.194  70.798  1.00  0.00    -0.278 A  
ENDROOT
BRANCH   5   8
HETATM    8  C   UNL     1      -8.618   5.216  73.180  1.00  0.00    -0.110 C  
BRANCH   8   9
HETATM    9  N   UNL     1      -7.921   4.160  72.392  1.00  0.00    -0.085 NA 
HETATM   10  C   UNL     1      -7.015   4.714  71.334  1.00  0.00    -0.042 C  
HETATM   11  C   UNL     1      -7.672   5.180  70.002  1.00  0.00    -0.067 C  
HETATM   12  C   UNL     1      -8.844   3.199  71.727  1.00  0.00    -0.086 C  
HETATM   13  C   UNL     1      -9.569   3.731  70.471  1.00  0.00    -0.192 C  
HETATM   14  N   UNL     1      -8.552   4.122  69.488  1.00  0.00    -0.071 NA 
BRANCH  14  15
HETATM   15  C   UNL     1      -9.051   4.418  68.218  1.00  0.00    -0.127 A  
HETATM   16  N   UNL     1      -9.209   3.426  67.355  1.00  0.00    -0.181 NA 
HETATM   17  C   UNL     1      -9.654   3.754  66.153  1.00  0.00    -0.160 A  
HETATM   18  N   UNL     1      -9.336   5.686  67.933  1.00  0.00    -0.106 NA 
HETATM   19  N   UNL     1      -9.896   4.996  65.765  1.00  0.00    -0.154 NA 
HETATM   20  C   UNL     1      -9.763   5.928  66.698  1.00  0.00    -0.157 A  
BRANCH  17  21
HETATM   21  N   UNL     1      -9.960   2.759  65.244  1.00  0.00    -0.325 NA 
HETATM   22  H   UNL     1     -10.809   2.798  64.679  1.00  0.00     0.000 HD 
BRANCH  21  23
HETATM   23  C   UNL     1      -9.031   1.666  65.128  1.00  0.00    -0.124 C  
BRANCH  23  24
HETATM   24  C   UNL     1      -8.555   1.672  63.710  1.00  0.00    -0.077 C  
HETATM   25  C   UNL     1      -9.261   2.120  62.662  1.00  0.00    -0.090 C  
ENDBRANCH  23  24
ENDBRANCH  21  23
ENDBRANCH  17  21
BRANCH  20  26
HETATM   26  N   UNL     1     -10.208   7.186  66.335  1.00  0.00    -0.470 NA 
HETATM   27  H   UNL     1     -10.408   7.400  65.358  1.00  0.00     0.000 HD 
BRANCH  26  28
HETATM   28  C   UNL     1     -10.387   8.192  67.353  1.00  0.00    -0.281 C  
BRANCH  28  29
HETATM   29  C   UNL     1      -9.715   9.457  66.886  1.00  0.00    -0.242 C  
HETATM   30  C   UNL     1     -10.064  10.155  65.796  1.00  0.00    -0.324 C  
ENDBRANCH  28  29
ENDBRANCH  26  28
ENDBRANCH  20  26
ENDBRANCH  14  15
ENDBRANCH   8   9
BRANCH   8  31
HETATM   31  C   UNL     1      -7.714   6.403  73.596  1.00  0.00    -0.092 A  
HETATM   32  C   UNL     1      -6.031   8.567  74.219  1.00  0.00    -0.125 A  
HETATM   33  C   UNL     1      -7.382   8.635  74.518  1.00  0.00    -0.176 A  
HETATM   34  F   UNL     1      -5.239   9.618  74.475  1.00  0.00    -0.127 F  
HETATM   35  C   UNL     1      -6.330   6.343  73.343  1.00  0.00    -0.064 A  
HETATM   36  C   UNL     1      -8.218   7.554  74.222  1.00  0.00    -0.240 A  
HETATM   37  C   UNL     1      -5.493   7.424  73.647  1.00  0.00    -0.045 A  
ENDBRANCH   8  31
ENDBRANCH   5   8
TORSDOF 10
ENDMDL
MODEL      210
REMARK 921   NORMALIZED FREE ENERGY PREDICTED BY IDOCK:   -1.87 KCAL/MOL
REMARK 922        TOTAL FREE ENERGY PREDICTED BY IDOCK:   -4.30 KCAL/MOL
REMARK 923 INTER-LIGAND FREE ENERGY PREDICTED BY IDOCK:   -6.45 KCAL/MOL
REMARK 924 INTRA-LIGAND FREE ENERGY PREDICTED BY IDOCK:    2.15 KCAL/MOL
REMARK 927      BINDING AFFINITY PREDICTED BY RF-SCORE:    0.00 PKD
ROOT
HETATM    1  F   UNL     1     -10.371   3.702  64.748  1.00  0.00    -0.180 F  
HETATM    2  C   UNL     1      -9.625   4.356  65.648  1.00  0.00    -0.187 A  
HETATM    3  C   UNL     1      -8.830   5.419  65.235  1.00  0.00    -0.132 A  
HETATM    4  C   UNL     1      -8.027   6.084  66.166  1.00  0.00    -0.107 A  
HETATM    5  C   UNL     1      -8.018   5.693  67.519  1.00  0.00    -0.102 A  
HETATM    6  C   UNL     1      -8.864   4.639  67.914  1.00  0.00    -0.117 A  
HETATM    7  C   UNL     1      -9.659   3.967  66.979  1.00  0.00    -0.227 A  
ENDROOT
BRANCH   5   8
HETATM    8  C   UNL     1      -7.101   6.413  68.524  1.00  0.00    -0.083 C  
BRANCH   8   9
HETATM    9  N   UNL     1      -6.142   7.334  67.851  1.00  0.00    -0.033 NA 
HETATM   10  C   UNL     1      -5.785   8.527  68.684  1.00  0.00    -0.037 C  
HETATM   11  C   UNL     1      -6.797   9.710  68.712  1.00  0.00    -0.051 C  
HETATM   12  C   UNL     1      -6.619   7.839  66.534  1.00  0.00    -0.054 C  
HETATM   13  C   UNL     1      -7.708   8.933  66.594  1.00  0.00    -0.100 C  
HETATM   14  N   UNL     1      -7.167  10.076  67.338  1.00  0.00    -0.085 NA 
BRANCH  14  15
HETATM   15  C   UNL     1      -7.952  11.229  67.291  1.00  0.00    -0.141 A  
HETATM   16  N   UNL     1      -8.762  11.400  66.256  1.00  0.00    -0.182 NA 
HETATM   17  C   UNL     1      -9.464  12.521  66.235  1.00  0.00    -0.210 A  
HETATM   18  N   UNL     1      -7.844  12.107  68.286  1.00  0.00    -0.145 NA 
HETATM   19  N   UNL     1      -9.367  13.476  67.145  1.00  0.00    -0.231 NA 
HETATM   20  C   UNL     1      -8.575  13.212  68.175  1.00  0.00    -0.181 A  
BRANCH  17  21
HETATM   21  N   UNL     1     -10.419  12.708  65.253  1.00  0.00    -0.284 NA 
HETATM   22  H   UNL     1     -10.984  13.557  65.215  1.00  0.00     0.000 HD 
BRANCH  21  23
HETATM   23  C   UNL     1     -10.582  11.654  64.285  1.00  0.00    -0.340 C  
BRANCH  23  24
HETATM   24  C   UNL     1     -11.689  12.090  63.378  1.00  0.00    -0.519 C  
HETATM   25  C   UNL     1     -12.283  13.291  63.409  1.00  0.00    -0.476 C  
ENDBRANCH  23  24
ENDBRANCH  21  23
ENDBRANCH  17  21
BRANCH  20  26
HETATM   26  N   UNL     1      -8.636  14.127  69.209  1.00  0.00    -0.341 NA 
HETATM   27  H   UNL     1      -8.129  13.957  70.079  1.00  0.00     0.000 HD 
BRANCH  26  28
HETATM   28  C   UNL     1      -9.424  15.324  69.048  1.00  0.00    -0.232 C  
BRANCH  28  29
HETATM   29  C   UNL     1     -10.471  15.347  70.131  1.00  0.00    -0.291 C  
HETATM   30  C   UNL     1     -11.150  16.435  70.521  1.00  0.00    -0.214 C  
ENDBRANCH  28  29
ENDBRANCH  26  28
ENDBRANCH  20  26
ENDBRANCH  14  15
ENDBRANCH   8   9
BRANCH   8  31
HETATM   31  C   UNL     1      -7.960   7.082  69.626  1.00  0.00    -0.124 A  
HETATM   32  C   UNL     1      -9.415   8.384  71.649  1.00  0.00    -0.214 A  
HETATM   33  C   UNL     1      -9.954   8.267  70.377  1.00  0.00    -0.196 A  
HETATM   34  F   UNL     1     -10.091   9.045  72.599  1.00  0.00    -0.270 F  
HETATM   35  C   UNL     1      -7.456   7.176  70.938  1.00  0.00    -0.080 A  
HETATM   36  C   UNL     1      -9.238   7.607  69.374  1.00  0.00    -0.149 A  
HETATM   37  C   UNL     1      -8.178   7.830  71.943  1.00  0.00    -0.128 A  
ENDBRANCH   8  31
ENDBRANCH   5   8
TORSDOF 10
ENDMDL
MODEL      211
REMARK 921   NORMALIZED FREE ENERGY PREDICTED BY IDOCK:   -1.75 KCAL/MOL
REMARK 922        TOTAL FREE ENERGY PREDICTED BY IDOCK:   -4.12 KCAL/MOL
REMARK 923 INTER-LIGAND FREE ENERGY PREDICTED BY IDOCK:   -3.45 KCAL/MOL
REMARK 924 INTRA-LIGAND FREE ENERGY PREDICTED BY IDOCK:   -0.67 KCAL/MOL
REMARK 927      BINDING AFFINITY PREDICTED BY RF-SCORE:    0.00 PKD
ROOT
HETATM    1  F   UNL     1      -8.402   3.783  65.641  1.00  0.00    -0.102 F  
HETATM    2  C   UNL     1      -8.034   4.278  66.830  1.00  0.00    -0.098 A  
HETATM    3  C   UNL     1      -8.785   3.975  67.960  1.00  0.00    -0.119 A  
HETATM    4  C   UNL     1      -8.422   4.514  69.197  1.00  0.00    -0.091 A  
HETATM    5  C   UNL     1      -7.301   5.359  69.313  1.00  0.00    -0.065 A  
HETATM    6  C   UNL     1      -6.536   5.616  68.158  1.00  0.00    -0.049 A  
HETATM    7  C   UNL     1      -6.908   5.084  66.919  1.00  0.00    -0.063 A  
ENDROOT
BRANCH   5   8
HETATM    8  C   UNL     1      -6.935   5.973  70.676  1.00  0.00    -0.063 C  
BRANCH   8   9
HETATM    9  N   UNL     1      -7.954   6.957  71.141  1.00  0.00    -0.101 NA 
HETATM   10  C   UNL     1      -9.056   7.177  70.150  1.00  0.00    -0.152 C  
HETATM   11  C   UNL     1      -8.767   8.140  68.960  1.00  0.00    -0.144 C  
HETATM   12  C   UNL     1      -7.389   8.292  71.481  1.00  0.00    -0.087 C  
HETATM   13  C   UNL     1      -7.005   9.179  70.277  1.00  0.00    -0.059 C  
HETATM   14  N   UNL     1      -8.210   9.400  69.469  1.00  0.00    -0.114 NA 
BRANCH  14  15
HETATM   15  C   UNL     1      -8.073  10.361  68.466  1.00  0.00    -0.116 A  
HETATM   16  N   UNL     1      -9.158  10.761  67.821  1.00  0.00    -0.150 NA 
HETATM   17  C   UNL     1      -8.980  11.649  66.857  1.00  0.00    -0.191 A  
HETATM   18  N   UNL     1      -6.854  10.826  68.201  1.00  0.00    -0.067 NA 
HETATM   19  N   UNL     1      -7.798  12.111  66.483  1.00  0.00     0.097 NA 
HETATM   20  C   UNL     1      -6.765  11.704  67.206  1.00  0.00    -0.124 A  
BRANCH  17  21
HETATM   21  N   UNL     1     -10.080  12.202  66.228  1.00  0.00    -0.220 NA 
HETATM   22  H   UNL     1     -10.978  12.288  66.704  1.00  0.00     0.000 HD 
BRANCH  21  23
HETATM   23  C   UNL     1      -9.903  12.653  64.872  1.00  0.00    -0.055 C  
BRANCH  23  24
HETATM   24  C   UNL     1     -10.698  13.914  64.745  1.00  0.00    -0.437 C  
HETATM   25  C   UNL     1     -11.671  14.298  65.584  1.00  0.00    -0.358 C  
ENDBRANCH  23  24
ENDBRANCH  21  23
ENDBRANCH  17  21
BRANCH  20  26
HETATM   26  N   UNL     1      -5.571  12.344  66.932  1.00  0.00    -0.436 NA 
HETATM   27  H   UNL     1      -4.821  11.850  66.446  1.00  0.00     0.000 HD 
BRANCH  26  28
HETATM   28  C   UNL     1      -5.395  13.717  67.338  1.00  0.00     0.278 C  
BRANCH  28  29
HETATM   29  C   UNL     1      -5.509  13.780  68.839  1.00  0.00    -0.074 C  
HETATM   30  C   UNL     1      -5.180  14.839  69.592  1.00  0.00    -0.092 C  
ENDBRANCH  28  29
ENDBRANCH  26  28
ENDBRANCH  20  26
ENDBRANCH  14  15
ENDBRANCH   8   9
BRANCH   8  31
HETATM   31  C   UNL     1      -6.629   4.844  71.691  1.00  0.00    -0.035 A  
HETATM   32  C   UNL     1      -6.196   2.737  73.502  1.00  0.00    -0.012 A  
HETATM   33  C   UNL     1      -5.275   2.982  72.496  1.00  0.00     0.000 A  
HETATM   34  F   UNL     1      -6.010   1.704  74.336  1.00  0.00    -0.003 F  
HETATM   35  C   UNL     1      -7.525   4.600  72.750  1.00  0.00    -0.086 A  
HETATM   36  C   UNL     1      -5.481   4.039  71.603  1.00  0.00    -0.007 A  
HETATM   37  C   UNL     1      -7.312   3.547  73.647  1.00  0.00    -0.060 A  
ENDBRANCH   8  31
ENDBRANCH   5   8
TORSDOF 10
ENDMDL
MODEL      212
REMARK 921   NORMALIZED FREE ENERGY PREDICTED BY IDOCK:   -1.75 KCAL/MOL
REMARK 922        TOTAL FREE ENERGY PREDICTED BY IDOCK:   -4.12 KCAL/MOL
REMARK 923 INTER-LIGAND FREE ENERGY PREDICTED BY IDOCK:   -6.25 KCAL/MOL
REMARK 924 INTRA-LIGAND FREE ENERGY PREDICTED BY IDOCK:    2.14 KCAL/MOL
REMARK 927      BINDING AFFINITY PREDICTED BY RF-SCORE:    0.00 PKD
ROOT
HETATM    1  F   UNL     1     -11.497  11.872  63.404  1.00  0.00    -0.451 F  
HETATM    2  C   UNL     1     -10.324  11.250  63.581  1.00  0.00    -0.408 A  
HETATM    3  C   UNL     1     -10.179  10.347  64.629  1.00  0.00    -0.305 A  
HETATM    4  C   UNL     1      -8.948   9.719  64.836  1.00  0.00    -0.257 A  
HETATM    5  C   UNL     1      -7.852   9.987  63.992  1.00  0.00    -0.150 A  
HETATM    6  C   UNL     1      -8.041  10.876  62.915  1.00  0.00    -0.005 A  
HETATM    7  C   UNL     1      -9.271  11.511  62.716  1.00  0.00    -0.193 A  
ENDROOT
BRANCH   5   8
HETATM    8  C   UNL     1      -6.493   9.314  64.254  1.00  0.00    -0.086 C  
BRANCH   8   9
HETATM    9  N   UNL     1      -5.850   9.815  65.502  1.00  0.00    -0.060 NA 
HETATM   10  C   UNL     1      -6.087   8.928  66.686  1.00  0.00    -0.060 C  
HETATM   11  C   UNL     1      -7.456   9.061  67.417  1.00  0.00    -0.085 C  
HETATM   12  C   UNL     1      -6.273  11.190  65.886  1.00  0.00     0.030 C  
HETATM   13  C   UNL     1      -7.683  11.305  66.505  1.00  0.00    -0.125 C  
HETATM   14  N   UNL     1      -7.721  10.476  67.714  1.00  0.00    -0.092 NA 
BRANCH  14  15
HETATM   15  C   UNL     1      -8.858  10.646  68.505  1.00  0.00    -0.148 A  
HETATM   16  N   UNL     1      -9.296   9.616  69.214  1.00  0.00    -0.169 NA 
HETATM   17  C   UNL     1     -10.395   9.811  69.924  1.00  0.00    -0.254 A  
HETATM   18  N   UNL     1      -9.455  11.836  68.502  1.00  0.00    -0.190 NA 
HETATM   19  N   UNL     1     -11.087  10.939  69.925  1.00  0.00    -0.263 NA 
HETATM   20  C   UNL     1     -10.562  11.939  69.232  1.00  0.00     0.025 A  
BRANCH  17  21
HETATM   21  N   UNL     1     -10.836   8.822  70.782  1.00  0.00    -0.224 NA 
HETATM   22  H   UNL     1     -11.686   8.291  70.590  1.00  0.00     0.000 HD 
BRANCH  21  23
HETATM   23  C   UNL     1     -10.046   8.572  71.959  1.00  0.00    -0.316 C  
BRANCH  23  24
HETATM   24  C   UNL     1      -9.697   7.117  71.926  1.00  0.00    -0.169 C  
HETATM   25  C   UNL     1     -10.485   6.148  71.440  1.00  0.00    -0.273 C  
ENDBRANCH  23  24
ENDBRANCH  21  23
ENDBRANCH  17  21
BRANCH  20  26
HETATM   26  N   UNL     1     -11.187  13.160  69.402  1.00  0.00    -0.427 NA 
HETATM   27  H   UNL     1     -10.895  13.970  68.853  1.00  0.00     0.000 HD 
BRANCH  26  28
HETATM   28  C   UNL     1     -12.255  13.279  70.364  1.00  0.00    -0.332 C  
BRANCH  28  29
HETATM   29  C   UNL     1     -12.856  14.654  70.230  1.00  0.00    -0.254 C  
HETATM   30  C   UNL     1     -13.117  15.482  71.252  1.00  0.00    -0.581 C  
ENDBRANCH  28  29
ENDBRANCH  26  28
ENDBRANCH  20  26
ENDBRANCH  14  15
ENDBRANCH   8   9
BRANCH   8  31
HETATM   31  C   UNL     1      -6.653   7.774  64.193  1.00  0.00    -0.057 A  
HETATM   32  C   UNL     1      -6.883   4.972  64.207  1.00  0.00    -0.048 A  
HETATM   33  C   UNL     1      -8.015   5.757  64.049  1.00  0.00    -0.121 A  
HETATM   34  F   UNL     1      -7.001   3.638  64.258  1.00  0.00    -0.041 F  
HETATM   35  C   UNL     1      -5.515   6.953  64.307  1.00  0.00    -0.032 A  
HETATM   36  C   UNL     1      -7.900   7.151  64.028  1.00  0.00    -0.113 A  
HETATM   37  C   UNL     1      -5.631   5.558  64.320  1.00  0.00    -0.017 A  
ENDBRANCH   8  31
ENDBRANCH   5   8
TORSDOF 10
ENDMDL
MODEL      213
REMARK 921   NORMALIZED FREE ENERGY PREDICTED BY IDOCK:   -1.75 KCAL/MOL
REMARK 922        TOTAL FREE ENERGY PREDICTED BY IDOCK:   -4.11 KCAL/MOL
REMARK 923 INTER-LIGAND FREE ENERGY PREDICTED BY IDOCK:   -5.06 KCAL/MOL
REMARK 924 INTRA-LIGAND FREE ENERGY PREDICTED BY IDOCK:    0.95 KCAL/MOL
REMARK 927      BINDING AFFINITY PREDICTED BY RF-SCORE:    0.00 PKD
ROOT
HETATM    1  F   UNL     1      -5.811  20.725  67.692  1.00  0.00    -0.219 F  
HETATM    2  C   UNL     1      -6.157  19.440  67.544  1.00  0.00    -0.194 A  
HETATM    3  C   UNL     1      -5.318  18.444  68.030  1.00  0.00    -0.165 A  
HETATM    4  C   UNL     1      -5.662  17.101  67.851  1.00  0.00    -0.127 A  
HETATM    5  C   UNL     1      -6.851  16.745  67.188  1.00  0.00    -0.231 A  
HETATM    6  C   UNL     1      -7.701  17.776  66.741  1.00  0.00    -0.258 A  
HETATM    7  C   UNL     1      -7.350  19.119  66.912  1.00  0.00    -0.220 A  
ENDROOT
BRANCH   5   8
HETATM    8  C   UNL     1      -7.198  15.261  66.967  1.00  0.00     0.024 C  
BRANCH   8   9
HETATM    9  N   UNL     1      -6.648  14.390  68.045  1.00  0.00    -0.133 NA 
HETATM   10  C   UNL     1      -6.452  12.969  67.612  1.00  0.00    -0.160 C  
HETATM   11  C   UNL     1      -7.705  12.045  67.597  1.00  0.00    -0.144 C  
HETATM   12  C   UNL     1      -7.479  14.367  69.281  1.00  0.00    -0.060 C  
HETATM   13  C   UNL     1      -8.776  13.533  69.197  1.00  0.00     0.544 C  
HETATM   14  N   UNL     1      -8.410  12.147  68.883  1.00  0.00     0.090 NA 
BRANCH  14  15
HETATM   15  C   UNL     1      -9.455  11.228  68.989  1.00  0.00    -0.013 A  
HETATM   16  N   UNL     1      -9.586  10.309  68.044  1.00  0.00    -0.145 NA 
HETATM   17  C   UNL     1     -10.608   9.478  68.166  1.00  0.00    -0.217 A  
HETATM   18  N   UNL     1     -10.275  11.325  70.032  1.00  0.00     0.672 NA 
HETATM   19  N   UNL     1     -11.509   9.547  69.132  1.00  0.00     0.136 NA 
HETATM   20  C   UNL     1     -11.284  10.459  70.067  1.00  0.00    -0.316 A  
BRANCH  17  21
HETATM   21  N   UNL     1     -10.733   8.418  67.287  1.00  0.00    -0.462 NA 
HETATM   22  H   UNL     1     -10.825   8.569  66.282  1.00  0.00     0.000 HD 
BRANCH  21  23
HETATM   23  C   UNL     1     -10.728   7.094  67.850  1.00  0.00    -0.192 C  
BRANCH  23  24
HETATM   24  C   UNL     1      -9.512   6.414  67.305  1.00  0.00    -0.135 C  
HETATM   25  C   UNL     1      -8.859   6.779  66.192  1.00  0.00    -0.161 C  
ENDBRANCH  23  24
ENDBRANCH  21  23
ENDBRANCH  17  21
BRANCH  20  26
HETATM   26  N   UNL     1     -12.118  10.387  71.167  1.00  0.00    -0.375 NA 
HETATM   27  H   UNL     1     -12.049  11.081  71.913  1.00  0.00     0.000 HD 
BRANCH  26  28
HETATM   28  C   UNL     1     -13.088   9.323  71.250  1.00  0.00    -0.265 C  
BRANCH  28  29
HETATM   29  C   UNL     1     -12.368   8.065  71.663  1.00  0.00    -0.344 C  
HETATM   30  C   UNL     1     -12.825   6.819  71.472  1.00  0.00    -0.312 C  
ENDBRANCH  28  29
ENDBRANCH  26  28
ENDBRANCH  20  26
ENDBRANCH  14  15
ENDBRANCH   8   9
BRANCH   8  31
HETATM   31  C   UNL     1      -8.723  15.110  66.740  1.00  0.00    -0.307 A  
HETATM   32  C   UNL     1     -11.476  14.698  66.347  1.00  0.00    -0.347 A  
HETATM   33  C   UNL     1     -11.042  15.566  67.337  1.00  0.00    -0.285 A  
HETATM   34  F   UNL     1     -12.788  14.469  66.191  1.00  0.00    -0.372 F  
HETATM   35  C   UNL     1      -9.192  14.268  65.714  1.00  0.00     0.187 A  
HETATM   36  C   UNL     1      -9.674  15.783  67.525  1.00  0.00    -0.226 A  
HETATM   37  C   UNL     1     -10.563  14.058  65.522  1.00  0.00    -0.327 A  
ENDBRANCH   8  31
ENDBRANCH   5   8
TORSDOF 10
ENDMDL
MODEL      214
REMARK 921   NORMALIZED FREE ENERGY PREDICTED BY IDOCK:   -1.69 KCAL/MOL
REMARK 922        TOTAL FREE ENERGY PREDICTED BY IDOCK:   -4.03 KCAL/MOL
REMARK 923 INTER-LIGAND FREE ENERGY PREDICTED BY IDOCK:   -5.23 KCAL/MOL
REMARK 924 INTRA-LIGAND FREE ENERGY PREDICTED BY IDOCK:    1.19 KCAL/MOL
REMARK 927      BINDING AFFINITY PREDICTED BY RF-SCORE:    0.00 PKD
ROOT
HETATM    1  F   UNL     1     -12.797  15.708  72.374  1.00  0.00    -0.373 F  
HETATM    2  C   UNL     1     -12.057  15.523  71.273  1.00  0.00    -0.386 A  
HETATM    3  C   UNL     1     -12.266  14.395  70.488  1.00  0.00    -0.411 A  
HETATM    4  C   UNL     1     -11.476  14.183  69.356  1.00  0.00    -0.337 A  
HETATM    5  C   UNL     1     -10.471  15.102  68.997  1.00  0.00    -0.248 A  
HETATM    6  C   UNL     1     -10.309  16.256  69.788  1.00  0.00    -0.219 A  
HETATM    7  C   UNL     1     -11.094  16.461  70.928  1.00  0.00    -0.073 A  
ENDROOT
BRANCH   5   8
HETATM    8  C   UNL     1      -9.585  14.836  67.766  1.00  0.00    -0.209 C  
BRANCH   8   9
HETATM    9  N   UNL     1      -8.293  14.188  68.133  1.00  0.00    -0.152 NA 
HETATM   10  C   UNL     1      -7.770  13.271  67.070  1.00  0.00     0.124 C  
HETATM   11  C   UNL     1      -8.386  11.843  66.990  1.00  0.00    -0.178 C  
HETATM   12  C   UNL     1      -8.351  13.411  69.402  1.00  0.00     0.915 C  
HETATM   13  C   UNL     1      -9.070  12.047  69.316  1.00  0.00     0.766 C  
HETATM   14  N   UNL     1      -8.372  11.224  68.322  1.00  0.00    -0.142 NA 
BRANCH  14  15
HETATM   15  C   UNL     1      -8.770   9.886  68.288  1.00  0.00    -0.119 A  
HETATM   16  N   UNL     1      -9.599   9.450  69.224  1.00  0.00    -0.165 NA 
HETATM   17  C   UNL     1      -9.926   8.169  69.174  1.00  0.00    -0.192 A  
HETATM   18  N   UNL     1      -8.288   9.110  67.320  1.00  0.00    -0.120 NA 
HETATM   19  N   UNL     1      -9.440   7.313  68.288  1.00  0.00    -0.141 NA 
HETATM   20  C   UNL     1      -8.656   7.833  67.355  1.00  0.00    -0.125 A  
BRANCH  17  21
HETATM   21  N   UNL     1     -10.882   7.674  70.040  1.00  0.00    -0.248 NA 
HETATM   22  H   UNL     1     -11.708   7.184  69.697  1.00  0.00     0.000 HD 
BRANCH  21  23
HETATM   23  C   UNL     1     -10.663   7.881  71.448  1.00  0.00    -0.224 C  
BRANCH  23  24
HETATM   24  C   UNL     1      -9.424   7.115  71.794  1.00  0.00    -0.160 C  
HETATM   25  C   UNL     1      -9.368   6.090  72.656  1.00  0.00    -0.147 C  
ENDBRANCH  23  24
ENDBRANCH  21  23
ENDBRANCH  17  21
BRANCH  20  26
HETATM   26  N   UNL     1      -8.319   6.971  66.328  1.00  0.00    -0.123 NA 
HETATM   27  H   UNL     1      -7.686   6.188  66.498  1.00  0.00     0.000 HD 
BRANCH  26  28
HETATM   28  C   UNL     1      -8.870   7.189  65.013  1.00  0.00     0.349 C  
BRANCH  28  29
HETATM   29  C   UNL     1      -7.803   7.818  64.155  1.00  0.00    -0.133 C  
HETATM   30  C   UNL     1      -7.045   7.161  63.266  1.00  0.00    -0.065 C  
ENDBRANCH  28  29
ENDBRANCH  26  28
ENDBRANCH  20  26
ENDBRANCH  14  15
ENDBRANCH   8   9
BRANCH   8  31
HETATM   31  C   UNL     1     -10.399  14.072  66.693  1.00  0.00    -0.278 A  
HETATM   32  C   UNL     1     -11.757  12.645  64.687  1.00  0.00    -0.357 A  
HETATM   33  C   UNL     1     -11.997  12.357  66.021  1.00  0.00    -0.419 A  
HETATM   34  F   UNL     1     -12.372  11.933  63.732  1.00  0.00    -0.513 F  
HETATM   35  C   UNL     1     -10.209  14.374  65.331  1.00  0.00    -0.408 A  
HETATM   36  C   UNL     1     -11.332  13.075  67.021  1.00  0.00    -0.343 A  
HETATM   37  C   UNL     1     -10.881  13.659  64.332  1.00  0.00    -0.374 A  
ENDBRANCH   8  31
ENDBRANCH   5   8
TORSDOF 10
ENDMDL
MODEL      215
REMARK 921   NORMALIZED FREE ENERGY PREDICTED BY IDOCK:   -1.67 KCAL/MOL
REMARK 922        TOTAL FREE ENERGY PREDICTED BY IDOCK:   -3.99 KCAL/MOL
REMARK 923 INTER-LIGAND FREE ENERGY PREDICTED BY IDOCK:   -4.79 KCAL/MOL
REMARK 924 INTRA-LIGAND FREE ENERGY PREDICTED BY IDOCK:    0.81 KCAL/MOL
REMARK 927      BINDING AFFINITY PREDICTED BY RF-SCORE:    0.00 PKD
ROOT
HETATM    1  F   UNL     1     -12.096  11.132  71.172  1.00  0.00    -0.412 F  
HETATM    2  C   UNL     1     -11.224  10.384  70.484  1.00  0.00    -0.314 A  
HETATM    3  C   UNL     1     -10.036   9.987  71.088  1.00  0.00     0.608 A  
HETATM    4  C   UNL     1      -9.110   9.232  70.363  1.00  0.00    -0.288 A  
HETATM    5  C   UNL     1      -9.368   8.864  69.028  1.00  0.00    -0.144 A  
HETATM    6  C   UNL     1     -10.597   9.247  68.456  1.00  0.00    -0.222 A  
HETATM    7  C   UNL     1     -11.518  10.012  69.180  1.00  0.00    -0.090 A  
ENDROOT
BRANCH   5   8
HETATM    8  C   UNL     1      -8.322   8.062  68.232  1.00  0.00    -0.123 C  
BRANCH   8   9
HETATM    9  N   UNL     1      -7.033   8.799  68.097  1.00  0.00    -0.073 NA 
HETATM   10  C   UNL     1      -6.830   9.833  69.162  1.00  0.00    -0.054 C  
HETATM   11  C   UNL     1      -7.554  11.200  68.980  1.00  0.00    -0.119 C  
HETATM   12  C   UNL     1      -6.865   9.477  66.782  1.00  0.00    -0.080 C  
HETATM   13  C   UNL     1      -7.685  10.771  66.589  1.00  0.00    -0.141 C  
HETATM   14  N   UNL     1      -7.290  11.724  67.633  1.00  0.00    -0.110 NA 
BRANCH  14  15
HETATM   15  C   UNL     1      -7.784  13.018  67.462  1.00  0.00    -0.168 A  
HETATM   16  N   UNL     1      -7.252  13.997  68.177  1.00  0.00    -0.113 NA 
HETATM   17  C   UNL     1      -7.770  15.202  68.008  1.00  0.00    -0.124 A  
HETATM   18  N   UNL     1      -8.773  13.204  66.591  1.00  0.00    -0.079 NA 
HETATM   19  N   UNL     1      -8.798  15.463  67.216  1.00  0.00    -0.185 NA 
HETATM   20  C   UNL     1      -9.244  14.444  66.496  1.00  0.00    -0.244 A  
BRANCH  17  21
HETATM   21  N   UNL     1      -7.184  16.290  68.626  1.00  0.00    -0.156 NA 
HETATM   22  H   UNL     1      -7.738  17.090  68.932  1.00  0.00     0.000 HD 
BRANCH  21  23
HETATM   23  C   UNL     1      -5.758  16.246  68.821  1.00  0.00    -0.110 C  
BRANCH  23  24
HETATM   24  C   UNL     1      -5.207  17.457  68.138  1.00  0.00    -0.129 C  
HETATM   25  C   UNL     1      -5.799  18.108  67.126  1.00  0.00    -0.158 C  
ENDBRANCH  23  24
ENDBRANCH  21  23
ENDBRANCH  17  21
BRANCH  20  26
HETATM   26  N   UNL     1     -10.181  14.773  65.534  1.00  0.00    -0.348 NA 
HETATM   27  H   UNL     1      -9.899  15.272  64.689  1.00  0.00     0.000 HD 
BRANCH  26  28
HETATM   28  C   UNL     1     -11.561  14.405  65.736  1.00  0.00    -0.353 C  
BRANCH  28  29
HETATM   29  C   UNL     1     -11.827  13.139  64.965  1.00  0.00    -0.390 C  
HETATM   30  C   UNL     1     -11.971  11.922  65.510  1.00  0.00    -0.030 C  
ENDBRANCH  28  29
ENDBRANCH  26  28
ENDBRANCH  20  26
ENDBRANCH  14  15
ENDBRANCH   8   9
BRANCH   8  31
HETATM   31  C   UNL     1      -8.185   6.642  68.835  1.00  0.00    -0.120 A  
HETATM   32  C   UNL     1      -8.067   4.040  69.893  1.00  0.00    -0.054 A  
HETATM   33  C   UNL     1      -7.150   4.437  68.932  1.00  0.00    -0.052 A  
HETATM   34  F   UNL     1      -8.037   2.784  70.362  1.00  0.00    -0.043 F  
HETATM   35  C   UNL     1      -9.075   6.227  69.844  1.00  0.00    -0.145 A  
HETATM   36  C   UNL     1      -7.198   5.735  68.415  1.00  0.00    -0.079 A  
HETATM   37  C   UNL     1      -9.020   4.929  70.365  1.00  0.00    -0.151 A  
ENDBRANCH   8  31
ENDBRANCH   5   8
TORSDOF 10
ENDMDL
MODEL      216
REMARK 921   NORMALIZED FREE ENERGY PREDICTED BY IDOCK:   -1.59 KCAL/MOL
REMARK 922        TOTAL FREE ENERGY PREDICTED BY IDOCK:   -3.87 KCAL/MOL
REMARK 923 INTER-LIGAND FREE ENERGY PREDICTED BY IDOCK:   -5.36 KCAL/MOL
REMARK 924 INTRA-LIGAND FREE ENERGY PREDICTED BY IDOCK:    1.49 KCAL/MOL
REMARK 927      BINDING AFFINITY PREDICTED BY RF-SCORE:    0.00 PKD
ROOT
HETATM    1  F   UNL     1     -13.396   5.546  72.416  1.00  0.00     0.055 F  
HETATM    2  C   UNL     1     -12.087   5.338  72.607  1.00  0.00     0.156 A  
HETATM    3  C   UNL     1     -11.670   4.258  73.376  1.00  0.00    -0.103 A  
HETATM    4  C   UNL     1     -10.306   4.056  73.603  1.00  0.00    -0.237 A  
HETATM    5  C   UNL     1      -9.348   4.931  73.056  1.00  0.00    -0.142 A  
HETATM    6  C   UNL     1      -9.798   5.993  72.248  1.00  0.00    -0.178 A  
HETATM    7  C   UNL     1     -11.165   6.200  72.031  1.00  0.00    -0.335 A  
ENDROOT
BRANCH   5   8
HETATM    8  C   UNL     1      -7.851   4.714  73.344  1.00  0.00    -0.095 C  
BRANCH   8   9
HETATM    9  N   UNL     1      -7.183   3.917  72.277  1.00  0.00    -0.051 NA 
HETATM   10  C   UNL     1      -6.584   4.764  71.195  1.00  0.00    -0.027 C  
HETATM   11  C   UNL     1      -7.546   5.306  70.096  1.00  0.00    -0.072 C  
HETATM   12  C   UNL     1      -8.078   2.925  71.620  1.00  0.00    -0.057 C  
HETATM   13  C   UNL     1      -9.098   3.507  70.618  1.00  0.00    -0.116 C  
HETATM   14  N   UNL     1      -8.356   4.203  69.561  1.00  0.00    -0.058 NA 
BRANCH  14  15
HETATM   15  C   UNL     1      -9.128   4.596  68.466  1.00  0.00    -0.120 A  
HETATM   16  N   UNL     1      -9.753   5.763  68.520  1.00  0.00    -0.125 NA 
HETATM   17  C   UNL     1     -10.499   6.082  67.475  1.00  0.00    -0.240 A  
HETATM   18  N   UNL     1      -9.205   3.774  67.422  1.00  0.00    -0.168 NA 
HETATM   19  N   UNL     1     -10.685   5.295  66.428  1.00  0.00    -0.293 NA 
HETATM   20  C   UNL     1      -9.988   4.167  66.423  1.00  0.00    -0.155 A  
BRANCH  17  21
HETATM   21  N   UNL     1     -11.078   7.335  67.409  1.00  0.00    -0.575 NA 
HETATM   22  H   UNL     1     -11.945   7.494  66.896  1.00  0.00     0.000 HD 
BRANCH  21  23
HETATM   23  C   UNL     1     -10.405   8.407  68.095  1.00  0.00    -0.204 C  
BRANCH  23  24
HETATM   24  C   UNL     1     -10.461   9.589  67.178  1.00  0.00    -0.322 C  
HETATM   25  C   UNL     1      -9.946   9.628  65.941  1.00  0.00    -0.351 C  
ENDBRANCH  23  24
ENDBRANCH  21  23
ENDBRANCH  17  21
BRANCH  20  26
HETATM   26  N   UNL     1     -10.040   3.454  65.240  1.00  0.00    -0.394 NA 
HETATM   27  H   UNL     1     -10.415   2.505  65.226  1.00  0.00     0.000 HD 
BRANCH  26  28
HETATM   28  C   UNL     1      -9.557   4.064  64.025  1.00  0.00    -0.160 C  
BRANCH  28  29
HETATM   29  C   UNL     1      -8.767   3.032  63.264  1.00  0.00    -0.089 C  
HETATM   30  C   UNL     1      -9.299   2.020  62.563  1.00  0.00    -0.090 C  
ENDBRANCH  28  29
ENDBRANCH  26  28
ENDBRANCH  20  26
ENDBRANCH  14  15
ENDBRANCH   8   9
BRANCH   8  31
HETATM   31  C   UNL     1      -7.175   6.076  73.641  1.00  0.00    -0.088 A  
HETATM   32  C   UNL     1      -5.911   8.555  74.045  1.00  0.00    -0.124 A  
HETATM   33  C   UNL     1      -7.247   8.398  74.380  1.00  0.00    -0.231 A  
HETATM   34  F   UNL     1      -5.323   9.750  74.197  1.00  0.00    -0.138 F  
HETATM   35  C   UNL     1      -5.808   6.250  73.351  1.00  0.00    -0.053 A  
HETATM   36  C   UNL     1      -7.874   7.162  74.193  1.00  0.00    -0.136 A  
HETATM   37  C   UNL     1      -5.181   7.487  73.547  1.00  0.00    -0.041 A  
ENDBRANCH   8  31
ENDBRANCH   5   8
TORSDOF 10
ENDMDL
MODEL      217
REMARK 921   NORMALIZED FREE ENERGY PREDICTED BY IDOCK:   -1.54 KCAL/MOL
REMARK 922        TOTAL FREE ENERGY PREDICTED BY IDOCK:   -3.78 KCAL/MOL
REMARK 923 INTER-LIGAND FREE ENERGY PREDICTED BY IDOCK:   -4.76 KCAL/MOL
REMARK 924 INTRA-LIGAND FREE ENERGY PREDICTED BY IDOCK:    0.98 KCAL/MOL
REMARK 927      BINDING AFFINITY PREDICTED BY RF-SCORE:    0.00 PKD
ROOT
HETATM    1  F   UNL     1      -9.772  18.070  65.973  1.00  0.00    -0.298 F  
HETATM    2  C   UNL     1      -9.882  16.831  66.469  1.00  0.00    -0.290 A  
HETATM    3  C   UNL     1      -8.776  15.990  66.463  1.00  0.00    -0.338 A  
HETATM    4  C   UNL     1      -8.895  14.686  66.952  1.00  0.00    -0.267 A  
HETATM    5  C   UNL     1     -10.123  14.215  67.454  1.00  0.00    -0.240 A  
HETATM    6  C   UNL     1     -11.216  15.103  67.484  1.00  0.00    -0.331 A  
HETATM    7  C   UNL     1     -11.098  16.404  66.985  1.00  0.00     0.067 A  
ENDROOT
BRANCH   5   8
HETATM    8  C   UNL     1     -10.247  12.765  67.956  1.00  0.00    -0.228 C  
BRANCH   8   9
HETATM    9  N   UNL     1     -11.202  11.967  67.136  1.00  0.00    -0.299 NA 
HETATM   10  C   UNL     1     -11.738  10.767  67.856  1.00  0.00     0.027 C  
HETATM   11  C   UNL     1     -10.832   9.501  67.912  1.00  0.00    -0.180 C  
HETATM   12  C   UNL     1     -10.633  11.492  65.845  1.00  0.00    -0.268 C  
HETATM   13  C   UNL     1      -9.648  10.307  65.945  1.00  0.00    -0.209 C  
HETATM   14  N   UNL     1     -10.353   9.177  66.561  1.00  0.00    -0.241 NA 
BRANCH  14  15
HETATM   15  C   UNL     1      -9.662   7.965  66.522  1.00  0.00    -0.209 A  
HETATM   16  N   UNL     1     -10.356   6.839  66.583  1.00  0.00    -0.188 NA 
HETATM   17  C   UNL     1      -9.661   5.714  66.575  1.00  0.00    -0.155 A  
HETATM   18  N   UNL     1      -8.334   8.000  66.431  1.00  0.00    -0.118 NA 
HETATM   19  N   UNL     1      -8.339   5.659  66.557  1.00  0.00    -0.109 NA 
HETATM   20  C   UNL     1      -7.715   6.823  66.445  1.00  0.00    -0.098 A  
BRANCH  17  21
HETATM   21  N   UNL     1     -10.324   4.503  66.511  1.00  0.00    -0.323 NA 
HETATM   22  H   UNL     1     -11.199   4.348  67.012  1.00  0.00     0.000 HD 
BRANCH  21  23
HETATM   23  C   UNL     1      -9.727   3.469  65.706  1.00  0.00    -0.049 C  
BRANCH  23  24
HETATM   24  C   UNL     1      -9.587   2.276  66.598  1.00  0.00     0.309 C  
HETATM   25  C   UNL     1      -9.411   2.323  67.926  1.00  0.00    -0.232 C  
ENDBRANCH  23  24
ENDBRANCH  21  23
ENDBRANCH  17  21
BRANCH  20  26
HETATM   26  N   UNL     1      -6.352   6.738  66.228  1.00  0.00    -0.044 NA 
HETATM   27  H   UNL     1      -5.916   7.269  65.474  1.00  0.00     0.000 HD 
BRANCH  26  28
HETATM   28  C   UNL     1      -5.554   5.889  67.078  1.00  0.00    -0.016 C  
BRANCH  28  29
HETATM   29  C   UNL     1      -5.535   6.492  68.459  1.00  0.00    -0.012 C  
HETATM   30  C   UNL     1      -5.903   5.857  69.580  1.00  0.00    -0.020 C  
ENDBRANCH  28  29
ENDBRANCH  26  28
ENDBRANCH  20  26
ENDBRANCH  14  15
ENDBRANCH   8   9
BRANCH   8  31
HETATM   31  C   UNL     1      -8.838  12.136  68.087  1.00  0.00    -0.187 A  
HETATM   32  C   UNL     1      -6.340  10.871  68.339  1.00  0.00    -0.053 A  
HETATM   33  C   UNL     1      -6.619  11.629  67.213  1.00  0.00    -0.122 A  
HETATM   34  F   UNL     1      -5.165  10.232  68.436  1.00  0.00    -0.036 F  
HETATM   35  C   UNL     1      -8.511  11.397  69.240  1.00  0.00     0.277 A  
HETATM   36  C   UNL     1      -7.855  12.271  67.092  1.00  0.00    -0.149 A  
HETATM   37  C   UNL     1      -7.269  10.762  69.362  1.00  0.00    -0.132 A  
ENDBRANCH   8  31
ENDBRANCH   5   8
TORSDOF 10
ENDMDL
MODEL      218
REMARK 921   NORMALIZED FREE ENERGY PREDICTED BY IDOCK:   -1.17 KCAL/MOL
REMARK 922        TOTAL FREE ENERGY PREDICTED BY IDOCK:   -3.21 KCAL/MOL
REMARK 923 INTER-LIGAND FREE ENERGY PREDICTED BY IDOCK:   -3.91 KCAL/MOL
REMARK 924 INTRA-LIGAND FREE ENERGY PREDICTED BY IDOCK:    0.70 KCAL/MOL
REMARK 927      BINDING AFFINITY PREDICTED BY RF-SCORE:    0.00 PKD
ROOT
HETATM    1  F   UNL     1      -7.503   8.801  74.338  1.00  0.00    -0.233 F  
HETATM    2  C   UNL     1      -8.006   8.916  73.102  1.00  0.00     0.530 A  
HETATM    3  C   UNL     1      -7.154   9.197  72.040  1.00  0.00     0.232 A  
HETATM    4  C   UNL     1      -7.679   9.348  70.753  1.00  0.00    -0.144 A  
HETATM    5  C   UNL     1      -9.061   9.214  70.519  1.00  0.00    -0.284 A  
HETATM    6  C   UNL     1      -9.894   8.889  71.608  1.00  0.00    -0.387 A  
HETATM    7  C   UNL     1      -9.368   8.749  72.897  1.00  0.00     0.202 A  
ENDROOT
BRANCH   5   8
HETATM    8  C   UNL     1      -9.628   9.418  69.102  1.00  0.00    -0.163 C  
BRANCH   8   9
HETATM    9  N   UNL     1     -10.513   8.294  68.684  1.00  0.00    -0.198 NA 
HETATM   10  C   UNL     1     -10.321   7.055  69.505  1.00  0.00    -0.213 C  
HETATM   11  C   UNL     1      -9.109   6.143  69.152  1.00  0.00    -0.128 C  
HETATM   12  C   UNL     1     -10.359   7.907  67.255  1.00  0.00    -0.307 C  
HETATM   13  C   UNL     1      -9.087   7.100  66.916  1.00  0.00    -0.141 C  
HETATM   14  N   UNL     1      -9.103   5.866  67.709  1.00  0.00    -0.111 NA 
BRANCH  14  15
HETATM   15  C   UNL     1      -8.130   4.930  67.354  1.00  0.00    -0.106 A  
HETATM   16  N   UNL     1      -8.022   3.826  68.077  1.00  0.00    -0.076 NA 
HETATM   17  C   UNL     1      -7.067   2.981  67.726  1.00  0.00    -0.050 A  
HETATM   18  N   UNL     1      -7.352   5.197  66.307  1.00  0.00    -0.080 NA 
HETATM   19  N   UNL     1      -6.207   3.199  66.744  1.00  0.00    -0.024 NA 
HETATM   20  C   UNL     1      -6.409   4.300  66.034  1.00  0.00    -0.033 A  
BRANCH  17  21
HETATM   21  N   UNL     1      -6.977   1.754  68.356  1.00  0.00    -0.039 NA 
HETATM   22  H   UNL     1      -7.575   0.973  68.087  1.00  0.00     0.000 HD 
BRANCH  21  23
HETATM   23  C   UNL     1      -6.003   1.625  69.408  1.00  0.00    -0.023 C  
BRANCH  23  24
HETATM   24  C   UNL     1      -6.419   2.582  70.481  1.00  0.00    -0.028 C  
HETATM   25  C   UNL     1      -6.227   3.908  70.447  1.00  0.00    -0.023 C  
ENDBRANCH  23  24
ENDBRANCH  21  23
ENDBRANCH  17  21
BRANCH  20  26
HETATM   26  N   UNL     1      -5.631   4.413  64.897  1.00  0.00    -0.013 NA 
HETATM   27  H   UNL     1      -4.791   3.845  64.788  1.00  0.00     0.000 HD 
BRANCH  26  28
HETATM   28  C   UNL     1      -6.020   5.343  63.866  1.00  0.00    -0.021 C  
BRANCH  28  29
HETATM   29  C   UNL     1      -5.425   6.687  64.197  1.00  0.00    -0.027 C  
HETATM   30  C   UNL     1      -6.117   7.747  64.638  1.00  0.00    -0.041 C  
ENDBRANCH  28  29
ENDBRANCH  26  28
ENDBRANCH  20  26
ENDBRANCH  14  15
ENDBRANCH   8   9
BRANCH   8  31
HETATM   31  C   UNL     1     -10.283  10.818  69.000  1.00  0.00    -0.229 A  
HETATM   32  C   UNL     1     -11.444  13.378  68.948  1.00  0.00    -0.304 A  
HETATM   33  C   UNL     1     -10.412  13.070  68.075  1.00  0.00    -0.234 A  
HETATM   34  F   UNL     1     -11.965  14.613  68.953  1.00  0.00    -0.315 F  
HETATM   35  C   UNL     1     -11.361  11.143  69.844  1.00  0.00    -0.348 A  
HETATM   36  C   UNL     1      -9.843  11.793  68.090  1.00  0.00    -0.190 A  
HETATM   37  C   UNL     1     -11.935  12.420  69.823  1.00  0.00    -0.359 A  
ENDBRANCH   8  31
ENDBRANCH   5   8
TORSDOF 10
ENDMDL
MODEL      219
REMARK 921   NORMALIZED FREE ENERGY PREDICTED BY IDOCK:   -1.01 KCAL/MOL
REMARK 922        TOTAL FREE ENERGY PREDICTED BY IDOCK:   -2.94 KCAL/MOL
REMARK 923 INTER-LIGAND FREE ENERGY PREDICTED BY IDOCK:   -4.00 KCAL/MOL
REMARK 924 INTRA-LIGAND FREE ENERGY PREDICTED BY IDOCK:    1.06 KCAL/MOL
REMARK 927      BINDING AFFINITY PREDICTED BY RF-SCORE:    0.00 PKD
ROOT
HETATM    1  F   UNL     1      -8.612  16.017  66.377  1.00  0.00    -0.255 F  
HETATM    2  C   UNL     1      -8.900  14.846  66.958  1.00  0.00    -0.232 A  
HETATM    3  C   UNL     1      -7.894  13.904  67.138  1.00  0.00    -0.036 A  
HETATM    4  C   UNL     1      -8.197  12.669  67.717  1.00  0.00    -0.171 A  
HETATM    5  C   UNL     1      -9.511  12.369  68.125  1.00  0.00    -0.214 A  
HETATM    6  C   UNL     1     -10.502  13.358  67.967  1.00  0.00    -0.243 A  
HETATM    7  C   UNL     1     -10.198  14.589  67.378  1.00  0.00    -0.240 A  
ENDROOT
BRANCH   5   8
HETATM    8  C   UNL     1      -9.836  10.990  68.729  1.00  0.00    -0.198 C  
BRANCH   8   9
HETATM    9  N   UNL     1     -10.598  10.127  67.782  1.00  0.00    -0.236 NA 
HETATM   10  C   UNL     1     -11.340   9.017  68.461  1.00  0.00     0.571 C  
HETATM   11  C   UNL     1     -10.526   7.749  68.856  1.00  0.00    -0.194 C  
HETATM   12  C   UNL     1      -9.756   9.513  66.718  1.00  0.00    -0.197 C  
HETATM   13  C   UNL     1      -8.873   8.329  67.168  1.00  0.00    -0.137 C  
HETATM   14  N   UNL     1      -9.751   7.280  67.699  1.00  0.00    -0.138 NA 
BRANCH  14  15
HETATM   15  C   UNL     1      -9.121   6.059  67.945  1.00  0.00    -0.117 A  
HETATM   16  N   UNL     1      -7.901   6.070  68.460  1.00  0.00    -0.098 NA 
HETATM   17  C   UNL     1      -7.327   4.893  68.647  1.00  0.00    -0.062 A  
HETATM   18  N   UNL     1      -9.774   4.940  67.641  1.00  0.00    -0.151 NA 
HETATM   19  N   UNL     1      -7.878   3.737  68.310  1.00  0.00    -0.071 NA 
HETATM   20  C   UNL     1      -9.118   3.803  67.847  1.00  0.00    -0.152 A  
BRANCH  17  21
HETATM   21  N   UNL     1      -6.108   4.823  69.295  1.00  0.00    -0.025 NA 
HETATM   22  H   UNL     1      -5.276   4.469  68.825  1.00  0.00     0.000 HD 
BRANCH  21  23
HETATM   23  C   UNL     1      -6.065   5.272  70.663  1.00  0.00    -0.022 C  
BRANCH  23  24
HETATM   24  C   UNL     1      -6.852   4.275  71.454  1.00  0.00    -0.031 C  
HETATM   25  C   UNL     1      -8.019   4.525  72.065  1.00  0.00    -0.099 C  
ENDBRANCH  23  24
ENDBRANCH  21  23
ENDBRANCH  17  21
BRANCH  20  26
HETATM   26  N   UNL     1      -9.747   2.582  67.687  1.00  0.00    -0.334 NA 
HETATM   27  H   UNL     1     -10.670   2.421  68.091  1.00  0.00     0.000 HD 
BRANCH  26  28
HETATM   28  C   UNL     1      -9.086   1.538  66.943  1.00  0.00    -0.066 C  
BRANCH  28  29
HETATM   29  C   UNL     1      -9.142   1.896  65.481  1.00  0.00    -0.079 C  
HETATM   30  C   UNL     1      -8.077   2.171  64.714  1.00  0.00    -0.078 C  
ENDBRANCH  28  29
ENDBRANCH  26  28
ENDBRANCH  20  26
ENDBRANCH  14  15
ENDBRANCH   8   9
BRANCH   8  31
HETATM   31  C   UNL     1      -8.540  10.344  69.279  1.00  0.00    -0.159 A  
HETATM   32  C   UNL     1      -6.251   9.046  70.270  1.00  0.00    -0.043 A  
HETATM   33  C   UNL     1      -6.161   9.833  69.132  1.00  0.00    -0.037 A  
HETATM   34  F   UNL     1      -5.168   8.392  70.714  1.00  0.00    -0.025 F  
HETATM   35  C   UNL     1      -8.594   9.574  70.457  1.00  0.00    -0.231 A  
HETATM   36  C   UNL     1      -7.295  10.491  68.646  1.00  0.00    -0.091 A  
HETATM   37  C   UNL     1      -7.455   8.923  70.946  1.00  0.00    -0.110 A  
ENDBRANCH   8  31
ENDBRANCH   5   8
TORSDOF 10
ENDMDL
MODEL      220
REMARK 921   NORMALIZED FREE ENERGY PREDICTED BY IDOCK:   -0.74 KCAL/MOL
REMARK 922        TOTAL FREE ENERGY PREDICTED BY IDOCK:   -2.51 KCAL/MOL
REMARK 923 INTER-LIGAND FREE ENERGY PREDICTED BY IDOCK:   -5.06 KCAL/MOL
REMARK 924 INTRA-LIGAND FREE ENERGY PREDICTED BY IDOCK:    2.54 KCAL/MOL
REMARK 927      BINDING AFFINITY PREDICTED BY RF-SCORE:    0.00 PKD
ROOT
HETATM    1  F   UNL     1      -7.756   8.407  63.022  1.00  0.00    -0.105 F  
HETATM    2  C   UNL     1      -8.175   8.923  64.184  1.00  0.00    -0.167 A  
HETATM    3  C   UNL     1      -9.405   9.568  64.243  1.00  0.00    -0.077 A  
HETATM    4  C   UNL     1      -9.832  10.135  65.447  1.00  0.00    -0.375 A  
HETATM    5  C   UNL     1      -9.032  10.057  66.603  1.00  0.00    -0.156 A  
HETATM    6  C   UNL     1      -7.809   9.363  66.523  1.00  0.00    -0.097 A  
HETATM    7  C   UNL     1      -7.378   8.805  65.314  1.00  0.00    -0.085 A  
ENDROOT
BRANCH   5   8
HETATM    8  C   UNL     1      -9.501  10.717  67.913  1.00  0.00    -0.159 C  
BRANCH   8   9
HETATM    9  N   UNL     1      -8.464  10.645  68.981  1.00  0.00    -0.151 NA 
HETATM   10  C   UNL     1      -7.261   9.846  68.582  1.00  0.00    -0.072 C  
HETATM   11  C   UNL     1      -7.369   8.295  68.676  1.00  0.00    -0.089 C  
HETATM   12  C   UNL     1      -8.964  10.084  70.267  1.00  0.00     0.105 C  
HETATM   13  C   UNL     1      -9.169   8.554  70.291  1.00  0.00    -0.158 C  
HETATM   14  N   UNL     1      -7.881   7.914  69.999  1.00  0.00    -0.103 NA 
BRANCH  14  15
HETATM   15  C   UNL     1      -7.856   6.533  70.199  1.00  0.00    -0.107 A  
HETATM   16  N   UNL     1      -8.812   5.983  70.932  1.00  0.00    -0.135 NA 
HETATM   17  C   UNL     1      -8.732   4.677  71.124  1.00  0.00    -0.116 A  
HETATM   18  N   UNL     1      -6.864   5.835  69.650  1.00  0.00    -0.059 NA 
HETATM   19  N   UNL     1      -7.745   3.919  70.672  1.00  0.00    -0.047 NA 
HETATM   20  C   UNL     1      -6.853   4.531  69.907  1.00  0.00    -0.041 A  
BRANCH  17  21
HETATM   21  N   UNL     1      -9.761   4.018  71.771  1.00  0.00    -0.162 NA 
HETATM   22  H   UNL     1     -10.063   3.089  71.481  1.00  0.00     0.000 HD 
BRANCH  21  23
HETATM   23  C   UNL     1     -10.387   4.701  72.873  1.00  0.00    -0.187 C  
BRANCH  23  24
HETATM   24  C   UNL     1     -11.465   3.790  73.370  1.00  0.00    -0.165 C  
HETATM   25  C   UNL     1     -11.270   2.545  73.828  1.00  0.00    -0.293 C  
ENDBRANCH  23  24
ENDBRANCH  21  23
ENDBRANCH  17  21
BRANCH  20  26
HETATM   26  N   UNL     1      -5.946   3.694  69.284  1.00  0.00    -0.023 NA 
HETATM   27  H   UNL     1      -5.072   3.444  69.748  1.00  0.00     0.000 HD 
BRANCH  26  28
HETATM   28  C   UNL     1      -6.247   3.178  67.971  1.00  0.00    -0.032 C  
BRANCH  28  29
HETATM   29  C   UNL     1      -5.461   3.974  66.962  1.00  0.00    -0.013 C  
HETATM   30  C   UNL     1      -5.885   5.103  66.374  1.00  0.00    -0.018 C  
ENDBRANCH  28  29
ENDBRANCH  26  28
ENDBRANCH  20  26
ENDBRANCH  14  15
ENDBRANCH   8   9
BRANCH   8  31
HETATM   31  C   UNL     1     -10.017  12.148  67.620  1.00  0.00    -0.199 A  
HETATM   32  C   UNL     1     -10.847  14.761  66.998  1.00  0.00    -0.315 A  
HETATM   33  C   UNL     1     -11.725  13.700  66.835  1.00  0.00    -0.423 A  
HETATM   34  F   UNL     1     -11.231  16.000  66.657  1.00  0.00    -0.228 F  
HETATM   35  C   UNL     1      -9.161  13.248  67.817  1.00  0.00    -0.202 A  
HETATM   36  C   UNL     1     -11.318  12.402  67.157  1.00  0.00    -0.390 A  
HETATM   37  C   UNL     1      -9.573  14.549  67.501  1.00  0.00    -0.210 A  
ENDBRANCH   8  31
ENDBRANCH   5   8
TORSDOF 10
ENDMDL
MODEL      221
REMARK 921   NORMALIZED FREE ENERGY PREDICTED BY IDOCK:   -0.58 KCAL/MOL
REMARK 922        TOTAL FREE ENERGY PREDICTED BY IDOCK:   -2.27 KCAL/MOL
REMARK 923 INTER-LIGAND FREE ENERGY PREDICTED BY IDOCK:   -6.73 KCAL/MOL
REMARK 924 INTRA-LIGAND FREE ENERGY PREDICTED BY IDOCK:    4.46 KCAL/MOL
REMARK 927      BINDING AFFINITY PREDICTED BY RF-SCORE:    0.00 PKD
ROOT
HETATM    1  F   UNL     1      -7.631   9.149  62.428  1.00  0.00    -0.106 F  
HETATM    2  C   UNL     1      -8.533   9.873  63.102  1.00  0.00    -0.178 A  
HETATM    3  C   UNL     1      -8.893  11.130  62.630  1.00  0.00    -0.315 A  
HETATM    4  C   UNL     1      -9.812  11.902  63.347  1.00  0.00    -0.374 A  
HETATM    5  C   UNL     1     -10.382  11.418  64.541  1.00  0.00    -0.369 A  
HETATM    6  C   UNL     1     -10.028  10.124  64.972  1.00  0.00    -0.375 A  
HETATM    7  C   UNL     1      -9.100   9.358  64.259  1.00  0.00    -0.159 A  
ENDROOT
BRANCH   5   8
HETATM    8  C   UNL     1     -11.366  12.294  65.337  1.00  0.00    -0.343 C  
BRANCH   8   9
HETATM    9  N   UNL     1     -11.745  11.673  66.638  1.00  0.00    -0.504 NA 
HETATM   10  C   UNL     1     -11.395  12.522  67.822  1.00  0.00    -0.296 C  
HETATM   11  C   UNL     1      -9.917  12.490  68.314  1.00  0.00    -0.229 C  
HETATM   12  C   UNL     1     -11.142  10.330  66.861  1.00  0.00     0.033 C  
HETATM   13  C   UNL     1      -9.644  10.326  67.236  1.00  0.00    -0.159 C  
HETATM   14  N   UNL     1      -9.480  11.096  68.474  1.00  0.00    -0.188 NA 
BRANCH  14  15
HETATM   15  C   UNL     1      -8.217  11.002  69.059  1.00  0.00    -0.098 A  
HETATM   16  N   UNL     1      -7.463  12.090  69.115  1.00  0.00     0.023 NA 
HETATM   17  C   UNL     1      -6.261  11.949  69.648  1.00  0.00    -0.129 A  
HETATM   18  N   UNL     1      -7.826   9.818  69.527  1.00  0.00    -0.113 NA 
HETATM   19  N   UNL     1      -5.768  10.797  70.074  1.00  0.00    -0.062 NA 
HETATM   20  C   UNL     1      -6.597   9.764  70.032  1.00  0.00    -0.081 A  
BRANCH  17  21
HETATM   21  N   UNL     1      -5.471  13.065  69.852  1.00  0.00    -0.095 NA 
HETATM   22  H   UNL     1      -4.765  13.349  69.173  1.00  0.00     0.000 HD 
BRANCH  21  23
HETATM   23  C   UNL     1      -5.687  13.810  71.065  1.00  0.00    -0.210 C  
BRANCH  23  24
HETATM   24  C   UNL     1      -5.949  15.222  70.646  1.00  0.00     0.006 C  
HETATM   25  C   UNL     1      -6.068  15.639  69.377  1.00  0.00    -0.131 C  
ENDBRANCH  23  24
ENDBRANCH  21  23
ENDBRANCH  17  21
BRANCH  20  26
HETATM   26  N   UNL     1      -6.139   8.621  70.659  1.00  0.00    -0.032 NA 
HETATM   27  H   UNL     1      -5.853   7.810  70.109  1.00  0.00     0.000 HD 
BRANCH  26  28
HETATM   28  C   UNL     1      -6.069   8.585  72.099  1.00  0.00    -0.068 C  
BRANCH  28  29
HETATM   29  C   UNL     1      -7.476   8.529  72.636  1.00  0.00    -0.065 C  
HETATM   30  C   UNL     1      -8.330   7.513  72.449  1.00  0.00    -0.131 C  
ENDBRANCH  28  29
ENDBRANCH  26  28
ENDBRANCH  20  26
ENDBRANCH  14  15
ENDBRANCH   8   9
BRANCH   8  31
HETATM   31  C   UNL     1     -10.803  13.732  65.457  1.00  0.00    -0.299 A  
HETATM   32  C   UNL     1      -9.896  16.378  65.746  1.00  0.00    -0.271 A  
HETATM   33  C   UNL     1      -9.111  15.326  66.192  1.00  0.00    -0.314 A  
HETATM   34  F   UNL     1      -9.482  17.640  65.926  1.00  0.00    -0.231 F  
HETATM   35  C   UNL     1     -11.560  14.817  64.973  1.00  0.00    -0.378 A  
HETATM   36  C   UNL     1      -9.554  14.009  66.036  1.00  0.00    -0.230 A  
HETATM   37  C   UNL     1     -11.111  16.134  65.123  1.00  0.00    -0.256 A  
ENDBRANCH   8  31
ENDBRANCH   5   8
TORSDOF 10
ENDMDL
MODEL      222
REMARK 921   NORMALIZED FREE ENERGY PREDICTED BY IDOCK:   -0.56 KCAL/MOL
REMARK 922        TOTAL FREE ENERGY PREDICTED BY IDOCK:   -2.24 KCAL/MOL
REMARK 923 INTER-LIGAND FREE ENERGY PREDICTED BY IDOCK:   -4.07 KCAL/MOL
REMARK 924 INTRA-LIGAND FREE ENERGY PREDICTED BY IDOCK:    1.83 KCAL/MOL
REMARK 927      BINDING AFFINITY PREDICTED BY RF-SCORE:    0.00 PKD
ROOT
HETATM    1  F   UNL     1     -13.402  15.089  73.949  1.00  0.00    -0.361 F  
HETATM    2  C   UNL     1     -12.871  15.358  72.749  1.00  0.00    -0.427 A  
HETATM    3  C   UNL     1     -13.634  15.168  71.604  1.00  0.00    -0.560 A  
HETATM    4  C   UNL     1     -13.074  15.418  70.348  1.00  0.00    -0.223 A  
HETATM    5  C   UNL     1     -11.744  15.866  70.230  1.00  0.00    -0.352 A  
HETATM    6  C   UNL     1     -11.007  16.088  71.411  1.00  0.00     0.121 A  
HETATM    7  C   UNL     1     -11.567  15.826  72.665  1.00  0.00    -0.446 A  
ENDROOT
BRANCH   5   8
HETATM    8  C   UNL     1     -11.130  16.104  68.839  1.00  0.00    -0.347 C  
BRANCH   8   9
HETATM    9  N   UNL     1      -9.639  16.116  68.877  1.00  0.00    -0.233 NA 
HETATM   10  C   UNL     1      -9.014  16.068  67.516  1.00  0.00    -0.194 C  
HETATM   11  C   UNL     1      -8.917  14.678  66.822  1.00  0.00    -0.257 C  
HETATM   12  C   UNL     1      -9.050  15.007  69.676  1.00  0.00     0.014 C  
HETATM   13  C   UNL     1      -9.073  13.617  69.005  1.00  0.00     0.322 C  
HETATM   14  N   UNL     1      -8.323  13.703  67.747  1.00  0.00    -0.166 NA 
BRANCH  14  15
HETATM   15  C   UNL     1      -8.069  12.477  67.132  1.00  0.00    -0.156 A  
HETATM   16  N   UNL     1      -9.014  11.942  66.374  1.00  0.00    -0.200 NA 
HETATM   17  C   UNL     1      -8.744  10.764  65.836  1.00  0.00    -0.181 A  
HETATM   18  N   UNL     1      -6.889  11.898  67.344  1.00  0.00    -0.117 NA 
HETATM   19  N   UNL     1      -7.626  10.089  66.050  1.00  0.00    -0.106 NA 
HETATM   20  C   UNL     1      -6.708  10.709  66.778  1.00  0.00    -0.103 A  
BRANCH  17  21
HETATM   21  N   UNL     1      -9.632  10.206  64.935  1.00  0.00    -0.284 NA 
HETATM   22  H   UNL     1     -10.229   9.420  65.194  1.00  0.00     0.000 HD 
BRANCH  21  23
HETATM   23  C   UNL     1      -9.678  10.781  63.617  1.00  0.00    -0.327 C  
BRANCH  23  24
HETATM   24  C   UNL     1     -11.085  11.249  63.415  1.00  0.00    -0.187 C  
HETATM   25  C   UNL     1     -11.448  12.298  62.663  1.00  0.00     1.090 C  
ENDBRANCH  23  24
ENDBRANCH  21  23
ENDBRANCH  17  21
BRANCH  20  26
HETATM   26  N   UNL     1      -5.478  10.080  66.827  1.00  0.00    -0.044 NA 
HETATM   27  H   UNL     1      -4.817  10.180  66.055  1.00  0.00     0.000 HD 
BRANCH  26  28
HETATM   28  C   UNL     1      -5.138   9.283  67.979  1.00  0.00    -0.034 C  
BRANCH  28  29
HETATM   29  C   UNL     1      -6.416   8.904  68.681  1.00  0.00    -0.054 C  
HETATM   30  C   UNL     1      -6.535   7.919  69.584  1.00  0.00    -0.034 C  
ENDBRANCH  28  29
ENDBRANCH  26  28
ENDBRANCH  20  26
ENDBRANCH  14  15
ENDBRANCH   8   9
BRANCH   8  31
HETATM   31  C   UNL     1     -11.733  15.101  67.824  1.00  0.00    -0.250 A  
HETATM   32  C   UNL     1     -12.711  13.289  65.910  1.00  0.00    -0.150 A  
HETATM   33  C   UNL     1     -12.660  12.922  67.246  1.00  0.00     0.814 A  
HETATM   34  F   UNL     1     -13.135  12.407  64.993  1.00  0.00    -0.488 F  
HETATM   35  C   UNL     1     -11.837  15.464  66.468  1.00  0.00     0.306 A  
HETATM   36  C   UNL     1     -12.188  13.827  68.201  1.00  0.00    -0.178 A  
HETATM   37  C   UNL     1     -12.318  14.559  65.514  1.00  0.00    -0.272 A  
ENDBRANCH   8  31
ENDBRANCH   5   8
TORSDOF 10
ENDMDL
MODEL      223
REMARK 921   NORMALIZED FREE ENERGY PREDICTED BY IDOCK:   -0.54 KCAL/MOL
REMARK 922        TOTAL FREE ENERGY PREDICTED BY IDOCK:   -2.21 KCAL/MOL
REMARK 923 INTER-LIGAND FREE ENERGY PREDICTED BY IDOCK:   -3.45 KCAL/MOL
REMARK 924 INTRA-LIGAND FREE ENERGY PREDICTED BY IDOCK:    1.24 KCAL/MOL
REMARK 927      BINDING AFFINITY PREDICTED BY RF-SCORE:    0.00 PKD
ROOT
HETATM    1  F   UNL     1     -14.261  15.305  72.600  1.00  0.00    -0.540 F  
HETATM    2  C   UNL     1     -13.393  14.737  71.753  1.00  0.00    -0.356 A  
HETATM    3  C   UNL     1     -13.382  13.354  71.610  1.00  0.00    -0.420 A  
HETATM    4  C   UNL     1     -12.457  12.755  70.751  1.00  0.00    -0.357 A  
HETATM    5  C   UNL     1     -11.539  13.536  70.024  1.00  0.00    -0.234 A  
HETATM    6  C   UNL     1     -11.600  14.937  70.159  1.00  0.00    -0.333 A  
HETATM    7  C   UNL     1     -12.519  15.534  71.028  1.00  0.00    -0.492 A  
ENDROOT
BRANCH   5   8
HETATM    8  C   UNL     1     -10.503  12.858  69.108  1.00  0.00     0.122 C  
BRANCH   8   9
HETATM    9  N   UNL     1     -10.221  11.455  69.522  1.00  0.00     0.117 NA 
HETATM   10  C   UNL     1      -8.804  11.037  69.266  1.00  0.00     0.109 C  
HETATM   11  C   UNL     1      -8.435  10.612  67.814  1.00  0.00    -0.116 C  
HETATM   12  C   UNL     1     -11.104  10.448  68.873  1.00  0.00    -0.247 C  
HETATM   13  C   UNL     1     -10.782  10.132  67.396  1.00  0.00    -0.277 C  
HETATM   14  N   UNL     1      -9.407   9.625  67.326  1.00  0.00    -0.137 NA 
BRANCH  14  15
HETATM   15  C   UNL     1      -9.043   9.091  66.089  1.00  0.00    -0.199 A  
HETATM   16  N   UNL     1      -9.626   9.567  64.999  1.00  0.00    -0.226 NA 
HETATM   17  C   UNL     1      -9.276   9.011  63.851  1.00  0.00     0.483 A  
HETATM   18  N   UNL     1      -8.132   8.122  66.065  1.00  0.00    -0.106 NA 
HETATM   19  N   UNL     1      -8.431   7.998  63.744  1.00  0.00     0.068 NA 
HETATM   20  C   UNL     1      -7.851   7.610  64.870  1.00  0.00    -0.128 A  
BRANCH  17  21
HETATM   21  N   UNL     1      -9.749   9.541  62.665  1.00  0.00    -0.417 NA 
HETATM   22  H   UNL     1      -9.928   8.950  61.853  1.00  0.00     0.000 HD 
BRANCH  21  23
HETATM   23  C   UNL     1      -9.979  10.961  62.625  1.00  0.00    -0.035 C  
BRANCH  23  24
HETATM   24  C   UNL     1      -8.912  11.580  63.472  1.00  0.00     0.145 C  
HETATM   25  C   UNL     1      -7.639  11.764  63.094  1.00  0.00     2.051 C  
ENDBRANCH  23  24
ENDBRANCH  21  23
ENDBRANCH  17  21
BRANCH  20  26
HETATM   26  N   UNL     1      -6.830   6.691  64.715  1.00  0.00    -0.048 NA 
HETATM   27  H   UNL     1      -6.103   6.841  64.015  1.00  0.00     0.000 HD 
BRANCH  26  28
HETATM   28  C   UNL     1      -6.802   5.518  65.554  1.00  0.00    -0.063 C  
BRANCH  28  29
HETATM   29  C   UNL     1      -7.896   4.588  65.096  1.00  0.00    -0.090 C  
HETATM   30  C   UNL     1      -7.768   3.666  64.131  1.00  0.00    -0.080 C  
ENDBRANCH  28  29
ENDBRANCH  26  28
ENDBRANCH  20  26
ENDBRANCH  14  15
ENDBRANCH   8   9
BRANCH   8  31
HETATM   31  C   UNL     1     -10.935  13.013  67.629  1.00  0.00    -0.277 A  
HETATM   32  C   UNL     1     -11.819  13.381  64.985  1.00  0.00    -0.352 A  
HETATM   33  C   UNL     1     -10.495  13.629  65.311  1.00  0.00    -0.362 A  
HETATM   34  F   UNL     1     -12.248  13.601  63.734  1.00  0.00    -0.479 F  
HETATM   35  C   UNL     1     -12.264  12.726  67.260  1.00  0.00    -0.042 A  
HETATM   36  C   UNL     1     -10.050  13.433  66.623  1.00  0.00    -0.275 A  
HETATM   37  C   UNL     1     -12.705  12.916  65.945  1.00  0.00     0.149 A  
ENDBRANCH   8  31
ENDBRANCH   5   8
TORSDOF 10
ENDMDL
MODEL      224
REMARK 921   NORMALIZED FREE ENERGY PREDICTED BY IDOCK:    0.33 KCAL/MOL
REMARK 922        TOTAL FREE ENERGY PREDICTED BY IDOCK:   -0.82 KCAL/MOL
REMARK 923 INTER-LIGAND FREE ENERGY PREDICTED BY IDOCK:   -5.56 KCAL/MOL
REMARK 924 INTRA-LIGAND FREE ENERGY PREDICTED BY IDOCK:    4.74 KCAL/MOL
REMARK 927      BINDING AFFINITY PREDICTED BY RF-SCORE:    0.00 PKD
ROOT
HETATM    1  F   UNL     1     -13.686   8.891  72.812  1.00  0.00    -0.448 F  
HETATM    2  C   UNL     1     -12.878   8.158  72.035  1.00  0.00    -0.318 A  
HETATM    3  C   UNL     1     -12.832   6.780  72.203  1.00  0.00    -0.093 A  
HETATM    4  C   UNL     1     -11.967   6.015  71.415  1.00  0.00     0.060 A  
HETATM    5  C   UNL     1     -11.146   6.625  70.448  1.00  0.00    -0.374 A  
HETATM    6  C   UNL     1     -11.244   8.019  70.273  1.00  0.00    -0.192 A  
HETATM    7  C   UNL     1     -12.101   8.784  71.070  1.00  0.00    -0.262 A  
ENDROOT
BRANCH   5   8
HETATM    8  C   UNL     1     -10.173   5.772  69.612  1.00  0.00    -0.233 C  
BRANCH   8   9
HETATM    9  N   UNL     1     -10.168   6.172  68.176  1.00  0.00    -0.157 NA 
HETATM   10  C   UNL     1      -8.854   6.735  67.725  1.00  0.00    -0.118 C  
HETATM   11  C   UNL     1      -8.556   8.223  68.072  1.00  0.00    -0.132 C  
HETATM   12  C   UNL     1     -11.220   7.166  67.825  1.00  0.00     0.109 C  
HETATM   13  C   UNL     1     -10.947   8.615  68.284  1.00  0.00     0.182 C  
HETATM   14  N   UNL     1      -9.693   9.062  67.668  1.00  0.00    -0.150 NA 
BRANCH  14  15
HETATM   15  C   UNL     1      -9.424  10.424  67.812  1.00  0.00    -0.145 A  
HETATM   16  N   UNL     1     -10.303  11.178  68.454  1.00  0.00    -0.178 NA 
HETATM   17  C   UNL     1     -10.025  12.468  68.540  1.00  0.00    -0.165 A  
HETATM   18  N   UNL     1      -8.297  10.902  67.289  1.00  0.00    -0.121 NA 
HETATM   19  N   UNL     1      -8.964  13.036  67.990  1.00  0.00    -0.193 NA 
HETATM   20  C   UNL     1      -8.105  12.212  67.407  1.00  0.00    -0.171 A  
BRANCH  17  21
HETATM   21  N   UNL     1     -10.833  13.291  69.302  1.00  0.00    -0.440 NA 
HETATM   22  H   UNL     1     -11.156  13.010  70.228  1.00  0.00     0.000 HD 
BRANCH  21  23
HETATM   23  C   UNL     1     -11.200  14.561  68.732  1.00  0.00    -0.261 C  
BRANCH  23  24
HETATM   24  C   UNL     1     -11.798  15.360  69.847  1.00  0.00    -0.373 C  
HETATM   25  C   UNL     1     -11.240  16.447  70.401  1.00  0.00    -0.253 C  
ENDBRANCH  23  24
ENDBRANCH  21  23
ENDBRANCH  17  21
BRANCH  20  26
HETATM   26  N   UNL     1      -6.913  12.792  67.015  1.00  0.00    -0.364 NA 
HETATM   27  H   UNL     1      -6.652  12.817  66.028  1.00  0.00     0.000 HD 
BRANCH  26  28
HETATM   28  C   UNL     1      -6.041  13.360  68.013  1.00  0.00    -0.129 C  
BRANCH  28  29
HETATM   29  C   UNL     1      -6.616  13.048  69.370  1.00  0.00    -0.063 C  
HETATM   30  C   UNL     1      -6.175  12.082  70.189  1.00  0.00    -0.075 C  
ENDBRANCH  28  29
ENDBRANCH  26  28
ENDBRANCH  20  26
ENDBRANCH  14  15
ENDBRANCH   8   9
BRANCH   8  31
HETATM   31  C   UNL     1      -8.776   5.771  70.279  1.00  0.00    -0.137 A  
HETATM   32  C   UNL     1      -6.300   5.737  71.612  1.00  0.00    -0.048 A  
HETATM   33  C   UNL     1      -6.503   4.920  70.510  1.00  0.00    -0.030 A  
HETATM   34  F   UNL     1      -5.135   5.685  72.273  1.00  0.00    -0.014 F  
HETATM   35  C   UNL     1      -8.528   6.622  71.374  1.00  0.00    -0.124 A  
HETATM   36  C   UNL     1      -7.728   4.946  69.838  1.00  0.00    -0.056 A  
HETATM   37  C   UNL     1      -7.297   6.600  72.041  1.00  0.00    -0.090 A  
ENDBRANCH   8  31
ENDBRANCH   5   8
TORSDOF 10
ENDMDL
MODEL      225
REMARK 921   NORMALIZED FREE ENERGY PREDICTED BY IDOCK:    0.49 KCAL/MOL
REMARK 922        TOTAL FREE ENERGY PREDICTED BY IDOCK:   -0.57 KCAL/MOL
REMARK 923 INTER-LIGAND FREE ENERGY PREDICTED BY IDOCK:   -2.64 KCAL/MOL
REMARK 924 INTRA-LIGAND FREE ENERGY PREDICTED BY IDOCK:    2.07 KCAL/MOL
REMARK 927      BINDING AFFINITY PREDICTED BY RF-SCORE:    0.00 PKD
ROOT
HETATM    1  F   UNL     1     -10.084  10.023  70.269  1.00  0.00    -0.282 F  
HETATM    2  C   UNL     1      -9.874  10.331  68.982  1.00  0.00    -0.207 A  
HETATM    3  C   UNL     1      -8.900  11.266  68.652  1.00  0.00    -0.141 A  
HETATM    4  C   UNL     1      -8.699  11.612  67.313  1.00  0.00    -0.159 A  
HETATM    5  C   UNL     1      -9.470  11.021  66.293  1.00  0.00    -0.219 A  
HETATM    6  C   UNL     1     -10.421  10.047  66.655  1.00  0.00    -0.244 A  
HETATM    7  C   UNL     1     -10.628   9.710  67.997  1.00  0.00    -0.292 A  
ENDROOT
BRANCH   5   8
HETATM    8  C   UNL     1      -9.260  11.439  64.826  1.00  0.00    -0.031 C  
BRANCH   8   9
HETATM    9  N   UNL     1      -9.351  10.280  63.893  1.00  0.00    -0.271 NA 
HETATM   10  C   UNL     1     -10.097   9.115  64.470  1.00  0.00     1.914 C  
HETATM   11  C   UNL     1      -9.323   8.183  65.448  1.00  0.00     0.340 C  
HETATM   12  C   UNL     1      -8.028   9.775  63.432  1.00  0.00    -0.147 C  
HETATM   13  C   UNL     1      -7.233   8.948  64.466  1.00  0.00    -0.097 C  
HETATM   14  N   UNL     1      -8.044   7.785  64.843  1.00  0.00    -0.142 NA 
BRANCH  14  15
HETATM   15  C   UNL     1      -7.374   6.827  65.605  1.00  0.00    -0.079 A  
HETATM   16  N   UNL     1      -6.633   5.926  64.977  1.00  0.00    -0.042 NA 
HETATM   17  C   UNL     1      -6.041   5.017  65.734  1.00  0.00    -0.030 A  
HETATM   18  N   UNL     1      -7.518   6.859  66.927  1.00  0.00    -0.082 NA 
HETATM   19  N   UNL     1      -6.186   4.935  67.047  1.00  0.00    -0.031 NA 
HETATM   20  C   UNL     1      -6.901   5.899  67.609  1.00  0.00    -0.060 A  
BRANCH  17  21
HETATM   21  N   UNL     1      -5.155   4.125  65.160  1.00  0.00    -0.008 NA 
HETATM   22  H   UNL     1      -4.221   4.415  64.871  1.00  0.00     0.000 HD 
BRANCH  21  23
HETATM   23  C   UNL     1      -5.606   2.768  64.988  1.00  0.00    -0.013 C  
BRANCH  23  24
HETATM   24  C   UNL     1      -5.143   2.344  63.630  1.00  0.00    -0.007 C  
HETATM   25  C   UNL     1      -5.243   3.083  62.516  1.00  0.00    -0.004 C  
ENDBRANCH  23  24
ENDBRANCH  21  23
ENDBRANCH  17  21
BRANCH  20  26
HETATM   26  N   UNL     1      -6.879   5.913  68.991  1.00  0.00    -0.060 NA 
HETATM   27  H   UNL     1      -6.016   5.704  69.495  1.00  0.00     0.000 HD 
BRANCH  26  28
HETATM   28  C   UNL     1      -8.087   6.227  69.714  1.00  0.00    -0.120 C  
BRANCH  28  29
HETATM   29  C   UNL     1      -8.430   5.049  70.587  1.00  0.00    -0.111 C  
HETATM   30  C   UNL     1      -8.916   3.879  70.146  1.00  0.00    -0.168 C  
ENDBRANCH  28  29
ENDBRANCH  26  28
ENDBRANCH  20  26
ENDBRANCH  14  15
ENDBRANCH   8   9
BRANCH   8  31
HETATM   31  C   UNL     1     -10.209  12.613  64.478  1.00  0.00    -0.331 A  
HETATM   32  C   UNL     1     -12.038  14.664  63.884  1.00  0.00    -0.043 A  
HETATM   33  C   UNL     1     -11.015  14.893  64.791  1.00  0.00    -0.390 A  
HETATM   34  F   UNL     1     -12.936  15.628  63.637  1.00  0.00     0.101 F  
HETATM   35  C   UNL     1     -11.230  12.422  63.528  1.00  0.00    -0.540 A  
HETATM   36  C   UNL     1     -10.096  13.878  65.077  1.00  0.00    -0.319 A  
HETATM   37  C   UNL     1     -12.145  13.442  63.237  1.00  0.00    -0.329 A  
ENDBRANCH   8  31
ENDBRANCH   5   8
TORSDOF 10
ENDMDL
MODEL      226
REMARK 921   NORMALIZED FREE ENERGY PREDICTED BY IDOCK:    0.62 KCAL/MOL
REMARK 922        TOTAL FREE ENERGY PREDICTED BY IDOCK:   -0.37 KCAL/MOL
REMARK 923 INTER-LIGAND FREE ENERGY PREDICTED BY IDOCK:   -2.91 KCAL/MOL
REMARK 924 INTRA-LIGAND FREE ENERGY PREDICTED BY IDOCK:    2.54 KCAL/MOL
REMARK 927      BINDING AFFINITY PREDICTED BY RF-SCORE:    0.00 PKD
ROOT
HETATM    1  F   UNL     1     -10.952  18.057  64.882  1.00  0.00    -0.308 F  
HETATM    2  C   UNL     1     -10.862  16.977  65.668  1.00  0.00    -0.061 A  
HETATM    3  C   UNL     1     -11.787  15.949  65.530  1.00  0.00     0.694 A  
HETATM    4  C   UNL     1     -11.715  14.834  66.369  1.00  0.00    -0.268 A  
HETATM    5  C   UNL     1     -10.710  14.737  67.351  1.00  0.00    -0.281 A  
HETATM    6  C   UNL     1      -9.762  15.775  67.441  1.00  0.00    -0.223 A  
HETATM    7  C   UNL     1      -9.843  16.895  66.607  1.00  0.00    -0.295 A  
ENDROOT
BRANCH   5   8
HETATM    8  C   UNL     1     -10.664  13.518  68.291  1.00  0.00    -0.258 C  
BRANCH   8   9
HETATM    9  N   UNL     1     -11.694  12.499  67.939  1.00  0.00    -0.352 NA 
HETATM   10  C   UNL     1     -11.770  11.372  68.924  1.00  0.00    -0.343 C  
HETATM   11  C   UNL     1     -10.706  10.242  68.803  1.00  0.00    -0.219 C  
HETATM   12  C   UNL     1     -11.506  11.896  66.590  1.00  0.00    -0.314 C  
HETATM   13  C   UNL     1     -10.366  10.861  66.475  1.00  0.00    -0.247 C  
HETATM   14  N   UNL     1     -10.645   9.768  67.414  1.00  0.00    -0.267 NA 
BRANCH  14  15
HETATM   15  C   UNL     1      -9.820   8.651  67.271  1.00  0.00    -0.197 A  
HETATM   16  N   UNL     1     -10.327   7.455  67.527  1.00  0.00    -0.226 NA 
HETATM   17  C   UNL     1      -9.504   6.426  67.411  1.00  0.00    -0.116 A  
HETATM   18  N   UNL     1      -8.559   8.843  66.892  1.00  0.00    -0.115 NA 
HETATM   19  N   UNL     1      -8.220   6.534  67.106  1.00  0.00    -0.112 NA 
HETATM   20  C   UNL     1      -7.798   7.756  66.815  1.00  0.00    -0.106 A  
BRANCH  17  21
HETATM   21  N   UNL     1      -9.995   5.141  67.541  1.00  0.00    -0.169 NA 
HETATM   22  H   UNL     1     -10.842   4.947  68.076  1.00  0.00     0.000 HD 
BRANCH  21  23
HETATM   23  C   UNL     1      -9.262   4.088  66.888  1.00  0.00    -0.167 C  
BRANCH  23  24
HETATM   24  C   UNL     1      -9.842   3.966  65.514  1.00  0.00    -0.156 C  
HETATM   25  C   UNL     1     -10.197   2.814  64.928  1.00  0.00     0.420 C  
ENDBRANCH  23  24
ENDBRANCH  21  23
ENDBRANCH  17  21
BRANCH  20  26
HETATM   26  N   UNL     1      -6.513   7.825  66.309  1.00  0.00    -0.046 NA 
HETATM   27  H   UNL     1      -5.709   7.783  66.936  1.00  0.00     0.000 HD 
BRANCH  26  28
HETATM   28  C   UNL     1      -6.321   7.957  64.886  1.00  0.00    -0.048 C  
BRANCH  28  29
HETATM   29  C   UNL     1      -7.625   8.400  64.276  1.00  0.00    -0.123 C  
HETATM   30  C   UNL     1      -8.528   7.583  63.714  1.00  0.00     0.294 C  
ENDBRANCH  28  29
ENDBRANCH  26  28
ENDBRANCH  20  26
ENDBRANCH  14  15
ENDBRANCH   8   9
BRANCH   8  31
HETATM   31  C   UNL     1      -9.219  12.967  68.360  1.00  0.00    -0.137 A  
HETATM   32  C   UNL     1      -6.548  12.098  68.488  1.00  0.00    -0.063 A  
HETATM   33  C   UNL     1      -7.457  11.679  69.447  1.00  0.00     0.154 A  
HETATM   34  F   UNL     1      -5.265  11.719  68.577  1.00  0.00    -0.046 F  
HETATM   35  C   UNL     1      -8.285  13.342  67.375  1.00  0.00    -0.185 A  
HETATM   36  C   UNL     1      -8.789  12.099  69.376  1.00  0.00     1.110 A  
HETATM   37  C   UNL     1      -6.953  12.914  67.442  1.00  0.00    -0.129 A  
ENDBRANCH   8  31
ENDBRANCH   5   8
TORSDOF 10
ENDMDL
MODEL      227
REMARK 921   NORMALIZED FREE ENERGY PREDICTED BY IDOCK:    0.64 KCAL/MOL
REMARK 922        TOTAL FREE ENERGY PREDICTED BY IDOCK:   -0.33 KCAL/MOL
REMARK 923 INTER-LIGAND FREE ENERGY PREDICTED BY IDOCK:   -2.14 KCAL/MOL
REMARK 924 INTRA-LIGAND FREE ENERGY PREDICTED BY IDOCK:    1.81 KCAL/MOL
REMARK 927      BINDING AFFINITY PREDICTED BY RF-SCORE:    0.00 PKD
ROOT
HETATM    1  F   UNL     1      -8.172  13.982  70.252  1.00  0.00     0.949 F  
HETATM    2  C   UNL     1      -8.471  13.291  69.144  1.00  0.00     0.588 A  
HETATM    3  C   UNL     1      -9.600  13.632  68.409  1.00  0.00    -0.203 A  
HETATM    4  C   UNL     1      -9.933  12.894  67.269  1.00  0.00    -0.224 A  
HETATM    5  C   UNL     1      -9.133  11.811  66.854  1.00  0.00    -0.192 A  
HETATM    6  C   UNL     1      -7.973  11.515  67.597  1.00  0.00    -0.126 A  
HETATM    7  C   UNL     1      -7.648  12.248  68.743  1.00  0.00    -0.044 A  
ENDROOT
BRANCH   5   8
HETATM    8  C   UNL     1      -9.532  10.986  65.617  1.00  0.00    -0.217 C  
BRANCH   8   9
HETATM    9  N   UNL     1     -10.087   9.653  65.986  1.00  0.00    -0.276 NA 
HETATM   10  C   UNL     1     -10.988   9.699  67.183  1.00  0.00     0.004 C  
HETATM   11  C   UNL     1     -10.314   9.732  68.586  1.00  0.00    -0.201 C  
HETATM   12  C   UNL     1      -9.046   8.623  66.254  1.00  0.00    -0.186 C  
HETATM   13  C   UNL     1      -8.314   8.751  67.608  1.00  0.00    -0.114 C  
HETATM   14  N   UNL     1      -9.313   8.660  68.679  1.00  0.00    -0.142 NA 
BRANCH  14  15
HETATM   15  C   UNL     1      -8.783   8.541  69.964  1.00  0.00    -0.136 A  
HETATM   16  N   UNL     1      -9.620   8.461  70.988  1.00  0.00    -0.160 NA 
HETATM   17  C   UNL     1      -9.076   8.381  72.191  1.00  0.00    -0.239 A  
HETATM   18  N   UNL     1      -7.459   8.520  70.101  1.00  0.00    -0.058 NA 
HETATM   19  N   UNL     1      -7.773   8.424  72.421  1.00  0.00    -0.225 NA 
HETATM   20  C   UNL     1      -6.999   8.453  71.346  1.00  0.00    -0.072 A  
BRANCH  17  21
HETATM   21  N   UNL     1      -9.885   8.170  73.292  1.00  0.00    -0.218 NA 
HETATM   22  H   UNL     1      -9.618   8.502  74.219  1.00  0.00     0.000 HD 
BRANCH  21  23
HETATM   23  C   UNL     1     -11.119   7.461  73.074  1.00  0.00    -0.343 C  
BRANCH  23  24
HETATM   24  C   UNL     1     -10.741   6.038  72.810  1.00  0.00    -0.269 C  
HETATM   25  C   UNL     1     -10.637   5.082  73.745  1.00  0.00    -0.330 C  
ENDBRANCH  23  24
ENDBRANCH  21  23
ENDBRANCH  17  21
BRANCH  20  26
HETATM   26  N   UNL     1      -5.648   8.297  71.595  1.00  0.00    -0.035 NA 
HETATM   27  H   UNL     1      -4.969   8.927  71.166  1.00  0.00     0.000 HD 
BRANCH  26  28
HETATM   28  C   UNL     1      -5.208   7.235  72.465  1.00  0.00    -0.037 C  
BRANCH  28  29
HETATM   29  C   UNL     1      -6.101   6.043  72.239  1.00  0.00    -0.041 C  
HETATM   30  C   UNL     1      -5.895   4.820  72.749  1.00  0.00    -0.016 C  
ENDBRANCH  28  29
ENDBRANCH  26  28
ENDBRANCH  20  26
ENDBRANCH  14  15
ENDBRANCH   8   9
BRANCH   8  31
HETATM   31  C   UNL     1     -10.455  11.830  64.704  1.00  0.00    -0.347 A  
HETATM   32  C   UNL     1     -12.236  13.337  63.134  1.00  0.00    -0.145 A  
HETATM   33  C   UNL     1     -11.073  13.921  63.611  1.00  0.00     0.674 A  
HETATM   34  F   UNL     1     -13.105  14.070  62.423  1.00  0.00     1.102 F  
HETATM   35  C   UNL     1     -11.622  11.250  64.169  1.00  0.00     0.079 A  
HETATM   36  C   UNL     1     -10.179  13.169  64.380  1.00  0.00    -0.319 A  
HETATM   37  C   UNL     1     -12.512  12.003  63.393  1.00  0.00    -0.625 A  
ENDBRANCH   8  31
ENDBRANCH   5   8
TORSDOF 10
ENDMDL
MODEL      228
REMARK 921   NORMALIZED FREE ENERGY PREDICTED BY IDOCK:    0.82 KCAL/MOL
REMARK 922        TOTAL FREE ENERGY PREDICTED BY IDOCK:   -0.05 KCAL/MOL
REMARK 923 INTER-LIGAND FREE ENERGY PREDICTED BY IDOCK:   -0.62 KCAL/MOL
REMARK 924 INTRA-LIGAND FREE ENERGY PREDICTED BY IDOCK:    0.57 KCAL/MOL
REMARK 927      BINDING AFFINITY PREDICTED BY RF-SCORE:    0.00 PKD
ROOT
HETATM    1  F   UNL     1      -7.619   4.426  64.492  1.00  0.00    -0.068 F  
HETATM    2  C   UNL     1      -7.735   5.759  64.516  1.00  0.00    -0.095 A  
HETATM    3  C   UNL     1      -6.815   6.514  65.234  1.00  0.00    -0.047 A  
HETATM    4  C   UNL     1      -6.950   7.904  65.287  1.00  0.00    -0.059 A  
HETATM    5  C   UNL     1      -8.006   8.550  64.616  1.00  0.00    -0.143 A  
HETATM    6  C   UNL     1      -8.900   7.763  63.864  1.00  0.00     0.805 A  
HETATM    7  C   UNL     1      -8.769   6.371  63.822  1.00  0.00     0.552 A  
ENDROOT
BRANCH   5   8
HETATM    8  C   UNL     1      -8.161  10.079  64.713  1.00  0.00    -0.155 C  
BRANCH   8   9
HETATM    9  N   UNL     1      -9.514  10.535  64.282  1.00  0.00    -0.259 NA 
HETATM   10  C   UNL     1      -9.484  11.809  63.494  1.00  0.00    -0.129 C  
HETATM   11  C   UNL     1      -9.363  13.141  64.292  1.00  0.00     1.439 C  
HETATM   12  C   UNL     1     -10.469  10.731  65.407  1.00  0.00    -0.202 C  
HETATM   13  C   UNL     1     -10.251  12.005  66.251  1.00  0.00    -0.222 C  
HETATM   14  N   UNL     1     -10.368  13.168  65.363  1.00  0.00    -0.296 NA 
BRANCH  14  15
HETATM   15  C   UNL     1     -10.413  14.400  66.017  1.00  0.00    -0.301 A  
HETATM   16  N   UNL     1      -9.430  15.263  65.807  1.00  0.00    -0.322 NA 
HETATM   17  C   UNL     1      -9.494  16.406  66.470  1.00  0.00    -0.272 A  
HETATM   18  N   UNL     1     -11.439  14.647  66.827  1.00  0.00    -0.361 NA 
HETATM   19  N   UNL     1     -10.441  16.703  67.345  1.00  0.00    -0.315 NA 
HETATM   20  C   UNL     1     -11.416  15.814  67.464  1.00  0.00    -0.063 A  
BRANCH  17  21
HETATM   21  N   UNL     1      -8.572  17.400  66.205  1.00  0.00    -0.423 NA 
HETATM   22  H   UNL     1      -7.584  17.284  66.433  1.00  0.00     0.000 HD 
BRANCH  21  23
HETATM   23  C   UNL     1      -9.064  18.607  65.594  1.00  0.00     0.748 C  
BRANCH  23  24
HETATM   24  C   UNL     1      -8.273  19.729  66.191  1.00  0.00    -0.363 C  
HETATM   25  C   UNL     1      -7.034  20.081  65.820  1.00  0.00    -0.315 C  
ENDBRANCH  23  24
ENDBRANCH  21  23
ENDBRANCH  17  21
BRANCH  20  26
HETATM   26  N   UNL     1     -12.492  16.225  68.228  1.00  0.00     0.512 NA 
HETATM   27  H   UNL     1     -13.317  16.629  67.783  1.00  0.00     0.000 HD 
BRANCH  26  28
HETATM   28  C   UNL     1     -12.439  16.077  69.662  1.00  0.00     0.296 C  
BRANCH  28  29
HETATM   29  C   UNL     1     -11.206  15.282  70.006  1.00  0.00    -0.306 C  
HETATM   30  C   UNL     1     -11.207  14.033  70.492  1.00  0.00     0.216 C  
ENDBRANCH  28  29
ENDBRANCH  26  28
ENDBRANCH  20  26
ENDBRANCH  14  15
ENDBRANCH   8   9
BRANCH   8  31
HETATM   31  C   UNL     1      -7.749  10.556  66.128  1.00  0.00    -0.142 A  
HETATM   32  C   UNL     1      -7.040  11.551  68.660  1.00  0.00    -0.098 A  
HETATM   33  C   UNL     1      -7.937  10.500  68.558  1.00  0.00    -0.118 A  
HETATM   34  F   UNL     1      -6.738  12.053  69.866  1.00  0.00    -0.107 F  
HETATM   35  C   UNL     1      -6.806  11.594  66.263  1.00  0.00     0.244 A  
HETATM   36  C   UNL     1      -8.280   9.994  67.300  1.00  0.00    -0.117 A  
HETATM   37  C   UNL     1      -6.458  12.093  67.524  1.00  0.00    -0.134 A  
ENDBRANCH   8  31
ENDBRANCH   5   8
TORSDOF 10
ENDMDL
MODEL      229
REMARK 921   NORMALIZED FREE ENERGY PREDICTED BY IDOCK:    1.03 KCAL/MOL
REMARK 922        TOTAL FREE ENERGY PREDICTED BY IDOCK:    0.29 KCAL/MOL
REMARK 923 INTER-LIGAND FREE ENERGY PREDICTED BY IDOCK:   -2.30 KCAL/MOL
REMARK 924 INTRA-LIGAND FREE ENERGY PREDICTED BY IDOCK:    2.59 KCAL/MOL
REMARK 927      BINDING AFFINITY PREDICTED BY RF-SCORE:    0.00 PKD
ROOT
HETATM    1  F   UNL     1      -5.340  12.487  69.822  1.00  0.00    -0.070 F  
HETATM    2  C   UNL     1      -6.152  11.590  69.247  1.00  0.00    -0.068 A  
HETATM    3  C   UNL     1      -7.295  11.172  69.917  1.00  0.00     0.267 A  
HETATM    4  C   UNL     1      -8.128  10.214  69.333  1.00  0.00    -0.163 A  
HETATM    5  C   UNL     1      -7.825   9.670  68.070  1.00  0.00    -0.086 A  
HETATM    6  C   UNL     1      -6.681  10.143  67.397  1.00  0.00    -0.073 A  
HETATM    7  C   UNL     1      -5.843  11.094  67.988  1.00  0.00    -0.042 A  
ENDROOT
BRANCH   5   8
HETATM    8  C   UNL     1      -8.734   8.590  67.456  1.00  0.00    -0.135 C  
BRANCH   8   9
HETATM    9  N   UNL     1      -9.813   9.177  66.612  1.00  0.00    -0.218 NA 
HETATM   10  C   UNL     1      -9.312  10.207  65.645  1.00  0.00    -0.199 C  
HETATM   11  C   UNL     1      -9.054  11.641  66.196  1.00  0.00    -0.203 C  
HETATM   12  C   UNL     1     -10.915   9.802  67.394  1.00  0.00    -0.106 C  
HETATM   13  C   UNL     1     -10.590  11.174  68.024  1.00  0.00    -0.198 C  
HETATM   14  N   UNL     1     -10.232  12.101  66.945  1.00  0.00    -0.208 NA 
BRANCH  14  15
HETATM   15  C   UNL     1     -10.124  13.437  67.333  1.00  0.00    -0.237 A  
HETATM   16  N   UNL     1      -9.214  13.760  68.240  1.00  0.00    -0.202 NA 
HETATM   17  C   UNL     1      -9.166  15.031  68.603  1.00  0.00    -0.198 A  
HETATM   18  N   UNL     1     -10.946  14.323  66.777  1.00  0.00    -0.299 NA 
HETATM   19  N   UNL     1      -9.991  15.963  68.152  1.00  0.00    -0.221 NA 
HETATM   20  C   UNL     1     -10.840  15.576  67.211  1.00  0.00    -0.313 A  
BRANCH  17  21
HETATM   21  N   UNL     1      -8.162  15.461  69.450  1.00  0.00    -0.249 NA 
HETATM   22  H   UNL     1      -8.149  15.197  70.435  1.00  0.00     0.000 HD 
BRANCH  21  23
HETATM   23  C   UNL     1      -7.137  16.296  68.882  1.00  0.00    -0.182 C  
BRANCH  23  24
HETATM   24  C   UNL     1      -7.439  17.691  69.332  1.00  0.00     0.137 C  
HETATM   25  C   UNL     1      -7.062  18.806  68.690  1.00  0.00    -0.321 C  
ENDBRANCH  23  24
ENDBRANCH  21  23
ENDBRANCH  17  21
BRANCH  20  26
HETATM   26  N   UNL     1     -11.554  16.596  66.612  1.00  0.00     0.866 NA 
HETATM   27  H   UNL     1     -11.914  16.486  65.663  1.00  0.00     0.000 HD 
BRANCH  26  28
HETATM   28  C   UNL     1     -11.786  17.819  67.342  1.00  0.00     1.666 C  
BRANCH  28  29
HETATM   29  C   UNL     1     -10.477  18.557  67.449  1.00  0.00    -0.455 C  
HETATM   30  C   UNL     1      -9.598  18.714  66.448  1.00  0.00    -0.338 C  
ENDBRANCH  28  29
ENDBRANCH  26  28
ENDBRANCH  20  26
ENDBRANCH  14  15
ENDBRANCH   8   9
BRANCH   8  31
HETATM   31  C   UNL     1      -7.868   7.527  66.736  1.00  0.00    -0.110 A  
HETATM   32  C   UNL     1      -6.225   5.580  65.547  1.00  0.00    -0.034 A  
HETATM   33  C   UNL     1      -7.602   5.421  65.537  1.00  0.00    -0.082 A  
HETATM   34  F   UNL     1      -5.441   4.628  65.020  1.00  0.00    -0.012 F  
HETATM   35  C   UNL     1      -6.469   7.685  66.693  1.00  0.00    -0.053 A  
HETATM   36  C   UNL     1      -8.421   6.395  66.115  1.00  0.00    -0.140 A  
HETATM   37  C   UNL     1      -5.651   6.712  66.106  1.00  0.00    -0.018 A  
ENDBRANCH   8  31
ENDBRANCH   5   8
TORSDOF 10
ENDMDL
MODEL      230
REMARK 921   NORMALIZED FREE ENERGY PREDICTED BY IDOCK:    1.17 KCAL/MOL
REMARK 922        TOTAL FREE ENERGY PREDICTED BY IDOCK:    0.51 KCAL/MOL
REMARK 923 INTER-LIGAND FREE ENERGY PREDICTED BY IDOCK:   -5.50 KCAL/MOL
REMARK 924 INTRA-LIGAND FREE ENERGY PREDICTED BY IDOCK:    6.01 KCAL/MOL
REMARK 927      BINDING AFFINITY PREDICTED BY RF-SCORE:    0.00 PKD
ROOT
HETATM    1  F   UNL     1     -12.371  15.651  71.754  1.00  0.00    -0.344 F  
HETATM    2  C   UNL     1     -12.391  14.444  71.175  1.00  0.00    -0.358 A  
HETATM    3  C   UNL     1     -13.326  13.502  71.588  1.00  0.00    -0.420 A  
HETATM    4  C   UNL     1     -13.330  12.230  71.008  1.00  0.00     0.374 A  
HETATM    5  C   UNL     1     -12.401  11.894  70.004  1.00  0.00    -0.202 A  
HETATM    6  C   UNL     1     -11.492  12.883  69.578  1.00  0.00    -0.292 A  
HETATM    7  C   UNL     1     -11.482  14.151  70.168  1.00  0.00    -0.227 A  
ENDROOT
BRANCH   5   8
HETATM    8  C   UNL     1     -12.396  10.478  69.400  1.00  0.00     0.083 C  
BRANCH   8   9
HETATM    9  N   UNL     1     -11.811  10.455  68.029  1.00  0.00    -0.179 NA 
HETATM   10  C   UNL     1     -10.353  10.110  68.015  1.00  0.00    -0.190 C  
HETATM   11  C   UNL     1      -9.344  11.247  68.354  1.00  0.00    -0.181 C  
HETATM   12  C   UNL     1     -11.971  11.735  67.286  1.00  0.00     0.066 C  
HETATM   13  C   UNL     1     -11.033  12.882  67.723  1.00  0.00    -0.243 C  
HETATM   14  N   UNL     1      -9.647  12.434  67.541  1.00  0.00    -0.182 NA 
BRANCH  14  15
HETATM   15  C   UNL     1      -8.685  13.434  67.687  1.00  0.00    -0.198 A  
HETATM   16  N   UNL     1      -7.607  13.174  68.411  1.00  0.00    -0.128 NA 
HETATM   17  C   UNL     1      -6.736  14.160  68.550  1.00  0.00    -0.101 A  
HETATM   18  N   UNL     1      -8.902  14.607  67.096  1.00  0.00    -0.209 NA 
HETATM   19  N   UNL     1      -6.906  15.376  68.055  1.00  0.00    -0.127 NA 
HETATM   20  C   UNL     1      -7.983  15.546  67.301  1.00  0.00    -0.203 A  
BRANCH  17  21
HETATM   21  N   UNL     1      -5.532  13.922  69.185  1.00  0.00    -0.077 NA 
HETATM   22  H   UNL     1      -4.735  13.531  68.684  1.00  0.00     0.000 HD 
BRANCH  21  23
HETATM   23  C   UNL     1      -5.452  14.250  70.585  1.00  0.00    -0.141 C  
BRANCH  23  24
HETATM   24  C   UNL     1      -5.199  12.961  71.301  1.00  0.00    -0.172 C  
HETATM   25  C   UNL     1      -5.375  12.762  72.615  1.00  0.00     0.435 C  
ENDBRANCH  23  24
ENDBRANCH  21  23
ENDBRANCH  17  21
BRANCH  20  26
HETATM   26  N   UNL     1      -8.044  16.755  66.633  1.00  0.00    -0.235 NA 
HETATM   27  H   UNL     1      -7.193  17.189  66.275  1.00  0.00     0.000 HD 
BRANCH  26  28
HETATM   28  C   UNL     1      -9.323  17.396  66.448  1.00  0.00    -0.252 C  
BRANCH  28  29
HETATM   29  C   UNL     1      -9.923  17.647  67.807  1.00  0.00    -0.315 C  
HETATM   30  C   UNL     1     -11.167  17.308  68.173  1.00  0.00     0.088 C  
ENDBRANCH  28  29
ENDBRANCH  26  28
ENDBRANCH  20  26
ENDBRANCH  14  15
ENDBRANCH   8   9
BRANCH   8  31
HETATM   31  C   UNL     1     -11.735   9.490  70.392  1.00  0.00    -0.227 A  
HETATM   32  C   UNL     1     -10.523   7.801  72.285  1.00  0.00    -0.246 A  
HETATM   33  C   UNL     1     -11.772   7.483  71.775  1.00  0.00    -0.317 A  
HETATM   34  F   UNL     1      -9.967   7.018  73.221  1.00  0.00    -0.180 F  
HETATM   35  C   UNL     1     -10.448   9.766  70.893  1.00  0.00    -0.298 A  
HETATM   36  C   UNL     1     -12.370   8.314  70.824  1.00  0.00     0.062 A  
HETATM   37  C   UNL     1      -9.847   8.928  71.840  1.00  0.00    -0.364 A  
ENDBRANCH   8  31
ENDBRANCH   5   8
TORSDOF 10
ENDMDL
MODEL      231
REMARK 921   NORMALIZED FREE ENERGY PREDICTED BY IDOCK:    1.42 KCAL/MOL
REMARK 922        TOTAL FREE ENERGY PREDICTED BY IDOCK:    0.91 KCAL/MOL
REMARK 923 INTER-LIGAND FREE ENERGY PREDICTED BY IDOCK:    0.09 KCAL/MOL
REMARK 924 INTRA-LIGAND FREE ENERGY PREDICTED BY IDOCK:    0.82 KCAL/MOL
REMARK 927      BINDING AFFINITY PREDICTED BY RF-SCORE:    0.00 PKD
ROOT
HETATM    1  F   UNL     1     -11.831   5.040  64.853  1.00  0.00     0.267 F  
HETATM    2  C   UNL     1     -11.286   5.563  65.959  1.00  0.00     0.807 A  
HETATM    3  C   UNL     1     -11.600   6.865  66.328  1.00  0.00     2.601 A  
HETATM    4  C   UNL     1     -11.010   7.424  67.465  1.00  0.00    -0.176 A  
HETATM    5  C   UNL     1     -10.103   6.680  68.244  1.00  0.00    -0.170 A  
HETATM    6  C   UNL     1      -9.834   5.350  67.868  1.00  0.00    -0.179 A  
HETATM    7  C   UNL     1     -10.418   4.796  66.723  1.00  0.00    -0.180 A  
ENDROOT
BRANCH   5   8
HETATM    8  C   UNL     1      -9.434   7.322  69.473  1.00  0.00    -0.155 C  
BRANCH   8   9
HETATM    9  N   UNL     1      -7.997   7.636  69.231  1.00  0.00    -0.124 NA 
HETATM   10  C   UNL     1      -7.369   8.422  70.342  1.00  0.00    -0.056 C  
HETATM   11  C   UNL     1      -7.630   9.957  70.368  1.00  0.00    -0.099 C  
HETATM   12  C   UNL     1      -7.749   8.379  67.966  1.00  0.00    -0.103 C  
HETATM   13  C   UNL     1      -8.125   9.877  67.988  1.00  0.00    -0.108 C  
HETATM   14  N   UNL     1      -7.345  10.529  69.045  1.00  0.00    -0.092 NA 
BRANCH  14  15
HETATM   15  C   UNL     1      -7.412  11.923  69.046  1.00  0.00    -0.006 A  
HETATM   16  N   UNL     1      -8.261  12.516  68.220  1.00  0.00    -0.168 NA 
HETATM   17  C   UNL     1      -8.270  13.838  68.229  1.00  0.00    -0.156 A  
HETATM   18  N   UNL     1      -6.613  12.592  69.874  1.00  0.00     0.045 NA 
HETATM   19  N   UNL     1      -7.462  14.581  68.969  1.00  0.00    -0.130 NA 
HETATM   20  C   UNL     1      -6.676  13.918  69.807  1.00  0.00    -0.003 A  
BRANCH  17  21
HETATM   21  N   UNL     1      -9.215  14.519  67.486  1.00  0.00    -0.189 NA 
HETATM   22  H   UNL     1      -8.945  15.150  66.731  1.00  0.00     0.000 HD 
BRANCH  21  23
HETATM   23  C   UNL     1     -10.598  14.300  67.822  1.00  0.00    -0.253 C  
BRANCH  23  24
HETATM   24  C   UNL     1     -10.945  15.327  68.853  1.00  0.00    -0.261 C  
HETATM   25  C   UNL     1     -10.597  16.621  68.798  1.00  0.00    -0.340 C  
ENDBRANCH  23  24
ENDBRANCH  21  23
ENDBRANCH  17  21
BRANCH  20  26
HETATM   26  N   UNL     1      -5.985  14.707  70.708  1.00  0.00    -0.165 NA 
HETATM   27  H   UNL     1      -5.131  15.187  70.423  1.00  0.00     0.000 HD 
BRANCH  26  28
HETATM   28  C   UNL     1      -6.485  14.845  72.054  1.00  0.00     1.256 C  
BRANCH  28  29
HETATM   29  C   UNL     1      -5.423  14.350  73.001  1.00  0.00    -0.166 C  
HETATM   30  C   UNL     1      -5.311  13.089  73.440  1.00  0.00     0.376 C  
ENDBRANCH  28  29
ENDBRANCH  26  28
ENDBRANCH  20  26
ENDBRANCH  14  15
ENDBRANCH   8   9
BRANCH   8  31
HETATM   31  C   UNL     1     -10.277   8.528  69.955  1.00  0.00    -0.201 A  
HETATM   32  C   UNL     1     -11.712  10.742  70.927  1.00  0.00    -0.234 A  
HETATM   33  C   UNL     1     -11.335  10.695  69.594  1.00  0.00    -0.360 A  
HETATM   34  F   UNL     1     -12.357  11.819  71.399  1.00  0.00    -0.390 F  
HETATM   35  C   UNL     1     -10.711   8.582  71.294  1.00  0.00    -0.302 A  
HETATM   36  C   UNL     1     -10.634   9.589  69.106  1.00  0.00    -0.237 A  
HETATM   37  C   UNL     1     -11.420   9.687  71.779  1.00  0.00    -0.258 A  
ENDBRANCH   8  31
ENDBRANCH   5   8
TORSDOF 10
ENDMDL
MODEL      232
REMARK 921   NORMALIZED FREE ENERGY PREDICTED BY IDOCK:    2.76 KCAL/MOL
REMARK 922        TOTAL FREE ENERGY PREDICTED BY IDOCK:    3.03 KCAL/MOL
REMARK 923 INTER-LIGAND FREE ENERGY PREDICTED BY IDOCK:   -3.75 KCAL/MOL
REMARK 924 INTRA-LIGAND FREE ENERGY PREDICTED BY IDOCK:    6.78 KCAL/MOL
REMARK 927      BINDING AFFINITY PREDICTED BY RF-SCORE:    0.00 PKD
ROOT
HETATM    1  F   UNL     1     -13.162   8.628  72.675  1.00  0.00    -0.393 F  
HETATM    2  C   UNL     1     -12.473   7.622  72.122  1.00  0.00    -0.217 A  
HETATM    3  C   UNL     1     -12.589   6.341  72.649  1.00  0.00     0.348 A  
HETATM    4  C   UNL     1     -11.848   5.294  72.094  1.00  0.00     0.305 A  
HETATM    5  C   UNL     1     -10.987   5.521  71.003  1.00  0.00    -0.193 A  
HETATM    6  C   UNL     1     -10.920   6.821  70.465  1.00  0.00    -0.327 A  
HETATM    7  C   UNL     1     -11.655   7.870  71.029  1.00  0.00    -0.299 A  
ENDROOT
BRANCH   5   8
HETATM    8  C   UNL     1     -10.150   4.365  70.426  1.00  0.00    -0.104 C  
BRANCH   8   9
HETATM    9  N   UNL     1     -10.003   4.462  68.946  1.00  0.00    -0.085 NA 
HETATM   10  C   UNL     1      -8.648   4.938  68.518  1.00  0.00    -0.093 C  
HETATM   11  C   UNL     1      -8.375   6.470  68.579  1.00  0.00    -0.121 C  
HETATM   12  C   UNL     1     -11.009   5.349  68.299  1.00  0.00     0.334 C  
HETATM   13  C   UNL     1     -10.773   6.865  68.475  1.00  0.00    -0.207 C  
HETATM   14  N   UNL     1      -9.462   7.193  67.905  1.00  0.00    -0.130 NA 
BRANCH  14  15
HETATM   15  C   UNL     1      -9.199   8.559  67.791  1.00  0.00    -0.135 A  
HETATM   16  N   UNL     1     -10.144   9.416  68.145  1.00  0.00    -0.173 NA 
HETATM   17  C   UNL     1      -9.866  10.700  67.992  1.00  0.00    -0.160 A  
HETATM   18  N   UNL     1      -8.010   8.935  67.324  1.00  0.00    -0.097 NA 
HETATM   19  N   UNL     1      -8.738  11.158  67.472  1.00  0.00    -0.128 NA 
HETATM   20  C   UNL     1      -7.821  10.244  67.188  1.00  0.00    -0.110 A  
BRANCH  17  21
HETATM   21  N   UNL     1     -10.755  11.651  68.457  1.00  0.00    -0.208 NA 
HETATM   22  H   UNL     1     -10.836  11.862  69.451  1.00  0.00     0.000 HD 
BRANCH  21  23
HETATM   23  C   UNL     1     -11.562  12.330  67.477  1.00  0.00    -0.353 C  
BRANCH  23  24
HETATM   24  C   UNL     1     -11.393  13.794  67.740  1.00  0.00    -0.331 C  
HETATM   25  C   UNL     1     -10.335  14.527  67.365  1.00  0.00    -0.252 C  
ENDBRANCH  23  24
ENDBRANCH  21  23
ENDBRANCH  17  21
BRANCH  20  26
HETATM   26  N   UNL     1      -6.583  10.748  66.835  1.00  0.00    -0.084 NA 
HETATM   27  H   UNL     1      -5.902  10.994  67.554  1.00  0.00     0.000 HD 
BRANCH  26  28
HETATM   28  C   UNL     1      -6.264  10.922  65.439  1.00  0.00     0.072 C  
BRANCH  28  29
HETATM   29  C   UNL     1      -6.521   9.617  64.733  1.00  0.00    -0.090 C  
HETATM   30  C   UNL     1      -6.777   9.489  63.423  1.00  0.00    -0.102 C  
ENDBRANCH  28  29
ENDBRANCH  26  28
ENDBRANCH  20  26
ENDBRANCH  14  15
ENDBRANCH   8   9
BRANCH   8  31
HETATM   31  C   UNL     1      -8.810   4.256  71.194  1.00  0.00    -0.151 A  
HETATM   32  C   UNL     1      -6.335   4.175  72.526  1.00  0.00    -0.021 A  
HETATM   33  C   UNL     1      -7.512   4.193  73.257  1.00  0.00    -0.076 A  
HETATM   34  F   UNL     1      -5.155   4.183  73.163  1.00  0.00     0.000 F  
HETATM   35  C   UNL     1      -7.601   4.193  70.476  1.00  0.00    -0.045 A  
HETATM   36  C   UNL     1      -8.744   4.219  72.597  1.00  0.00    -0.110 A  
HETATM   37  C   UNL     1      -6.368   4.159  71.139  1.00  0.00    -0.015 A  
ENDBRANCH   8  31
ENDBRANCH   5   8
TORSDOF 10
ENDMDL
MODEL      233
REMARK 921   NORMALIZED FREE ENERGY PREDICTED BY IDOCK:    2.90 KCAL/MOL
REMARK 922        TOTAL FREE ENERGY PREDICTED BY IDOCK:    3.25 KCAL/MOL
REMARK 923 INTER-LIGAND FREE ENERGY PREDICTED BY IDOCK:    0.55 KCAL/MOL
REMARK 924 INTRA-LIGAND FREE ENERGY PREDICTED BY IDOCK:    2.70 KCAL/MOL
REMARK 927      BINDING AFFINITY PREDICTED BY RF-SCORE:    0.00 PKD
ROOT
HETATM    1  F   UNL     1     -11.261  18.419  73.745  1.00  0.00    -0.060 F  
HETATM    2  C   UNL     1     -11.159  17.859  72.533  1.00  0.00     2.628 A  
HETATM    3  C   UNL     1     -10.571  18.573  71.496  1.00  0.00     3.191 A  
HETATM    4  C   UNL     1     -10.489  18.004  70.222  1.00  0.00     1.428 A  
HETATM    5  C   UNL     1     -10.992  16.712  69.978  1.00  0.00    -0.148 A  
HETATM    6  C   UNL     1     -11.547  15.996  71.057  1.00  0.00    -0.472 A  
HETATM    7  C   UNL     1     -11.637  16.572  72.329  1.00  0.00    -0.219 A  
ENDROOT
BRANCH   5   8
HETATM    8  C   UNL     1     -10.926  16.113  68.561  1.00  0.00    -0.338 C  
BRANCH   8   9
HETATM    9  N   UNL     1     -12.066  15.192  68.287  1.00  0.00    -0.142 NA 
HETATM   10  C   UNL     1     -12.282  14.182  69.373  1.00  0.00    -0.287 C  
HETATM   11  C   UNL     1     -11.358  12.929  69.379  1.00  0.00    -0.201 C  
HETATM   12  C   UNL     1     -11.940  14.446  67.005  1.00  0.00    -0.395 C  
HETATM   13  C   UNL     1     -10.929  13.278  67.010  1.00  0.00    -0.276 C  
HETATM   14  N   UNL     1     -11.342  12.320  68.042  1.00  0.00    -0.270 NA 
BRANCH  14  15
HETATM   15  C   UNL     1     -10.654  11.106  68.022  1.00  0.00    -0.198 A  
HETATM   16  N   UNL     1     -11.339   9.995  67.793  1.00  0.00    -0.172 NA 
HETATM   17  C   UNL     1     -10.654   8.864  67.814  1.00  0.00    -0.202 A  
HETATM   18  N   UNL     1      -9.342  11.122  68.242  1.00  0.00    -0.169 NA 
HETATM   19  N   UNL     1      -9.363   8.783  68.091  1.00  0.00    -0.140 NA 
HETATM   20  C   UNL     1      -8.736   9.938  68.260  1.00  0.00    -0.119 A  
BRANCH  17  21
HETATM   21  N   UNL     1     -11.279   7.682  67.460  1.00  0.00    -0.386 NA 
HETATM   22  H   UNL     1     -12.196   7.678  67.015  1.00  0.00     0.000 HD 
BRANCH  21  23
HETATM   23  C   UNL     1     -10.579   6.458  67.748  1.00  0.00    -0.266 C  
BRANCH  23  24
HETATM   24  C   UNL     1     -11.237   5.877  68.960  1.00  0.00    -0.173 C  
HETATM   25  C   UNL     1     -10.680   5.803  70.177  1.00  0.00    -0.390 C  
ENDBRANCH  23  24
ENDBRANCH  21  23
ENDBRANCH  17  21
BRANCH  20  26
HETATM   26  N   UNL     1      -7.359   9.848  68.352  1.00  0.00    -0.077 NA 
HETATM   27  H   UNL     1      -6.800  10.681  68.540  1.00  0.00     0.000 HD 
BRANCH  26  28
HETATM   28  C   UNL     1      -6.722   8.566  68.178  1.00  0.00    -0.065 C  
BRANCH  28  29
HETATM   29  C   UNL     1      -7.139   8.012  66.841  1.00  0.00    -0.081 C  
HETATM   30  C   UNL     1      -6.933   6.752  66.433  1.00  0.00    -0.062 C  
ENDBRANCH  28  29
ENDBRANCH  26  28
ENDBRANCH  20  26
ENDBRANCH  14  15
ENDBRANCH   8   9
BRANCH   8  31
HETATM   31  C   UNL     1     -10.761  17.250  67.522  1.00  0.00    -0.278 A  
HETATM   32  C   UNL     1     -10.348  19.356  65.706  1.00  0.00    -0.349 A  
HETATM   33  C   UNL     1     -10.414  18.050  65.245  1.00  0.00     0.412 A  
HETATM   34  F   UNL     1     -10.106  20.354  64.843  1.00  0.00    -0.106 F  
HETATM   35  C   UNL     1     -10.734  18.589  67.957  1.00  0.00    -0.271 A  
HETATM   36  C   UNL     1     -10.634  17.003  66.145  1.00  0.00    -0.194 A  
HETATM   37  C   UNL     1     -10.522  19.637  67.052  1.00  0.00    -0.600 A  
ENDBRANCH   8  31
ENDBRANCH   5   8
TORSDOF 10
ENDMDL
MODEL      234
REMARK 921   NORMALIZED FREE ENERGY PREDICTED BY IDOCK:    3.11 KCAL/MOL
REMARK 922        TOTAL FREE ENERGY PREDICTED BY IDOCK:    3.58 KCAL/MOL
REMARK 923 INTER-LIGAND FREE ENERGY PREDICTED BY IDOCK:   -3.20 KCAL/MOL
REMARK 924 INTRA-LIGAND FREE ENERGY PREDICTED BY IDOCK:    6.79 KCAL/MOL
REMARK 927      BINDING AFFINITY PREDICTED BY RF-SCORE:    0.00 PKD
ROOT
HETATM    1  F   UNL     1     -13.170   8.626  72.674  1.00  0.00    -0.393 F  
HETATM    2  C   UNL     1     -12.506   7.628  72.077  1.00  0.00    -0.270 A  
HETATM    3  C   UNL     1     -12.620   6.335  72.575  1.00  0.00     0.181 A  
HETATM    4  C   UNL     1     -11.905   5.296  71.974  1.00  0.00     0.439 A  
HETATM    5  C   UNL     1     -11.073   5.542  70.865  1.00  0.00    -0.107 A  
HETATM    6  C   UNL     1     -11.009   6.855  70.357  1.00  0.00    -0.315 A  
HETATM    7  C   UNL     1     -11.717   7.896  70.967  1.00  0.00    -0.293 A  
ENDROOT
BRANCH   5   8
HETATM    8  C   UNL     1     -10.265   4.393  70.235  1.00  0.00     0.030 C  
BRANCH   8   9
HETATM    9  N   UNL     1     -10.155   4.528  68.755  1.00  0.00    -0.045 NA 
HETATM   10  C   UNL     1      -8.812   5.018  68.305  1.00  0.00    -0.102 C  
HETATM   11  C   UNL     1      -8.541   6.549  68.398  1.00  0.00    -0.119 C  
HETATM   12  C   UNL     1     -11.179   5.428  68.156  1.00  0.00     0.993 C  
HETATM   13  C   UNL     1     -10.942   6.940  68.364  1.00  0.00    -0.132 C  
HETATM   14  N   UNL     1      -9.646   7.286  67.769  1.00  0.00    -0.137 NA 
BRANCH  14  15
HETATM   15  C   UNL     1      -9.389   8.655  67.684  1.00  0.00    -0.137 A  
HETATM   16  N   UNL     1      -8.140   9.052  67.494  1.00  0.00    -0.108 NA 
HETATM   17  C   UNL     1      -7.935  10.358  67.451  1.00  0.00    -0.107 A  
HETATM   18  N   UNL     1     -10.412   9.497  67.805  1.00  0.00    -0.240 NA 
HETATM   19  N   UNL     1      -8.883  11.264  67.630  1.00  0.00    -0.136 NA 
HETATM   20  C   UNL     1     -10.114  10.792  67.765  1.00  0.00    -0.174 A  
BRANCH  17  21
HETATM   21  N   UNL     1      -6.680  10.842  67.131  1.00  0.00    -0.079 NA 
HETATM   22  H   UNL     1      -6.334  10.830  66.172  1.00  0.00     0.000 HD 
BRANCH  21  23
HETATM   23  C   UNL     1      -5.883  11.363  68.211  1.00  0.00    -0.045 C  
BRANCH  23  24
HETATM   24  C   UNL     1      -5.431  12.722  67.776  1.00  0.00    -0.124 C  
HETATM   25  C   UNL     1      -6.185  13.831  67.809  1.00  0.00    -0.159 C  
ENDBRANCH  23  24
ENDBRANCH  21  23
ENDBRANCH  17  21
BRANCH  20  26
HETATM   26  N   UNL     1     -11.112  11.749  67.752  1.00  0.00    -0.227 NA 
HETATM   27  H   UNL     1     -11.498  12.080  66.868  1.00  0.00     0.000 HD 
BRANCH  26  28
HETATM   28  C   UNL     1     -11.602  12.274  69.003  1.00  0.00    -0.316 C  
BRANCH  28  29
HETATM   29  C   UNL     1     -11.999  11.113  69.877  1.00  0.00    -0.439 C  
HETATM   30  C   UNL     1     -12.067  11.145  71.215  1.00  0.00    -0.202 C  
ENDBRANCH  28  29
ENDBRANCH  26  28
ENDBRANCH  20  26
ENDBRANCH  14  15
ENDBRANCH   8   9
BRANCH   8  31
HETATM   31  C   UNL     1      -8.906   4.251  70.965  1.00  0.00    -0.148 A  
HETATM   32  C   UNL     1      -6.398   4.110  72.228  1.00  0.00    -0.021 A  
HETATM   33  C   UNL     1      -7.556   4.116  72.991  1.00  0.00    -0.080 A  
HETATM   34  F   UNL     1      -5.202   4.089  72.834  1.00  0.00     0.000 F  
HETATM   35  C   UNL     1      -7.716   4.199  70.214  1.00  0.00    -0.048 A  
HETATM   36  C   UNL     1      -8.804   4.172  72.364  1.00  0.00    -0.121 A  
HETATM   37  C   UNL     1      -6.467   4.135  70.843  1.00  0.00    -0.026 A  
ENDBRANCH   8  31
ENDBRANCH   5   8
TORSDOF 10
ENDMDL
MODEL      235
REMARK 921   NORMALIZED FREE ENERGY PREDICTED BY IDOCK:    3.50 KCAL/MOL
REMARK 922        TOTAL FREE ENERGY PREDICTED BY IDOCK:    4.20 KCAL/MOL
REMARK 923 INTER-LIGAND FREE ENERGY PREDICTED BY IDOCK:    2.81 KCAL/MOL
REMARK 924 INTRA-LIGAND FREE ENERGY PREDICTED BY IDOCK:    1.39 KCAL/MOL
REMARK 927      BINDING AFFINITY PREDICTED BY RF-SCORE:    0.00 PKD
ROOT
HETATM    1  F   UNL     1      -5.970  20.287  72.321  1.00  0.00    -0.399 F  
HETATM    2  C   UNL     1      -5.938  19.480  71.253  1.00  0.00    -0.027 A  
HETATM    3  C   UNL     1      -5.993  20.030  69.978  1.00  0.00    -0.373 A  
HETATM    4  C   UNL     1      -5.991  19.190  68.861  1.00  0.00    -0.243 A  
HETATM    5  C   UNL     1      -5.929  17.791  69.013  1.00  0.00    -0.201 A  
HETATM    6  C   UNL     1      -5.834  17.265  70.316  1.00  0.00    -0.113 A  
HETATM    7  C   UNL     1      -5.847  18.107  71.433  1.00  0.00     0.739 A  
ENDROOT
BRANCH   5   8
HETATM    8  C   UNL     1      -5.963  16.878  67.774  1.00  0.00    -0.132 C  
BRANCH   8   9
HETATM    9  N   UNL     1      -5.280  15.575  68.017  1.00  0.00    -0.120 NA 
HETATM   10  C   UNL     1      -5.446  14.602  66.890  1.00  0.00     1.647 C  
HETATM   11  C   UNL     1      -6.785  13.810  66.821  1.00  0.00     1.664 C  
HETATM   12  C   UNL     1      -5.719  14.891  69.264  1.00  0.00    -0.097 C  
HETATM   13  C   UNL     1      -7.104  14.211  69.199  1.00  0.00    -0.099 C  
HETATM   14  N   UNL     1      -7.071  13.207  68.130  1.00  0.00    -0.095 NA 
BRANCH  14  15
HETATM   15  C   UNL     1      -8.178  12.357  68.091  1.00  0.00    -0.173 A  
HETATM   16  N   UNL     1      -9.310  12.769  68.642  1.00  0.00    -0.054 NA 
HETATM   17  C   UNL     1     -10.324  11.921  68.612  1.00  0.00    -0.203 A  
HETATM   18  N   UNL     1      -8.040  11.169  67.507  1.00  0.00    -0.116 NA 
HETATM   19  N   UNL     1     -10.254  10.697  68.114  1.00  0.00    -0.162 NA 
HETATM   20  C   UNL     1      -9.106  10.375  67.536  1.00  0.00    -0.134 A  
BRANCH  17  21
HETATM   21  N   UNL     1     -11.568  12.330  69.056  1.00  0.00    -0.293 NA 
HETATM   22  H   UNL     1     -12.031  11.869  69.839  1.00  0.00     0.000 HD 
BRANCH  21  23
HETATM   23  C   UNL     1     -12.182  13.434  68.365  1.00  0.00    -0.092 C  
BRANCH  23  24
HETATM   24  C   UNL     1     -12.802  12.860  67.130  1.00  0.00     1.731 C  
HETATM   25  C   UNL     1     -12.672  13.367  65.896  1.00  0.00    -0.317 C  
ENDBRANCH  23  24
ENDBRANCH  21  23
ENDBRANCH  17  21
BRANCH  20  26
HETATM   26  N   UNL     1      -9.113   9.174  66.850  1.00  0.00    -0.132 NA 
HETATM   27  H   UNL     1      -8.270   8.601  66.805  1.00  0.00     0.000 HD 
BRANCH  26  28
HETATM   28  C   UNL     1     -10.325   8.740  66.199  1.00  0.00     0.215 C  
BRANCH  28  29
HETATM   29  C   UNL     1     -11.202   8.081  67.231  1.00  0.00     0.614 C  
HETATM   30  C   UNL     1     -11.030   6.839  67.707  1.00  0.00    -0.321 C  
ENDBRANCH  28  29
ENDBRANCH  26  28
ENDBRANCH  20  26
ENDBRANCH  14  15
ENDBRANCH   8   9
BRANCH   8  31
HETATM   31  C   UNL     1      -7.419  16.748  67.261  1.00  0.00    -0.201 A  
HETATM   32  C   UNL     1     -10.026  16.394  66.270  1.00  0.00    -0.323 A  
HETATM   33  C   UNL     1      -9.820  16.548  67.632  1.00  0.00    -0.247 A  
HETATM   34  F   UNL     1     -11.265  16.180  65.804  1.00  0.00    -0.207 F  
HETATM   35  C   UNL     1      -7.661  16.634  65.879  1.00  0.00     0.410 A  
HETATM   36  C   UNL     1      -8.526  16.738  68.126  1.00  0.00    -0.213 A  
HETATM   37  C   UNL     1      -8.958  16.451  65.386  1.00  0.00     0.879 A  
ENDBRANCH   8  31
ENDBRANCH   5   8
TORSDOF 10
ENDMDL
MODEL      236
REMARK 921   NORMALIZED FREE ENERGY PREDICTED BY IDOCK:    3.98 KCAL/MOL
REMARK 922        TOTAL FREE ENERGY PREDICTED BY IDOCK:    4.97 KCAL/MOL
REMARK 923 INTER-LIGAND FREE ENERGY PREDICTED BY IDOCK:    3.55 KCAL/MOL
REMARK 924 INTRA-LIGAND FREE ENERGY PREDICTED BY IDOCK:    1.42 KCAL/MOL
REMARK 927      BINDING AFFINITY PREDICTED BY RF-SCORE:    0.00 PKD
ROOT
HETATM    1  F   UNL     1     -12.626  15.176  73.724  1.00  0.00    -0.514 F  
HETATM    2  C   UNL     1     -11.878  15.048  72.621  1.00  0.00    -0.300 A  
HETATM    3  C   UNL     1     -12.497  14.832  71.395  1.00  0.00    -0.401 A  
HETATM    4  C   UNL     1     -11.719  14.668  70.246  1.00  0.00    -0.355 A  
HETATM    5  C   UNL     1     -10.313  14.724  70.315  1.00  0.00     0.222 A  
HETATM    6  C   UNL     1      -9.716  14.985  71.564  1.00  0.00     2.762 A  
HETATM    7  C   UNL     1     -10.497  15.137  72.715  1.00  0.00     2.711 A  
ENDROOT
BRANCH   5   8
HETATM    8  C   UNL     1      -9.469  14.507  69.046  1.00  0.00    -0.085 C  
BRANCH   8   9
HETATM    9  N   UNL     1      -8.324  13.583  69.285  1.00  0.00     0.496 NA 
HETATM   10  C   UNL     1      -7.496  13.339  68.060  1.00  0.00    -0.138 C  
HETATM   11  C   UNL     1      -8.031  12.302  67.029  1.00  0.00    -0.123 C  
HETATM   12  C   UNL     1      -8.727  12.253  69.820  1.00  0.00     2.347 C  
HETATM   13  C   UNL     1      -9.360  11.286  68.795  1.00  0.00    -0.128 C  
HETATM   14  N   UNL     1      -8.387  11.056  67.721  1.00  0.00    -0.116 NA 
BRANCH  14  15
HETATM   15  C   UNL     1      -8.728  10.035  66.833  1.00  0.00    -0.128 A  
HETATM   16  N   UNL     1      -8.640   8.781  67.247  1.00  0.00    -0.121 NA 
HETATM   17  C   UNL     1      -8.942   7.843  66.364  1.00  0.00    -0.166 A  
HETATM   18  N   UNL     1      -9.119  10.373  65.606  1.00  0.00    -0.167 NA 
HETATM   19  N   UNL     1      -9.272   8.088  65.106  1.00  0.00     0.349 NA 
HETATM   20  C   UNL     1      -9.388   9.367  64.779  1.00  0.00    -0.094 A  
BRANCH  17  21
HETATM   21  N   UNL     1      -8.993   6.521  66.763  1.00  0.00    -0.127 NA 
HETATM   22  H   UNL     1      -8.287   5.848  66.464  1.00  0.00     0.000 HD 
BRANCH  21  23
HETATM   23  C   UNL     1     -10.083   6.135  67.620  1.00  0.00    -0.155 C  
BRANCH  23  24
HETATM   24  C   UNL     1      -9.461   5.572  68.859  1.00  0.00    -0.165 C  
HETATM   25  C   UNL     1      -9.038   4.308  69.003  1.00  0.00    -0.187 C  
ENDBRANCH  23  24
ENDBRANCH  21  23
ENDBRANCH  17  21
BRANCH  20  26
HETATM   26  N   UNL     1      -9.924   9.604  63.526  1.00  0.00    -0.164 NA 
HETATM   27  H   UNL     1     -10.929   9.523  63.371  1.00  0.00     0.000 HD 
BRANCH  26  28
HETATM   28  C   UNL     1      -9.047   9.967  62.440  1.00  0.00    -0.290 C  
BRANCH  28  29
HETATM   29  C   UNL     1      -8.243  11.167  62.867  1.00  0.00     0.084 C  
HETATM   30  C   UNL     1      -6.910  11.189  63.010  1.00  0.00     0.666 C  
ENDBRANCH  28  29
ENDBRANCH  26  28
ENDBRANCH  20  26
ENDBRANCH  14  15
ENDBRANCH   8   9
BRANCH   8  31
HETATM   31  C   UNL     1     -10.390  14.091  67.872  1.00  0.00    -0.239 A  
HETATM   32  C   UNL     1     -11.949  13.294  65.672  1.00  0.00    -0.412 A  
HETATM   33  C   UNL     1     -12.210  12.772  66.929  1.00  0.00    -0.109 A  
HETATM   34  F   UNL     1     -12.664  12.879  64.617  1.00  0.00    -0.467 F  
HETATM   35  C   UNL     1     -10.175  14.639  66.593  1.00  0.00    -0.275 A  
HETATM   36  C   UNL     1     -11.445  13.177  68.027  1.00  0.00    -0.346 A  
HETATM   37  C   UNL     1     -10.947  14.237  65.496  1.00  0.00    -0.319 A  
ENDBRANCH   8  31
ENDBRANCH   5   8
TORSDOF 10
ENDMDL
MODEL      237
REMARK 921   NORMALIZED FREE ENERGY PREDICTED BY IDOCK:    4.22 KCAL/MOL
REMARK 922        TOTAL FREE ENERGY PREDICTED BY IDOCK:    5.34 KCAL/MOL
REMARK 923 INTER-LIGAND FREE ENERGY PREDICTED BY IDOCK:    3.23 KCAL/MOL
REMARK 924 INTRA-LIGAND FREE ENERGY PREDICTED BY IDOCK:    2.11 KCAL/MOL
REMARK 927      BINDING AFFINITY PREDICTED BY RF-SCORE:    0.00 PKD
ROOT
HETATM    1  F   UNL     1     -13.544   4.745  71.947  1.00  0.00     2.529 F  
HETATM    2  C   UNL     1     -12.221   4.864  72.116  1.00  0.00     1.445 A  
HETATM    3  C   UNL     1     -11.543   3.934  72.895  1.00  0.00     0.232 A  
HETATM    4  C   UNL     1     -10.168   4.072  73.099  1.00  0.00    -0.220 A  
HETATM    5  C   UNL     1      -9.458   5.142  72.520  1.00  0.00    -0.166 A  
HETATM    6  C   UNL     1     -10.164   6.046  71.703  1.00  0.00    -0.245 A  
HETATM    7  C   UNL     1     -11.543   5.912  71.509  1.00  0.00    -0.147 A  
ENDROOT
BRANCH   5   8
HETATM    8  C   UNL     1      -7.949   5.300  72.783  1.00  0.00    -0.102 C  
BRANCH   8   9
HETATM    9  N   UNL     1      -7.129   4.895  71.606  1.00  0.00    -0.055 NA 
HETATM   10  C   UNL     1      -6.163   5.954  71.168  1.00  0.00    -0.039 C  
HETATM   11  C   UNL     1      -6.722   7.116  70.295  1.00  0.00    -0.052 C  
HETATM   12  C   UNL     1      -7.935   4.510  70.415  1.00  0.00    -0.059 C  
HETATM   13  C   UNL     1      -8.572   5.681  69.635  1.00  0.00    -0.110 C  
HETATM   14  N   UNL     1      -7.495   6.564  69.174  1.00  0.00    -0.093 NA 
BRANCH  14  15
HETATM   15  C   UNL     1      -7.893   7.549  68.269  1.00  0.00    -0.122 A  
HETATM   16  N   UNL     1      -8.066   8.784  68.714  1.00  0.00    -0.113 NA 
HETATM   17  C   UNL     1      -8.474   9.679  67.831  1.00  0.00    -0.122 A  
HETATM   18  N   UNL     1      -8.088   7.197  67.000  1.00  0.00    -0.115 NA 
HETATM   19  N   UNL     1      -8.757   9.401  66.568  1.00  0.00    -0.133 NA 
HETATM   20  C   UNL     1      -8.512   8.157  66.184  1.00  0.00    -0.136 A  
BRANCH  17  21
HETATM   21  N   UNL     1      -8.554  11.010  68.196  1.00  0.00    -0.134 NA 
HETATM   22  H   UNL     1      -7.928  11.409  68.895  1.00  0.00     0.000 HD 
BRANCH  21  23
HETATM   23  C   UNL     1      -9.561  11.810  67.548  1.00  0.00    -0.177 C  
BRANCH  23  24
HETATM   24  C   UNL     1     -10.864  11.432  68.179  1.00  0.00    -0.259 C  
HETATM   25  C   UNL     1     -11.977  12.178  68.153  1.00  0.00    -0.242 C  
ENDBRANCH  23  24
ENDBRANCH  21  23
ENDBRANCH  17  21
BRANCH  20  26
HETATM   26  N   UNL     1      -8.623   7.933  64.824  1.00  0.00    -0.380 NA 
HETATM   27  H   UNL     1      -9.480   7.538  64.434  1.00  0.00     0.000 HD 
BRANCH  26  28
HETATM   28  C   UNL     1      -7.515   8.262  63.961  1.00  0.00    -0.110 C  
BRANCH  28  29
HETATM   29  C   UNL     1      -6.298   7.529  64.461  1.00  0.00    -0.041 C  
HETATM   30  C   UNL     1      -5.562   6.675  63.735  1.00  0.00    -0.031 C  
ENDBRANCH  28  29
ENDBRANCH  26  28
ENDBRANCH  20  26
ENDBRANCH  14  15
ENDBRANCH   8   9
BRANCH   8  31
HETATM   31  C   UNL     1      -7.658   6.729  73.303  1.00  0.00    -0.089 A  
HETATM   32  C   UNL     1      -7.010   9.322  74.176  1.00  0.00     0.564 A  
HETATM   33  C   UNL     1      -8.207   9.095  73.515  1.00  0.00     1.351 A  
HETATM   34  F   UNL     1      -6.682  10.567  74.551  1.00  0.00     1.034 F  
HETATM   35  C   UNL     1      -6.469   6.980  74.015  1.00  0.00    -0.074 A  
HETATM   36  C   UNL     1      -8.537   7.804  73.093  1.00  0.00    -0.230 A  
HETATM   37  C   UNL     1      -6.144   8.272  74.444  1.00  0.00    -0.125 A  
ENDBRANCH   8  31
ENDBRANCH   5   8
TORSDOF 10
ENDMDL
MODEL      238
REMARK 921   NORMALIZED FREE ENERGY PREDICTED BY IDOCK:    6.73 KCAL/MOL
REMARK 922        TOTAL FREE ENERGY PREDICTED BY IDOCK:    9.33 KCAL/MOL
REMARK 923 INTER-LIGAND FREE ENERGY PREDICTED BY IDOCK:    6.62 KCAL/MOL
REMARK 924 INTRA-LIGAND FREE ENERGY PREDICTED BY IDOCK:    2.70 KCAL/MOL
REMARK 927      BINDING AFFINITY PREDICTED BY RF-SCORE:    0.00 PKD
ROOT
HETATM    1  F   UNL     1     -13.634   4.649  71.851  1.00  0.00     2.831 F  
HETATM    2  C   UNL     1     -12.305   4.530  71.733  1.00  0.00     3.770 A  
HETATM    3  C   UNL     1     -11.671   3.404  72.245  1.00  0.00     1.927 A  
HETATM    4  C   UNL     1     -10.281   3.290  72.151  1.00  0.00    -0.143 A  
HETATM    5  C   UNL     1      -9.516   4.301  71.538  1.00  0.00    -0.220 A  
HETATM    6  C   UNL     1     -10.190   5.410  70.992  1.00  0.00    -0.296 A  
HETATM    7  C   UNL     1     -11.580   5.528  71.098  1.00  0.00     0.431 A  
ENDROOT
BRANCH   5   8
HETATM    8  C   UNL     1      -7.982   4.176  71.474  1.00  0.00    -0.077 C  
BRANCH   8   9
HETATM    9  N   UNL     1      -7.493   3.977  70.080  1.00  0.00    -0.045 NA 
HETATM   10  C   UNL     1      -6.438   4.963  69.678  1.00  0.00    -0.035 C  
HETATM   11  C   UNL     1      -6.913   6.380  69.239  1.00  0.00    -0.067 C  
HETATM   12  C   UNL     1      -8.569   4.035  69.052  1.00  0.00    -0.083 C  
HETATM   13  C   UNL     1      -9.099   5.447  68.720  1.00  0.00    -0.118 C  
HETATM   14  N   UNL     1      -7.975   6.254  68.232  1.00  0.00    -0.107 NA 
BRANCH  14  15
HETATM   15  C   UNL     1      -8.335   7.487  67.685  1.00  0.00    -0.118 A  
HETATM   16  N   UNL     1      -7.993   8.590  68.334  1.00  0.00    -0.116 NA 
HETATM   17  C   UNL     1      -8.382   9.735  67.799  1.00  0.00    -0.114 A  
HETATM   18  N   UNL     1      -9.013   7.495  66.540  1.00  0.00    -0.155 NA 
HETATM   19  N   UNL     1      -9.116   9.831  66.702  1.00  0.00    -0.145 NA 
HETATM   20  C   UNL     1      -9.376   8.689  66.081  1.00  0.00    -0.226 A  
BRANCH  17  21
HETATM   21  N   UNL     1      -7.954  10.927  68.354  1.00  0.00    -0.120 NA 
HETATM   22  H   UNL     1      -8.218  11.197  69.301  1.00  0.00     0.000 HD 
BRANCH  21  23
HETATM   23  C   UNL     1      -7.120  11.770  67.538  1.00  0.00    -0.113 C  
BRANCH  23  24
HETATM   24  C   UNL     1      -5.971  12.182  68.403  1.00  0.00    -0.050 C  
HETATM   25  C   UNL     1      -6.074  12.906  69.527  1.00  0.00    -0.117 C  
ENDBRANCH  23  24
ENDBRANCH  21  23
ENDBRANCH  17  21
BRANCH  20  26
HETATM   26  N   UNL     1      -9.969   8.821  64.840  1.00  0.00     0.579 NA 
HETATM   27  H   UNL     1     -10.982   8.742  64.741  1.00  0.00     0.000 HD 
BRANCH  26  28
HETATM   28  C   UNL     1      -9.143   9.070  63.685  1.00  0.00     0.324 C  
BRANCH  28  29
HETATM   29  C   UNL     1      -7.819   8.383  63.898  1.00  0.00    -0.151 C  
HETATM   30  C   UNL     1      -6.662   9.007  64.164  1.00  0.00    -0.083 C  
ENDBRANCH  28  29
ENDBRANCH  26  28
ENDBRANCH  20  26
ENDBRANCH  14  15
ENDBRANCH   8   9
BRANCH   8  31
HETATM   31  C   UNL     1      -7.331   5.370  72.214  1.00  0.00    -0.094 A  
HETATM   32  C   UNL     1      -6.237   7.516  73.664  1.00  0.00    -0.064 A  
HETATM   33  C   UNL     1      -5.417   6.484  73.235  1.00  0.00    -0.038 A  
HETATM   34  F   UNL     1      -5.721   8.516  74.394  1.00  0.00    -0.087 F  
HETATM   35  C   UNL     1      -8.132   6.453  72.624  1.00  0.00    -0.105 A  
HETATM   36  C   UNL     1      -5.957   5.423  72.501  1.00  0.00    -0.027 A  
HETATM   37  C   UNL     1      -7.588   7.519  73.352  1.00  0.00    -0.124 A  
ENDBRANCH   8  31
ENDBRANCH   5   8
TORSDOF 10
ENDMDL
MODEL      239
REMARK 921   NORMALIZED FREE ENERGY PREDICTED BY IDOCK:    7.88 KCAL/MOL
REMARK 922        TOTAL FREE ENERGY PREDICTED BY IDOCK:   11.15 KCAL/MOL
REMARK 923 INTER-LIGAND FREE ENERGY PREDICTED BY IDOCK:    4.74 KCAL/MOL
REMARK 924 INTRA-LIGAND FREE ENERGY PREDICTED BY IDOCK:    6.41 KCAL/MOL
REMARK 927      BINDING AFFINITY PREDICTED BY RF-SCORE:    0.00 PKD
ROOT
HETATM    1  F   UNL     1     -13.195  11.519  65.070  1.00  0.00     1.075 F  
HETATM    2  C   UNL     1     -11.901  11.425  65.400  1.00  0.00     0.559 A  
HETATM    3  C   UNL     1     -11.031  10.731  64.567  1.00  0.00     0.168 A  
HETATM    4  C   UNL     1      -9.685  10.605  64.923  1.00  0.00    -0.341 A  
HETATM    5  C   UNL     1      -9.199  11.176  66.115  1.00  0.00    -0.216 A  
HETATM    6  C   UNL     1     -10.096  11.907  66.919  1.00  0.00    -0.229 A  
HETATM    7  C   UNL     1     -11.444  12.023  66.566  1.00  0.00    -0.413 A  
ENDROOT
BRANCH   5   8
HETATM    8  C   UNL     1      -7.722  10.998  66.511  1.00  0.00    -0.154 C  
BRANCH   8   9
HETATM    9  N   UNL     1      -7.224  12.127  67.346  1.00  0.00    -0.136 NA 
HETATM   10  C   UNL     1      -7.868  12.190  68.698  1.00  0.00    -0.078 C  
HETATM   11  C   UNL     1      -9.282  12.836  68.787  1.00  0.00     0.168 C  
HETATM   12  C   UNL     1      -7.392  13.464  66.711  1.00  0.00     0.880 C  
HETATM   13  C   UNL     1      -8.830  14.027  66.715  1.00  0.00    -0.157 C  
HETATM   14  N   UNL     1      -9.274  14.139  68.108  1.00  0.00    -0.188 NA 
BRANCH  14  15
HETATM   15  C   UNL     1     -10.470  14.836  68.286  1.00  0.00    -0.241 A  
HETATM   16  N   UNL     1     -11.529  14.172  68.724  1.00  0.00    -0.279 NA 
HETATM   17  C   UNL     1     -12.650  14.863  68.848  1.00  0.00     0.295 A  
HETATM   18  N   UNL     1     -10.491  16.136  68.000  1.00  0.00    -0.271 NA 
HETATM   19  N   UNL     1     -12.776  16.139  68.521  1.00  0.00     1.238 NA 
HETATM   20  C   UNL     1     -11.663  16.748  68.139  1.00  0.00     0.489 A  
BRANCH  17  21
HETATM   21  N   UNL     1     -13.760  14.266  69.417  1.00  0.00     2.328 NA 
HETATM   22  H   UNL     1     -14.683  14.697  69.362  1.00  0.00     0.000 HD 
BRANCH  21  23
HETATM   23  C   UNL     1     -13.558  13.009  70.089  1.00  0.00     2.113 C  
BRANCH  23  24
HETATM   24  C   UNL     1     -12.795  13.323  71.338  1.00  0.00    -0.411 C  
HETATM   25  C   UNL     1     -13.342  13.523  72.545  1.00  0.00    -0.617 C  
ENDBRANCH  23  24
ENDBRANCH  21  23
ENDBRANCH  17  21
BRANCH  20  26
HETATM   26  N   UNL     1     -11.767  18.119  67.992  1.00  0.00     1.021 NA 
HETATM   27  H   UNL     1     -12.540  18.626  68.424  1.00  0.00     0.000 HD 
BRANCH  26  28
HETATM   28  C   UNL     1     -10.772  18.825  67.223  1.00  0.00    -0.425 C  
BRANCH  28  29
HETATM   29  C   UNL     1      -9.990  19.705  68.162  1.00  0.00    -0.547 C  
HETATM   30  C   UNL     1      -9.069  19.271  69.036  1.00  0.00    -0.298 C  
ENDBRANCH  28  29
ENDBRANCH  26  28
ENDBRANCH  20  26
ENDBRANCH  14  15
ENDBRANCH   8   9
BRANCH   8  31
HETATM   31  C   UNL     1      -7.517   9.598  67.142  1.00  0.00    -0.088 A  
HETATM   32  C   UNL     1      -7.210   7.003  68.178  1.00  0.00    -0.091 A  
HETATM   33  C   UNL     1      -6.095   7.803  67.978  1.00  0.00    -0.045 A  
HETATM   34  F   UNL     1      -7.056   5.750  68.629  1.00  0.00    -0.066 F  
HETATM   35  C   UNL     1      -8.635   8.781  67.396  1.00  0.00    -0.126 A  
HETATM   36  C   UNL     1      -6.247   9.099  67.476  1.00  0.00    -0.058 A  
HETATM   37  C   UNL     1      -8.481   7.486  67.906  1.00  0.00    -0.122 A  
ENDBRANCH   8  31
ENDBRANCH   5   8
TORSDOF 10
ENDMDL
MODEL      240
REMARK 921   NORMALIZED FREE ENERGY PREDICTED BY IDOCK:    9.40 KCAL/MOL
REMARK 922        TOTAL FREE ENERGY PREDICTED BY IDOCK:   13.54 KCAL/MOL
REMARK 923 INTER-LIGAND FREE ENERGY PREDICTED BY IDOCK:    8.13 KCAL/MOL
REMARK 924 INTRA-LIGAND FREE ENERGY PREDICTED BY IDOCK:    5.41 KCAL/MOL
REMARK 927      BINDING AFFINITY PREDICTED BY RF-SCORE:    0.00 PKD
ROOT
HETATM    1  F   UNL     1      -8.655  11.573  69.802  1.00  0.00     0.464 F  
HETATM    2  C   UNL     1      -8.891  11.890  68.523  1.00  0.00    -0.108 A  
HETATM    3  C   UNL     1      -8.433  13.103  68.022  1.00  0.00    -0.181 A  
HETATM    4  C   UNL     1      -8.704  13.452  66.696  1.00  0.00    -0.014 A  
HETATM    5  C   UNL     1      -9.433  12.585  65.859  1.00  0.00    -0.111 A  
HETATM    6  C   UNL     1      -9.850  11.345  66.383  1.00  0.00    -0.242 A  
HETATM    7  C   UNL     1      -9.587  11.003  67.713  1.00  0.00    -0.180 A  
ENDROOT
BRANCH   5   8
HETATM    8  C   UNL     1      -9.754  12.999  64.411  1.00  0.00     0.231 C  
BRANCH   8   9
HETATM    9  N   UNL     1     -10.125  11.831  63.562  1.00  0.00    -0.402 NA 
HETATM   10  C   UNL     1     -10.983  10.831  64.277  1.00  0.00     0.309 C  
HETATM   11  C   UNL     1     -10.270   9.827  65.230  1.00  0.00     0.104 C  
HETATM   12  C   UNL     1      -8.956  11.096  63.007  1.00  0.00    -0.218 C  
HETATM   13  C   UNL     1      -8.199  10.194  64.007  1.00  0.00    -0.164 C  
HETATM   14  N   UNL     1      -9.141   9.198  64.529  1.00  0.00    -0.100 NA 
BRANCH  14  15
HETATM   15  C   UNL     1      -8.556   8.176  65.279  1.00  0.00    -0.106 A  
HETATM   16  N   UNL     1      -7.616   7.436  64.712  1.00  0.00    -0.096 NA 
HETATM   17  C   UNL     1      -7.111   6.458  65.446  1.00  0.00    -0.064 A  
HETATM   18  N   UNL     1      -8.978   7.990  66.527  1.00  0.00    -0.148 NA 
HETATM   19  N   UNL     1      -7.520   6.161  66.668  1.00  0.00    -0.089 NA 
HETATM   20  C   UNL     1      -8.428   6.976  67.187  1.00  0.00    -0.121 A  
BRANCH  17  21
HETATM   21  N   UNL     1      -6.041   5.727  64.964  1.00  0.00    -0.025 NA 
HETATM   22  H   UNL     1      -5.705   5.843  64.008  1.00  0.00     0.000 HD 
BRANCH  21  23
HETATM   23  C   UNL     1      -5.422   4.795  65.870  1.00  0.00    -0.013 C  
BRANCH  23  24
HETATM   24  C   UNL     1      -5.925   3.440  65.482  1.00  0.00    -0.019 C  
HETATM   25  C   UNL     1      -6.450   3.126  64.290  1.00  0.00    -0.031 C  
ENDBRANCH  23  24
ENDBRANCH  21  23
ENDBRANCH  17  21
BRANCH  20  26
HETATM   26  N   UNL     1      -8.698   6.772  68.527  1.00  0.00    -0.125 NA 
HETATM   27  H   UNL     1      -8.095   7.179  69.243  1.00  0.00     0.000 HD 
BRANCH  26  28
HETATM   28  C   UNL     1      -9.842   5.978  68.905  1.00  0.00    -0.140 C  
BRANCH  28  29
HETATM   29  C   UNL     1     -10.990   6.912  69.183  1.00  0.00    -0.240 C  
HETATM   30  C   UNL     1     -11.589   7.061  70.373  1.00  0.00    -0.341 C  
ENDBRANCH  28  29
ENDBRANCH  26  28
ENDBRANCH  20  26
ENDBRANCH  14  15
ENDBRANCH   8   9
BRANCH   8  31
HETATM   31  C   UNL     1     -10.798  14.142  64.415  1.00  0.00    -0.218 A  
HETATM   32  C   UNL     1     -12.708  16.201  64.560  1.00  0.00     1.593 A  
HETATM   33  C   UNL     1     -11.454  16.458  64.027  1.00  0.00     0.557 A  
HETATM   34  F   UNL     1     -13.601  17.195  64.669  1.00  0.00     5.481 F  
HETATM   35  C   UNL     1     -12.093  13.898  64.911  1.00  0.00    -0.434 A  
HETATM   36  C   UNL     1     -10.508  15.432  63.941  1.00  0.00     2.638 A  
HETATM   37  C   UNL     1     -13.042  14.925  64.988  1.00  0.00     0.687 A  
ENDBRANCH   8  31
ENDBRANCH   5   8
TORSDOF 10
ENDMDL
MODEL      241
REMARK 921   NORMALIZED FREE ENERGY PREDICTED BY IDOCK:   17.23 KCAL/MOL
REMARK 922        TOTAL FREE ENERGY PREDICTED BY IDOCK:   25.96 KCAL/MOL
REMARK 923 INTER-LIGAND FREE ENERGY PREDICTED BY IDOCK:   21.63 KCAL/MOL
REMARK 924 INTRA-LIGAND FREE ENERGY PREDICTED BY IDOCK:    4.33 KCAL/MOL
REMARK 927      BINDING AFFINITY PREDICTED BY RF-SCORE:    0.00 PKD
ROOT
HETATM    1  F   UNL     1     -10.495  18.213  64.405  1.00  0.00     1.742 F  
HETATM    2  C   UNL     1     -10.879  17.049  64.944  1.00  0.00     0.098 A  
HETATM    3  C   UNL     1     -11.897  16.318  64.342  1.00  0.00     0.180 A  
HETATM    4  C   UNL     1     -12.322  15.118  64.919  1.00  0.00     0.015 A  
HETATM    5  C   UNL     1     -11.726  14.637  66.101  1.00  0.00    -0.316 A  
HETATM    6  C   UNL     1     -10.670  15.378  66.665  1.00  0.00    -0.309 A  
HETATM    7  C   UNL     1     -10.254  16.585  66.092  1.00  0.00    -0.360 A  
ENDROOT
BRANCH   5   8
HETATM    8  C   UNL     1     -12.229  13.331  66.742  1.00  0.00    -0.280 C  
BRANCH   8   9
HETATM    9  N   UNL     1     -12.607  12.312  65.722  1.00  0.00    -0.252 NA 
HETATM   10  C   UNL     1     -12.947  10.979  66.315  1.00  0.00     7.374 C  
HETATM   11  C   UNL     1     -11.763  10.048  66.709  1.00  0.00     2.246 C  
HETATM   12  C   UNL     1     -11.561  12.083  64.686  1.00  0.00    -0.297 C  
HETATM   13  C   UNL     1     -10.343  11.251  65.142  1.00  0.00    -0.295 C  
HETATM   14  N   UNL     1     -10.826   9.937  65.583  1.00  0.00     0.475 NA 
BRANCH  14  15
HETATM   15  C   UNL     1      -9.823   8.995  65.819  1.00  0.00    -0.111 A  
HETATM   16  N   UNL     1      -8.666   9.413  66.308  1.00  0.00    -0.137 NA 
HETATM   17  C   UNL     1      -7.732   8.493  66.486  1.00  0.00    -0.092 A  
HETATM   18  N   UNL     1     -10.077   7.720  65.533  1.00  0.00     1.308 NA 
HETATM   19  N   UNL     1      -7.877   7.217  66.165  1.00  0.00    -0.104 NA 
HETATM   20  C   UNL     1      -9.078   6.865  65.729  1.00  0.00     0.060 A  
BRANCH  17  21
HETATM   21  N   UNL     1      -6.547   8.836  67.108  1.00  0.00    -0.061 NA 
HETATM   22  H   UNL     1      -6.505   9.587  67.798  1.00  0.00     0.000 HD 
BRANCH  21  23
HETATM   23  C   UNL     1      -5.372   8.088  66.742  1.00  0.00    -0.032 C  
BRANCH  23  24
HETATM   24  C   UNL     1      -5.291   6.943  67.702  1.00  0.00    -0.012 C  
HETATM   25  C   UNL     1      -6.341   6.366  68.303  1.00  0.00    -0.040 C  
ENDBRANCH  23  24
ENDBRANCH  21  23
ENDBRANCH  17  21
BRANCH  20  26
HETATM   26  N   UNL     1      -9.272   5.504  65.587  1.00  0.00    -0.279 NA 
HETATM   27  H   UNL     1      -8.674   4.960  64.965  1.00  0.00     0.000 HD 
BRANCH  26  28
HETATM   28  C   UNL     1     -10.330   4.861  66.326  1.00  0.00    -0.298 C  
BRANCH  28  29
HETATM   29  C   UNL     1     -11.414   5.877  66.575  1.00  0.00     0.678 C  
HETATM   30  C   UNL     1     -12.419   6.153  65.731  1.00  0.00     5.875 C  
ENDBRANCH  28  29
ENDBRANCH  26  28
ENDBRANCH  20  26
ENDBRANCH  14  15
ENDBRANCH   8   9
BRANCH   8  31
HETATM   31  C   UNL     1     -11.201  12.835  67.789  1.00  0.00    -0.317 A  
HETATM   32  C   UNL     1      -9.275  12.060  69.685  1.00  0.00     1.721 A  
HETATM   33  C   UNL     1     -10.624  11.945  69.984  1.00  0.00     1.000 A  
HETATM   34  F   UNL     1      -8.359  11.732  70.607  1.00  0.00     3.147 F  
HETATM   35  C   UNL     1      -9.825  12.899  67.495  1.00  0.00    -0.208 A  
HETATM   36  C   UNL     1     -11.583  12.317  69.037  1.00  0.00    -0.368 A  
HETATM   37  C   UNL     1      -8.866  12.519  68.442  1.00  0.00    -0.123 A  
ENDBRANCH   8  31
ENDBRANCH   5   8
TORSDOF 10
ENDMDL
MODEL      242
REMARK 921   NORMALIZED FREE ENERGY PREDICTED BY IDOCK:   20.31 KCAL/MOL
REMARK 922        TOTAL FREE ENERGY PREDICTED BY IDOCK:   30.84 KCAL/MOL
REMARK 923 INTER-LIGAND FREE ENERGY PREDICTED BY IDOCK:   29.14 KCAL/MOL
REMARK 924 INTRA-LIGAND FREE ENERGY PREDICTED BY IDOCK:    1.70 KCAL/MOL
REMARK 927      BINDING AFFINITY PREDICTED BY RF-SCORE:    0.00 PKD
ROOT
HETATM    1  F   UNL     1     -11.739  14.244  73.350  1.00  0.00     0.064 F  
HETATM    2  C   UNL     1     -10.819  14.086  72.390  1.00  0.00     4.165 A  
HETATM    3  C   UNL     1     -11.226  13.906  71.074  1.00  0.00     1.018 A  
HETATM    4  C   UNL     1     -10.269  13.710  70.074  1.00  0.00     1.425 A  
HETATM    5  C   UNL     1      -8.896  13.699  70.384  1.00  0.00     4.020 A  
HETATM    6  C   UNL     1      -8.512  13.925  71.720  1.00  0.00     9.014 A  
HETATM    7  C   UNL     1      -9.471  14.109  72.721  1.00  0.00     9.486 A  
ENDROOT
BRANCH   5   8
HETATM    8  C   UNL     1      -7.856  13.448  69.276  1.00  0.00     0.450 C  
BRANCH   8   9
HETATM    9  N   UNL     1      -6.860  12.410  69.667  1.00  0.00     0.062 NA 
HETATM   10  C   UNL     1      -5.838  12.143  68.603  1.00  0.00    -0.053 C  
HETATM   11  C   UNL     1      -6.255  11.207  67.430  1.00  0.00    -0.066 C  
HETATM   12  C   UNL     1      -7.468  11.102  70.036  1.00  0.00     0.617 C  
HETATM   13  C   UNL     1      -7.976  10.246  68.856  1.00  0.00    -0.113 C  
HETATM   14  N   UNL     1      -6.840   9.971  67.968  1.00  0.00    -0.067 NA 
BRANCH  14  15
HETATM   15  C   UNL     1      -7.092   9.027  66.972  1.00  0.00    -0.079 A  
HETATM   16  N   UNL     1      -6.672   9.279  65.741  1.00  0.00    -0.075 NA 
HETATM   17  C   UNL     1      -6.959   8.373  64.821  1.00  0.00    -0.072 A  
HETATM   18  N   UNL     1      -7.751   7.920  67.305  1.00  0.00    -0.103 NA 
HETATM   19  N   UNL     1      -7.668   7.280  65.052  1.00  0.00    -0.107 NA 
HETATM   20  C   UNL     1      -8.010   7.071  66.315  1.00  0.00    -0.114 A  
BRANCH  17  21
HETATM   21  N   UNL     1      -6.444   8.510  63.546  1.00  0.00    -0.084 NA 
HETATM   22  H   UNL     1      -6.774   7.930  62.774  1.00  0.00     0.000 HD 
BRANCH  21  23
HETATM   23  C   UNL     1      -5.424   9.507  63.352  1.00  0.00    -0.076 C  
BRANCH  23  24
HETATM   24  C   UNL     1      -5.998  10.513  62.404  1.00  0.00    -0.140 C  
HETATM   25  C   UNL     1      -5.961  11.842  62.576  1.00  0.00     1.193 C  
ENDBRANCH  23  24
ENDBRANCH  21  23
ENDBRANCH  17  21
BRANCH  20  26
HETATM   26  N   UNL     1      -8.574   5.835  66.571  1.00  0.00    -0.119 NA 
HETATM   27  H   UNL     1      -7.993   4.996  66.585  1.00  0.00     0.000 HD 
BRANCH  26  28
HETATM   28  C   UNL     1      -9.992   5.743  66.818  1.00  0.00    -0.175 C  
BRANCH  28  29
HETATM   29  C   UNL     1     -10.193   5.375  68.265  1.00  0.00    -0.224 C  
HETATM   30  C   UNL     1      -9.382   4.579  68.977  1.00  0.00    -0.211 C  
ENDBRANCH  28  29
ENDBRANCH  26  28
ENDBRANCH  20  26
ENDBRANCH  14  15
ENDBRANCH   8   9
BRANCH   8  31
HETATM   31  C   UNL     1      -8.580  13.166  67.937  1.00  0.00    -0.185 A  
HETATM   32  C   UNL     1      -9.772  12.673  65.439  1.00  0.00    -0.061 A  
HETATM   33  C   UNL     1      -9.860  11.723  66.445  1.00  0.00    -0.237 A  
HETATM   34  F   UNL     1     -10.303  12.416  64.234  1.00  0.00    -0.299 F  
HETATM   35  C   UNL     1      -8.544  14.130  66.911  1.00  0.00    -0.157 A  
HETATM   36  C   UNL     1      -9.280  11.973  67.692  1.00  0.00    -0.182 A  
HETATM   37  C   UNL     1      -9.133  13.882  65.666  1.00  0.00     0.621 A  
ENDBRANCH   8  31
ENDBRANCH   5   8
TORSDOF 10
ENDMDL
MODEL      243
REMARK 921   NORMALIZED FREE ENERGY PREDICTED BY IDOCK:   25.91 KCAL/MOL
REMARK 922        TOTAL FREE ENERGY PREDICTED BY IDOCK:   39.71 KCAL/MOL
REMARK 923 INTER-LIGAND FREE ENERGY PREDICTED BY IDOCK:   37.63 KCAL/MOL
REMARK 924 INTRA-LIGAND FREE ENERGY PREDICTED BY IDOCK:    2.08 KCAL/MOL
REMARK 927      BINDING AFFINITY PREDICTED BY RF-SCORE:    0.00 PKD
ROOT
HETATM    1  F   UNL     1     -12.679   7.160  64.108  1.00  0.00    12.825 F  
HETATM    2  C   UNL     1     -11.979   7.796  65.056  1.00  0.00    14.569 A  
HETATM    3  C   UNL     1     -11.982   9.186  65.094  1.00  0.00    10.891 A  
HETATM    4  C   UNL     1     -11.229   9.854  66.063  1.00  0.00     1.184 A  
HETATM    5  C   UNL     1     -10.469   9.135  67.006  1.00  0.00    -0.311 A  
HETATM    6  C   UNL     1     -10.517   7.728  66.968  1.00  0.00    -0.419 A  
HETATM    7  C   UNL     1     -11.264   7.061  65.991  1.00  0.00     2.616 A  
ENDROOT
BRANCH   5   8
HETATM    8  C   UNL     1      -9.617   9.886  68.045  1.00  0.00    -0.138 C  
BRANCH   8   9
HETATM    9  N   UNL     1      -8.180   9.950  67.652  1.00  0.00    -0.114 NA 
HETATM   10  C   UNL     1      -7.302  10.530  68.719  1.00  0.00    -0.092 C  
HETATM   11  C   UNL     1      -7.266  12.081  68.851  1.00  0.00    -0.089 C  
HETATM   12  C   UNL     1      -7.933  10.724  66.404  1.00  0.00    -0.151 C  
HETATM   13  C   UNL     1      -8.017  12.259  66.544  1.00  0.00     0.211 C  
HETATM   14  N   UNL     1      -7.020  12.684  67.534  1.00  0.00    -0.140 NA 
BRANCH  14  15
HETATM   15  C   UNL     1      -6.824  14.063  67.611  1.00  0.00    -0.179 A  
HETATM   16  N   UNL     1      -7.410  14.837  66.710  1.00  0.00     0.228 NA 
HETATM   17  C   UNL     1      -7.172  16.135  66.800  1.00  0.00    -0.155 A  
HETATM   18  N   UNL     1      -6.048  14.536  68.584  1.00  0.00    -0.080 NA 
HETATM   19  N   UNL     1      -6.361  16.680  67.692  1.00  0.00    -0.141 NA 
HETATM   20  C   UNL     1      -5.850  15.850  68.590  1.00  0.00    -0.101 A  
BRANCH  17  21
HETATM   21  N   UNL     1      -7.849  17.011  65.972  1.00  0.00    -0.440 NA 
HETATM   22  H   UNL     1      -7.382  17.473  65.192  1.00  0.00     0.000 HD 
BRANCH  21  23
HETATM   23  C   UNL     1      -9.241  17.243  66.259  1.00  0.00    -0.215 C  
BRANCH  23  24
HETATM   24  C   UNL     1      -9.323  18.620  66.838  1.00  0.00    -0.308 C  
HETATM   25  C   UNL     1      -9.976  19.651  66.283  1.00  0.00    -0.563 C  
ENDBRANCH  23  24
ENDBRANCH  21  23
ENDBRANCH  17  21
BRANCH  20  26
HETATM   26  N   UNL     1      -5.169  16.459  69.628  1.00  0.00    -0.128 NA 
HETATM   27  H   UNL     1      -4.187  16.715  69.520  1.00  0.00     0.000 HD 
BRANCH  26  28
HETATM   28  C   UNL     1      -5.860  16.729  70.865  1.00  0.00     0.456 C  
BRANCH  28  29
HETATM   29  C   UNL     1      -5.244  15.875  71.942  1.00  0.00     0.189 C  
HETATM   30  C   UNL     1      -5.337  14.540  72.013  1.00  0.00    -0.138 C  
ENDBRANCH  28  29
ENDBRANCH  26  28
ENDBRANCH  20  26
ENDBRANCH  14  15
ENDBRANCH   8   9
BRANCH   8  31
HETATM   31  C   UNL     1     -10.257  11.263  68.347  1.00  0.00    -0.205 A  
HETATM   32  C   UNL     1     -11.343  13.770  69.011  1.00  0.00    -0.289 A  
HETATM   33  C   UNL     1     -10.725  13.589  67.783  1.00  0.00    -0.262 A  
HETATM   34  F   UNL     1     -11.819  14.979  69.344  1.00  0.00    -0.291 F  
HETATM   35  C   UNL     1     -10.929  11.464  69.569  1.00  0.00    -0.226 A  
HETATM   36  C   UNL     1     -10.197  12.339  67.446  1.00  0.00    -0.213 A  
HETATM   37  C   UNL     1     -11.464  12.714  69.901  1.00  0.00    -0.153 A  
ENDBRANCH   8  31
ENDBRANCH   5   8
TORSDOF 10
ENDMDL
MODEL      244
REMARK 921   NORMALIZED FREE ENERGY PREDICTED BY IDOCK:   26.39 KCAL/MOL
REMARK 922        TOTAL FREE ENERGY PREDICTED BY IDOCK:   40.47 KCAL/MOL
REMARK 923 INTER-LIGAND FREE ENERGY PREDICTED BY IDOCK:   40.89 KCAL/MOL
REMARK 924 INTRA-LIGAND FREE ENERGY PREDICTED BY IDOCK:   -0.43 KCAL/MOL
REMARK 927      BINDING AFFINITY PREDICTED BY RF-SCORE:    0.00 PKD
ROOT
HETATM    1  F   UNL     1      -6.252   3.945  66.789  1.00  0.00    -0.028 F  
HETATM    2  C   UNL     1      -6.679   5.201  66.607  1.00  0.00    -0.061 A  
HETATM    3  C   UNL     1      -5.941   6.258  67.127  1.00  0.00    -0.021 A  
HETATM    4  C   UNL     1      -6.400   7.568  66.965  1.00  0.00    -0.053 A  
HETATM    5  C   UNL     1      -7.600   7.831  66.277  1.00  0.00    -0.087 A  
HETATM    6  C   UNL     1      -8.305   6.743  65.726  1.00  0.00    -0.143 A  
HETATM    7  C   UNL     1      -7.850   5.432  65.899  1.00  0.00    -0.103 A  
ENDROOT
BRANCH   5   8
HETATM    8  C   UNL     1      -8.110   9.277  66.138  1.00  0.00    -0.110 C  
BRANCH   8   9
HETATM    9  N   UNL     1      -7.037  10.210  65.688  1.00  0.00    -0.126 NA 
HETATM   10  C   UNL     1      -6.430  10.996  66.810  1.00  0.00    -0.124 C  
HETATM   11  C   UNL     1      -7.212  12.245  67.315  1.00  0.00    -0.138 C  
HETATM   12  C   UNL     1      -7.483  11.184  64.655  1.00  0.00     0.870 C  
HETATM   13  C   UNL     1      -8.354  12.351  65.170  1.00  0.00     2.104 C  
HETATM   14  N   UNL     1      -7.580  13.092  66.172  1.00  0.00     1.555 NA 
BRANCH  14  15
HETATM   15  C   UNL     1      -8.148  14.302  66.572  1.00  0.00     0.674 A  
HETATM   16  N   UNL     1      -7.405  15.149  67.270  1.00  0.00    -0.202 NA 
HETATM   17  C   UNL     1      -7.992  16.270  67.656  1.00  0.00    -0.144 A  
HETATM   18  N   UNL     1      -9.413  14.545  66.239  1.00  0.00    -0.295 NA 
HETATM   19  N   UNL     1      -9.263  16.559  67.428  1.00  0.00    -0.215 NA 
HETATM   20  C   UNL     1      -9.927  15.688  66.682  1.00  0.00    -0.258 A  
BRANCH  17  21
HETATM   21  N   UNL     1      -7.243  17.252  68.278  1.00  0.00    -0.202 NA 
HETATM   22  H   UNL     1      -6.690  17.051  69.110  1.00  0.00     0.000 HD 
BRANCH  21  23
HETATM   23  C   UNL     1      -7.279  18.570  67.699  1.00  0.00    -0.215 C  
BRANCH  23  24
HETATM   24  C   UNL     1      -6.405  18.516  66.486  1.00  0.00    -0.213 C  
HETATM   25  C   UNL     1      -6.019  19.580  65.767  1.00  0.00    -0.197 C  
ENDBRANCH  23  24
ENDBRANCH  21  23
ENDBRANCH  17  21
BRANCH  20  26
HETATM   26  N   UNL     1     -11.188  16.098  66.288  1.00  0.00     0.107 NA 
HETATM   27  H   UNL     1     -11.978  16.022  66.928  1.00  0.00     0.000 HD 
BRANCH  26  28
HETATM   28  C   UNL     1     -11.374  16.634  64.961  1.00  0.00     0.102 C  
BRANCH  28  29
HETATM   29  C   UNL     1     -11.476  18.133  65.071  1.00  0.00     2.258 C  
HETATM   30  C   UNL     1     -10.619  19.005  64.522  1.00  0.00     3.879 C  
ENDBRANCH  28  29
ENDBRANCH  26  28
ENDBRANCH  20  26
ENDBRANCH  14  15
ENDBRANCH   8   9
BRANCH   8  31
HETATM   31  C   UNL     1      -9.384   9.299  65.258  1.00  0.00    -0.269 A  
HETATM   32  C   UNL     1     -11.727   9.462  63.713  1.00  0.00    11.387 A  
HETATM   33  C   UNL     1     -10.503   9.267  63.092  1.00  0.00     4.565 A  
HETATM   34  F   UNL     1     -12.837   9.585  62.971  1.00  0.00     7.718 F  
HETATM   35  C   UNL     1     -10.645   9.452  65.865  1.00  0.00     0.477 A  
HETATM   36  C   UNL     1      -9.339   9.171  63.860  1.00  0.00     0.484 A  
HETATM   37  C   UNL     1     -11.811   9.540  65.095  1.00  0.00     7.916 A  
ENDBRANCH   8  31
ENDBRANCH   5   8
TORSDOF 10
ENDMDL
MODEL      245
REMARK 921   NORMALIZED FREE ENERGY PREDICTED BY IDOCK:   28.64 KCAL/MOL
REMARK 922        TOTAL FREE ENERGY PREDICTED BY IDOCK:   44.03 KCAL/MOL
REMARK 923 INTER-LIGAND FREE ENERGY PREDICTED BY IDOCK:   27.73 KCAL/MOL
REMARK 924 INTRA-LIGAND FREE ENERGY PREDICTED BY IDOCK:   16.30 KCAL/MOL
REMARK 927      BINDING AFFINITY PREDICTED BY RF-SCORE:    0.00 PKD
ROOT
HETATM    1  F   UNL     1      -9.914  18.662  65.092  1.00  0.00     0.467 F  
HETATM    2  C   UNL     1     -10.398  17.789  65.985  1.00  0.00    -0.304 A  
HETATM    3  C   UNL     1     -11.439  16.942  65.621  1.00  0.00     0.923 A  
HETATM    4  C   UNL     1     -11.966  16.051  66.559  1.00  0.00     1.224 A  
HETATM    5  C   UNL     1     -11.452  15.997  67.869  1.00  0.00    -0.140 A  
HETATM    6  C   UNL     1     -10.371  16.838  68.197  1.00  0.00    -0.318 A  
HETATM    7  C   UNL     1      -9.852  17.737  67.260  1.00  0.00    -0.312 A  
ENDROOT
BRANCH   5   8
HETATM    8  C   UNL     1     -12.068  15.034  68.901  1.00  0.00    -0.188 C  
BRANCH   8   9
HETATM    9  N   UNL     1     -12.525  13.759  68.277  1.00  0.00     0.083 NA 
HETATM   10  C   UNL     1     -13.115  12.798  69.264  1.00  0.00     1.951 C  
HETATM   11  C   UNL     1     -12.126  11.949  70.115  1.00  0.00    -0.302 C  
HETATM   12  C   UNL     1     -11.454  13.035  67.538  1.00  0.00    -0.328 C  
HETATM   13  C   UNL     1     -10.421  12.296  68.415  1.00  0.00    -0.233 C  
HETATM   14  N   UNL     1     -11.137  11.312  69.235  1.00  0.00    -0.241 NA 
BRANCH  14  15
HETATM   15  C   UNL     1     -10.317  10.415  69.921  1.00  0.00    -0.182 A  
HETATM   16  N   UNL     1      -9.166  10.855  70.407  1.00  0.00     1.484 NA 
HETATM   17  C   UNL     1      -8.405   9.966  71.022  1.00  0.00     0.974 A  
HETATM   18  N   UNL     1     -10.728   9.155  70.048  1.00  0.00    -0.226 NA 
HETATM   19  N   UNL     1      -8.705   8.682  71.133  1.00  0.00    -0.178 NA 
HETATM   20  C   UNL     1      -9.894   8.326  70.667  1.00  0.00    -0.182 A  
BRANCH  17  21
HETATM   21  N   UNL     1      -7.252  10.381  71.661  1.00  0.00     1.204 NA 
HETATM   22  H   UNL     1      -7.168  11.319  72.052  1.00  0.00     0.000 HD 
BRANCH  21  23
HETATM   23  C   UNL     1      -6.173   9.432  71.752  1.00  0.00     0.066 C  
BRANCH  23  24
HETATM   24  C   UNL     1      -6.370   8.698  73.040  1.00  0.00    -0.071 C  
HETATM   25  C   UNL     1      -7.509   8.100  73.419  1.00  0.00    -0.193 C  
ENDBRANCH  23  24
ENDBRANCH  21  23
ENDBRANCH  17  21
BRANCH  20  26
HETATM   26  N   UNL     1     -10.275   7.031  70.966  1.00  0.00    -0.197 NA 
HETATM   27  H   UNL     1      -9.699   6.242  70.668  1.00  0.00     0.000 HD 
BRANCH  26  28
HETATM   28  C   UNL     1     -11.495   6.805  71.702  1.00  0.00    -0.282 C  
BRANCH  28  29
HETATM   29  C   UNL     1     -12.434   7.947  71.415  1.00  0.00    -0.330 C  
HETATM   30  C   UNL     1     -12.057   9.213  71.182  1.00  0.00    -0.365 C  
ENDBRANCH  28  29
ENDBRANCH  26  28
ENDBRANCH  20  26
ENDBRANCH  14  15
ENDBRANCH   8   9
BRANCH   8  31
HETATM   31  C   UNL     1     -11.091  14.849  70.089  1.00  0.00    -0.247 A  
HETATM   32  C   UNL     1      -9.213  14.509  72.153  1.00  0.00     6.843 A  
HETATM   33  C   UNL     1     -10.068  15.600  72.170  1.00  0.00     3.182 A  
HETATM   34  F   UNL     1      -8.288  14.374  73.115  1.00  0.00     4.151 F  
HETATM   35  C   UNL     1     -10.241  13.727  70.120  1.00  0.00     1.557 A  
HETATM   36  C   UNL     1     -11.012  15.763  71.152  1.00  0.00    -0.183 A  
HETATM   37  C   UNL     1      -9.301  13.562  71.145  1.00  0.00     8.626 A  
ENDBRANCH   8  31
ENDBRANCH   5   8
TORSDOF 10
ENDMDL
MODEL      246
REMARK 921   NORMALIZED FREE ENERGY PREDICTED BY IDOCK:   29.27 KCAL/MOL
REMARK 922        TOTAL FREE ENERGY PREDICTED BY IDOCK:   45.04 KCAL/MOL
REMARK 923 INTER-LIGAND FREE ENERGY PREDICTED BY IDOCK:   28.64 KCAL/MOL
REMARK 924 INTRA-LIGAND FREE ENERGY PREDICTED BY IDOCK:   16.40 KCAL/MOL
REMARK 927      BINDING AFFINITY PREDICTED BY RF-SCORE:    0.00 PKD
ROOT
HETATM    1  F   UNL     1      -9.914  18.662  65.094  1.00  0.00     0.467 F  
HETATM    2  C   UNL     1     -10.398  17.803  66.000  1.00  0.00    -0.304 A  
HETATM    3  C   UNL     1     -11.440  16.952  65.649  1.00  0.00     0.923 A  
HETATM    4  C   UNL     1     -11.968  16.075  66.601  1.00  0.00     1.180 A  
HETATM    5  C   UNL     1     -11.454  16.041  67.911  1.00  0.00    -0.140 A  
HETATM    6  C   UNL     1     -10.372  16.887  68.227  1.00  0.00    -0.335 A  
HETATM    7  C   UNL     1      -9.852  17.771  67.276  1.00  0.00    -0.312 A  
ENDROOT
BRANCH   5   8
HETATM    8  C   UNL     1     -12.070  15.094  68.958  1.00  0.00    -0.209 C  
BRANCH   8   9
HETATM    9  N   UNL     1     -12.520  13.807  68.355  1.00  0.00     0.080 NA 
HETATM   10  C   UNL     1     -13.116  12.864  69.355  1.00  0.00     1.761 C  
HETATM   11  C   UNL     1     -12.132  12.033  70.231  1.00  0.00    -0.312 C  
HETATM   12  C   UNL     1     -11.443  13.071  67.638  1.00  0.00    -0.324 C  
HETATM   13  C   UNL     1     -10.414  12.351  68.537  1.00  0.00    -0.228 C  
HETATM   14  N   UNL     1     -11.135  11.381  69.370  1.00  0.00    -0.250 NA 
BRANCH  14  15
HETATM   15  C   UNL     1     -10.319  10.500  70.080  1.00  0.00    -0.034 A  
HETATM   16  N   UNL     1     -10.790   9.297  70.371  1.00  0.00    -0.238 NA 
HETATM   17  C   UNL     1      -9.997   8.504  71.072  1.00  0.00    -0.203 A  
HETATM   18  N   UNL     1      -9.105  10.914  70.438  1.00  0.00     1.499 NA 
HETATM   19  N   UNL     1      -8.806   8.860  71.526  1.00  0.00    -0.298 NA 
HETATM   20  C   UNL     1      -8.381  10.058  71.153  1.00  0.00     1.599 A  
BRANCH  17  21
HETATM   21  N   UNL     1     -10.373   7.194  71.304  1.00  0.00    -0.198 NA 
HETATM   22  H   UNL     1     -10.969   6.688  70.648  1.00  0.00     0.000 HD 
BRANCH  21  23
HETATM   23  C   UNL     1      -9.889   6.575  72.510  1.00  0.00    -0.165 C  
BRANCH  23  24
HETATM   24  C   UNL     1      -8.594   5.918  72.149  1.00  0.00    -0.129 C  
HETATM   25  C   UNL     1      -7.570   6.521  71.529  1.00  0.00    -0.094 C  
ENDBRANCH  23  24
ENDBRANCH  21  23
ENDBRANCH  17  21
BRANCH  20  26
HETATM   26  N   UNL     1      -7.063  10.335  71.467  1.00  0.00     0.544 NA 
HETATM   27  H   UNL     1      -6.746  10.303  72.436  1.00  0.00     0.000 HD 
BRANCH  26  28
HETATM   28  C   UNL     1      -6.141  10.671  70.409  1.00  0.00    -0.132 C  
BRANCH  28  29
HETATM   29  C   UNL     1      -6.924  11.303  69.288  1.00  0.00    -0.119 C  
HETATM   30  C   UNL     1      -8.184  10.988  68.956  1.00  0.00    -0.101 C  
ENDBRANCH  28  29
ENDBRANCH  26  28
ENDBRANCH  20  26
ENDBRANCH  14  15
ENDBRANCH   8   9
BRANCH   8  31
HETATM   31  C   UNL     1     -11.098  14.934  70.153  1.00  0.00    -0.247 A  
HETATM   32  C   UNL     1      -9.227  14.638  72.230  1.00  0.00     6.767 A  
HETATM   33  C   UNL     1     -10.085  15.727  72.223  1.00  0.00     3.749 A  
HETATM   34  F   UNL     1      -8.306  14.523  73.198  1.00  0.00     4.052 F  
HETATM   35  C   UNL     1     -10.245  13.815  70.208  1.00  0.00     1.855 A  
HETATM   36  C   UNL     1     -11.025  15.868  71.198  1.00  0.00    -0.106 A  
HETATM   37  C   UNL     1      -9.309  13.671  71.240  1.00  0.00     8.639 A  
ENDBRANCH   8  31
ENDBRANCH   5   8
TORSDOF 10
ENDMDL
MODEL      247
REMARK 921   NORMALIZED FREE ENERGY PREDICTED BY IDOCK:   31.26 KCAL/MOL
REMARK 922        TOTAL FREE ENERGY PREDICTED BY IDOCK:   48.20 KCAL/MOL
REMARK 923 INTER-LIGAND FREE ENERGY PREDICTED BY IDOCK:   45.77 KCAL/MOL
REMARK 924 INTRA-LIGAND FREE ENERGY PREDICTED BY IDOCK:    2.43 KCAL/MOL
REMARK 927      BINDING AFFINITY PREDICTED BY RF-SCORE:    0.00 PKD
ROOT
HETATM    1  F   UNL     1      -9.331  11.939  64.586  1.00  0.00    -0.141 F  
HETATM    2  C   UNL     1      -9.374  11.814  65.919  1.00  0.00    -0.202 A  
HETATM    3  C   UNL     1      -9.524  10.553  66.484  1.00  0.00    -0.200 A  
HETATM    4  C   UNL     1      -9.600  10.421  67.873  1.00  0.00    -0.157 A  
HETATM    5  C   UNL     1      -9.522  11.552  68.708  1.00  0.00    -0.099 A  
HETATM    6  C   UNL     1      -9.329  12.812  68.109  1.00  0.00    -0.214 A  
HETATM    7  C   UNL     1      -9.264  12.943  66.718  1.00  0.00    -0.230 A  
ENDROOT
BRANCH   5   8
HETATM    8  C   UNL     1      -9.642  11.394  70.235  1.00  0.00     2.653 C  
BRANCH   8   9
HETATM    9  N   UNL     1      -8.643  10.433  70.781  1.00  0.00     0.978 NA 
HETATM   10  C   UNL     1      -7.754   9.844  69.728  1.00  0.00    -0.155 C  
HETATM   11  C   UNL     1      -8.326   8.667  68.884  1.00  0.00    -0.124 C  
HETATM   12  C   UNL     1      -9.248   9.300  71.534  1.00  0.00     0.064 C  
HETATM   13  C   UNL     1      -9.910   8.203  70.671  1.00  0.00    -0.181 C  
HETATM   14  N   UNL     1      -8.888   7.646  69.778  1.00  0.00    -0.140 NA 
BRANCH  14  15
HETATM   15  C   UNL     1      -9.278   6.496  69.089  1.00  0.00    -0.135 A  
HETATM   16  N   UNL     1     -10.094   6.626  68.054  1.00  0.00    -0.146 NA 
HETATM   17  C   UNL     1     -10.463   5.509  67.450  1.00  0.00    -0.219 A  
HETATM   18  N   UNL     1      -8.815   5.321  69.512  1.00  0.00    -0.103 NA 
HETATM   19  N   UNL     1     -10.107   4.297  67.846  1.00  0.00     0.021 NA 
HETATM   20  C   UNL     1      -9.251   4.250  68.856  1.00  0.00    -0.145 A  
BRANCH  17  21
HETATM   21  N   UNL     1     -11.211   5.577  66.289  1.00  0.00    -0.737 NA 
HETATM   22  H   UNL     1     -11.694   6.433  66.017  1.00  0.00     0.000 HD 
BRANCH  21  23
HETATM   23  C   UNL     1     -11.280   4.388  65.481  1.00  0.00     0.650 C  
BRANCH  23  24
HETATM   24  C   UNL     1     -11.895   4.802  64.181  1.00  0.00     2.582 C  
HETATM   25  C   UNL     1     -11.277   5.516  63.230  1.00  0.00     4.422 C  
ENDBRANCH  23  24
ENDBRANCH  21  23
ENDBRANCH  17  21
BRANCH  20  26
HETATM   26  N   UNL     1      -8.736   2.996  69.128  1.00  0.00    -0.074 NA 
HETATM   27  H   UNL     1      -8.920   2.547  70.026  1.00  0.00     0.000 HD 
BRANCH  26  28
HETATM   28  C   UNL     1      -7.937   2.328  68.130  1.00  0.00    -0.058 C  
BRANCH  28  29
HETATM   29  C   UNL     1      -6.578   2.979  68.106  1.00  0.00    -0.037 C  
HETATM   30  C   UNL     1      -5.411   2.320  68.078  1.00  0.00    -0.013 C  
ENDBRANCH  28  29
ENDBRANCH  26  28
ENDBRANCH  20  26
ENDBRANCH  14  15
ENDBRANCH   8   9
BRANCH   8  31
HETATM   31  C   UNL     1      -9.618  12.790  70.907  1.00  0.00     8.787 A  
HETATM   32  C   UNL     1      -9.583  15.380  72.000  1.00  0.00     4.492 A  
HETATM   33  C   UNL     1     -10.545  14.470  72.410  1.00  0.00     2.955 A  
HETATM   34  F   UNL     1      -9.597  16.628  72.489  1.00  0.00     6.275 F  
HETATM   35  C   UNL     1      -8.626  13.719  70.541  1.00  0.00     4.017 A  
HETATM   36  C   UNL     1     -10.556  13.177  71.878  1.00  0.00     8.216 A  
HETATM   37  C   UNL     1      -8.613  15.011  71.081  1.00  0.00     3.162 A  
ENDBRANCH   8  31
ENDBRANCH   5   8
TORSDOF 10
ENDMDL
MODEL      248
REMARK 921   NORMALIZED FREE ENERGY PREDICTED BY IDOCK:   31.38 KCAL/MOL
REMARK 922        TOTAL FREE ENERGY PREDICTED BY IDOCK:   48.37 KCAL/MOL
REMARK 923 INTER-LIGAND FREE ENERGY PREDICTED BY IDOCK:   41.82 KCAL/MOL
REMARK 924 INTRA-LIGAND FREE ENERGY PREDICTED BY IDOCK:    6.55 KCAL/MOL
REMARK 927      BINDING AFFINITY PREDICTED BY RF-SCORE:    0.00 PKD
ROOT
HETATM    1  F   UNL     1      -7.580   9.645  74.317  1.00  0.00     0.670 F  
HETATM    2  C   UNL     1      -7.985  10.170  73.153  1.00  0.00     6.418 A  
HETATM    3  C   UNL     1      -7.102  10.226  72.082  1.00  0.00     2.959 A  
HETATM    4  C   UNL     1      -7.512  10.801  70.876  1.00  0.00     2.178 A  
HETATM    5  C   UNL     1      -8.813  11.321  70.732  1.00  0.00     5.267 A  
HETATM    6  C   UNL     1      -9.698  11.214  71.822  1.00  0.00     9.929 A  
HETATM    7  C   UNL     1      -9.282  10.648  73.032  1.00  0.00    13.426 A  
ENDROOT
BRANCH   5   8
HETATM    8  C   UNL     1      -9.238  11.983  69.408  1.00  0.00     1.020 C  
BRANCH   8   9
HETATM    9  N   UNL     1     -10.357  11.252  68.749  1.00  0.00    -0.201 NA 
HETATM   10  C   UNL     1     -10.545   9.861  69.276  1.00  0.00    -0.224 C  
HETATM   11  C   UNL     1      -9.592   8.755  68.734  1.00  0.00    -0.158 C  
HETATM   12  C   UNL     1     -10.219  11.151  67.270  1.00  0.00    -0.193 C  
HETATM   13  C   UNL     1      -9.182  10.124  66.765  1.00  0.00    -0.151 C  
HETATM   14  N   UNL     1      -9.568   8.800  67.266  1.00  0.00    -0.157 NA 
BRANCH  14  15
HETATM   15  C   UNL     1      -8.852   7.735  66.716  1.00  0.00    -0.139 A  
HETATM   16  N   UNL     1      -9.107   6.510  67.152  1.00  0.00    -0.119 NA 
HETATM   17  C   UNL     1      -8.384   5.535  66.627  1.00  0.00    -0.109 A  
HETATM   18  N   UNL     1      -7.941   8.003  65.783  1.00  0.00    -0.104 NA 
HETATM   19  N   UNL     1      -7.413   5.720  65.748  1.00  0.00    -0.076 NA 
HETATM   20  C   UNL     1      -7.251   6.965  65.322  1.00  0.00    -0.074 A  
BRANCH  17  21
HETATM   21  N   UNL     1      -8.680   4.222  66.943  1.00  0.00    -0.111 NA 
HETATM   22  H   UNL     1      -7.969   3.589  67.308  1.00  0.00     0.000 HD 
BRANCH  21  23
HETATM   23  C   UNL     1     -10.037   3.786  66.734  1.00  0.00     0.351 C  
BRANCH  23  24
HETATM   24  C   UNL     1     -10.372   4.132  65.318  1.00  0.00    -0.184 C  
HETATM   25  C   UNL     1      -9.478   4.442  64.368  1.00  0.00    -0.119 C  
ENDBRANCH  23  24
ENDBRANCH  21  23
ENDBRANCH  17  21
BRANCH  20  26
HETATM   26  N   UNL     1      -6.373   7.111  64.264  1.00  0.00    -0.039 NA 
HETATM   27  H   UNL     1      -6.313   7.999  63.763  1.00  0.00     0.000 HD 
BRANCH  26  28
HETATM   28  C   UNL     1      -5.543   5.998  63.876  1.00  0.00    -0.018 C  
BRANCH  28  29
HETATM   29  C   UNL     1      -5.790   4.869  64.842  1.00  0.00    -0.017 C  
HETATM   30  C   UNL     1      -6.639   3.852  64.637  1.00  0.00    -0.043 C  
ENDBRANCH  28  29
ENDBRANCH  26  28
ENDBRANCH  20  26
ENDBRANCH  14  15
ENDBRANCH   8   9
BRANCH   8  31
HETATM   31  C   UNL     1      -9.510  13.489  69.643  1.00  0.00     1.423 A  
HETATM   32  C   UNL     1      -9.974  16.247  69.935  1.00  0.00     0.065 A  
HETATM   33  C   UNL     1     -10.974  15.341  70.254  1.00  0.00    -0.313 A  
HETATM   34  F   UNL     1     -10.212  17.563  70.032  1.00  0.00     0.041 F  
HETATM   35  C   UNL     1      -8.498  14.429  69.369  1.00  0.00     0.269 A  
HETATM   36  C   UNL     1     -10.740  13.969  70.122  1.00  0.00     0.516 A  
HETATM   37  C   UNL     1      -8.731  15.802  69.508  1.00  0.00    -0.160 A  
ENDBRANCH   8  31
ENDBRANCH   5   8
TORSDOF 10
ENDMDL
MODEL      249
REMARK 921   NORMALIZED FREE ENERGY PREDICTED BY IDOCK:   31.73 KCAL/MOL
REMARK 922        TOTAL FREE ENERGY PREDICTED BY IDOCK:   48.93 KCAL/MOL
REMARK 923 INTER-LIGAND FREE ENERGY PREDICTED BY IDOCK:   47.68 KCAL/MOL
REMARK 924 INTRA-LIGAND FREE ENERGY PREDICTED BY IDOCK:    1.25 KCAL/MOL
REMARK 927      BINDING AFFINITY PREDICTED BY RF-SCORE:    0.00 PKD
ROOT
HETATM    1  F   UNL     1     -11.799  16.202  63.423  1.00  0.00     0.364 F  
HETATM    2  C   UNL     1     -11.506  15.230  64.297  1.00  0.00    -0.153 A  
HETATM    3  C   UNL     1     -11.556  13.903  63.889  1.00  0.00    -0.158 A  
HETATM    4  C   UNL     1     -11.281  12.885  64.806  1.00  0.00    -0.336 A  
HETATM    5  C   UNL     1     -10.948  13.189  66.140  1.00  0.00    -0.299 A  
HETATM    6  C   UNL     1     -10.866  14.545  66.515  1.00  0.00    -0.314 A  
HETATM    7  C   UNL     1     -11.153  15.561  65.598  1.00  0.00    -0.235 A  
ENDROOT
BRANCH   5   8
HETATM    8  C   UNL     1     -10.682  12.055  67.147  1.00  0.00    -0.239 C  
BRANCH   8   9
HETATM    9  N   UNL     1     -11.391  12.275  68.440  1.00  0.00    -0.267 NA 
HETATM   10  C   UNL     1     -10.491  12.778  69.528  1.00  0.00     0.566 C  
HETATM   11  C   UNL     1      -9.607  11.731  70.267  1.00  0.00     3.501 C  
HETATM   12  C   UNL     1     -12.081  11.062  68.960  1.00  0.00    -0.215 C  
HETATM   13  C   UNL     1     -11.163   9.990  69.586  1.00  0.00    -0.239 C  
HETATM   14  N   UNL     1     -10.440  10.603  70.705  1.00  0.00     0.708 NA 
BRANCH  14  15
HETATM   15  C   UNL     1      -9.734   9.705  71.508  1.00  0.00     0.642 A  
HETATM   16  N   UNL     1      -8.416   9.649  71.387  1.00  0.00     0.079 NA 
HETATM   17  C   UNL     1      -7.790   8.763  72.142  1.00  0.00     0.058 A  
HETATM   18  N   UNL     1     -10.422   8.940  72.352  1.00  0.00    -0.168 NA 
HETATM   19  N   UNL     1      -8.401   7.917  72.956  1.00  0.00    -0.148 NA 
HETATM   20  C   UNL     1      -9.714   8.066  73.061  1.00  0.00    -0.278 A  
BRANCH  17  21
HETATM   21  N   UNL     1      -6.408   8.737  72.159  1.00  0.00    -0.116 NA 
HETATM   22  H   UNL     1      -5.866   9.515  72.534  1.00  0.00     0.000 HD 
BRANCH  21  23
HETATM   23  C   UNL     1      -5.766   7.563  71.626  1.00  0.00    -0.036 C  
BRANCH  23  24
HETATM   24  C   UNL     1      -6.121   7.518  70.173  1.00  0.00    -0.027 C  
HETATM   25  C   UNL     1      -7.057   6.724  69.634  1.00  0.00    -0.068 C  
ENDBRANCH  23  24
ENDBRANCH  21  23
ENDBRANCH  17  21
BRANCH  20  26
HETATM   26  N   UNL     1     -10.310   7.314  74.057  1.00  0.00    -0.406 NA 
HETATM   27  H   UNL     1      -9.798   7.094  74.913  1.00  0.00     0.000 HD 
BRANCH  26  28
HETATM   28  C   UNL     1     -11.661   6.843  73.875  1.00  0.00     1.942 C  
BRANCH  28  29
HETATM   29  C   UNL     1     -11.801   6.360  72.454  1.00  0.00    -0.255 C  
HETATM   30  C   UNL     1     -12.866   5.710  71.965  1.00  0.00     1.045 C  
ENDBRANCH  28  29
ENDBRANCH  26  28
ENDBRANCH  20  26
ENDBRANCH  14  15
ENDBRANCH   8   9
BRANCH   8  31
HETATM   31  C   UNL     1     -10.976  10.688  66.482  1.00  0.00    -0.098 A  
HETATM   32  C   UNL     1     -11.621   8.264  65.213  1.00  0.00    10.149 A  
HETATM   33  C   UNL     1     -10.365   8.822  65.037  1.00  0.00     2.712 A  
HETATM   34  F   UNL     1     -11.942   7.131  64.570  1.00  0.00    10.476 F  
HETATM   35  C   UNL     1     -12.229  10.076  66.678  1.00  0.00     5.529 A  
HETATM   36  C   UNL     1     -10.038  10.021  65.679  1.00  0.00    -0.321 A  
HETATM   37  C   UNL     1     -12.552   8.872  66.041  1.00  0.00    14.281 A  
ENDBRANCH   8  31
ENDBRANCH   5   8
TORSDOF 10
ENDMDL
MODEL      250
REMARK 921   NORMALIZED FREE ENERGY PREDICTED BY IDOCK:   60.86 KCAL/MOL
REMARK 922        TOTAL FREE ENERGY PREDICTED BY IDOCK:   95.10 KCAL/MOL
REMARK 923 INTER-LIGAND FREE ENERGY PREDICTED BY IDOCK:   84.38 KCAL/MOL
REMARK 924 INTRA-LIGAND FREE ENERGY PREDICTED BY IDOCK:   10.73 KCAL/MOL
REMARK 927      BINDING AFFINITY PREDICTED BY RF-SCORE:    0.00 PKD
ROOT
HETATM    1  F   UNL     1      -9.879  19.577  63.348  1.00  0.00     9.450 F  
HETATM    2  C   UNL     1      -9.752  18.265  63.584  1.00  0.00    14.235 A  
HETATM    3  C   UNL     1     -10.890  17.491  63.778  1.00  0.00     6.074 A  
HETATM    4  C   UNL     1     -10.760  16.127  64.055  1.00  0.00     1.691 A  
HETATM    5  C   UNL     1      -9.489  15.527  64.134  1.00  0.00     5.439 A  
HETATM    6  C   UNL     1      -8.356  16.328  63.893  1.00  0.00    14.369 A  
HETATM    7  C   UNL     1      -8.487  17.695  63.628  1.00  0.00    16.469 A  
ENDROOT
BRANCH   5   8
HETATM    8  C   UNL     1      -9.362  14.030  64.475  1.00  0.00     2.187 C  
BRANCH   8   9
HETATM    9  N   UNL     1      -7.987  13.671  64.923  1.00  0.00     6.388 NA 
HETATM   10  C   UNL     1      -7.602  12.265  64.577  1.00  0.00     4.811 C  
HETATM   11  C   UNL     1      -8.128  11.130  65.504  1.00  0.00     0.145 C  
HETATM   12  C   UNL     1      -7.767  13.844  66.385  1.00  0.00     1.669 C  
HETATM   13  C   UNL     1      -8.400  12.762  67.287  1.00  0.00    -0.187 C  
HETATM   14  N   UNL     1      -7.837  11.462  66.905  1.00  0.00    -0.153 NA 
BRANCH  14  15
HETATM   15  C   UNL     1      -8.147  10.413  67.773  1.00  0.00    -0.103 A  
HETATM   16  N   UNL     1      -7.668  10.452  69.007  1.00  0.00    -0.105 NA 
HETATM   17  C   UNL     1      -7.959   9.424  69.787  1.00  0.00    -0.119 A  
HETATM   18  N   UNL     1      -8.903   9.419  67.315  1.00  0.00    -0.127 NA 
HETATM   19  N   UNL     1      -8.645   8.363  69.391  1.00  0.00    -0.128 NA 
HETATM   20  C   UNL     1      -9.133   8.419  68.160  1.00  0.00    -0.138 A  
BRANCH  17  21
HETATM   21  N   UNL     1      -7.599   9.457  71.121  1.00  0.00    -0.329 NA 
HETATM   22  H   UNL     1      -8.281   9.288  71.860  1.00  0.00     0.000 HD 
BRANCH  21  23
HETATM   23  C   UNL     1      -6.220   9.738  71.423  1.00  0.00     0.088 C  
BRANCH  23  24
HETATM   24  C   UNL     1      -5.814  10.855  70.513  1.00  0.00    -0.130 C  
HETATM   25  C   UNL     1      -6.594  11.404  69.572  1.00  0.00    -0.129 C  
ENDBRANCH  23  24
ENDBRANCH  21  23
ENDBRANCH  17  21
BRANCH  20  26
HETATM   26  N   UNL     1     -10.008   7.400  67.832  1.00  0.00    -0.158 NA 
HETATM   27  H   UNL     1     -10.913   7.328  68.298  1.00  0.00     0.000 HD 
BRANCH  26  28
HETATM   28  C   UNL     1      -9.628   6.440  66.825  1.00  0.00    -0.155 C  
BRANCH  28  29
HETATM   29  C   UNL     1      -8.233   5.964  67.133  1.00  0.00    -0.105 C  
HETATM   30  C   UNL     1      -7.804   5.566  68.339  1.00  0.00    -0.088 C  
ENDBRANCH  28  29
ENDBRANCH  26  28
ENDBRANCH  20  26
ENDBRANCH  14  15
ENDBRANCH   8   9
BRANCH   8  31
HETATM   31  C   UNL     1     -10.482  13.624  65.464  1.00  0.00    -0.314 A  
HETATM   32  C   UNL     1     -12.548  13.021  67.274  1.00  0.00     0.734 A  
HETATM   33  C   UNL     1     -12.540  12.439  66.015  1.00  0.00     0.631 A  
HETATM   34  F   UNL     1     -13.558  12.768  68.118  1.00  0.00     3.453 F  
HETATM   35  C   UNL     1     -10.491  14.167  66.764  1.00  0.00    -0.277 A  
HETATM   36  C   UNL     1     -11.506  12.727  65.120  1.00  0.00    -0.356 A  
HETATM   37  C   UNL     1     -11.524  13.871  67.662  1.00  0.00    -0.354 A  
ENDBRANCH   8  31
ENDBRANCH   5   8
TORSDOF 10
ENDMDL
